data_str_m3_o1_o16_pcu_sym.130
_audit_creation_date              2020-01-03
_audit_creation_method            'Materials Studio'
_symmetry_space_group_name_H-M    'P1'
_symmetry_Int_Tables_number       1
_symmetry_cell_setting            triclinic
loop_
_symmetry_equiv_pos_as_xyz
  x,y,z
_cell_length_a                    29.5516
_cell_length_b                    32.1179
_cell_length_c                    26.1488
_cell_angle_alpha                 89.9822
_cell_angle_beta                  69.7871
_cell_angle_gamma                 89.9309
loop_
_atom_site_label
_atom_site_type_symbol
_atom_site_fract_x
_atom_site_fract_y
_atom_site_fract_z
_atom_site_U_iso_or_equiv
_atom_site_adp_type
_atom_site_occupancy
C1     C     0.16666   0.24669   0.25002   0.00000  Uiso   1.00
C2     C     0.14401   0.17366   0.49263   0.00000  Uiso   1.00
C3     C     0.15263   0.18620   0.43861   0.00000  Uiso   1.00
C4     C     0.18091   0.17932   0.01469   0.00000  Uiso   1.00
C5     C     0.21934   0.20724   0.48879   0.00000  Uiso   1.00
C6     C     0.22339   0.22485   0.43867   0.00000  Uiso   1.00
C7     C     0.19106   0.21371   0.41318   0.00000  Uiso   1.00
C8     C     0.18158   0.15779   0.06112   0.00000  Uiso   1.00
C9     C     0.24698   0.20175   0.06522   0.00000  Uiso   1.00
C10    C     0.12216   0.17107   0.41168   0.00000  Uiso   1.00
C11    C     0.20155   0.31196   0.26478   0.00000  Uiso   1.00
C12    C     0.13983   0.16846   0.35230   0.00000  Uiso   1.00
C13    C     0.20163   0.02129   0.26463   0.00000  Uiso   1.00
C14    C     0.16678   0.04249   0.24975   0.00000  Uiso   1.00
C15    C     0.13193   0.02137   0.23487   0.00000  Uiso   1.00
C16    C     0.13185   0.31204   0.23501   0.00000  Uiso   1.00
C17    C     0.16666   0.29084   0.24997   0.00000  Uiso   1.00
C18    C     0.31837   0.13777   0.22064   0.00000  Uiso   1.00
C19    C     0.03297   0.13778   0.22066   0.00000  Uiso   1.00
C20    C     0.01497   0.19558   0.27933   0.00000  Uiso   1.00
C21    C     0.30041   0.19562   0.27923   0.00000  Uiso   1.00
C22    C     0.16671   0.08664   0.24989   0.00000  Uiso   1.00
C23    C     0.19350   0.16666   0.14777   0.00000  Uiso   1.00
C24    C     0.25287   0.21742   0.01374   0.00000  Uiso   1.00
C25    C     0.21035   0.17289   0.08939   0.00000  Uiso   1.00
C26    C     0.07738   0.15361   0.44195   0.00000  Uiso   1.00
C27    C     0.06443   0.14914   0.49813   0.00000  Uiso   1.00
C28    C     0.09775   0.15844   0.02335   0.00000  Uiso   1.00
H29    H     0.26961   0.21337   0.08698   0.00000  Uiso   1.00
H30    H     0.22850   0.03756   0.27660   0.00000  Uiso   1.00
H31    H     0.10512   0.03772   0.22279   0.00000  Uiso   1.00
H32    H     0.10499   0.29575   0.22304   0.00000  Uiso   1.00
H33    H     0.30747   0.11468   0.19711   0.00000  Uiso   1.00
H34    H     0.05829   0.11465   0.19721   0.00000  Uiso   1.00
H35    H     0.02589   0.21869   0.30282   0.00000  Uiso   1.00
H36    H     0.27522   0.21889   0.30244   0.00000  Uiso   1.00
H37    H     0.25216   0.24651   0.41860   0.00000  Uiso   1.00
H38    H     0.28172   0.23932   0.49497   0.00000  Uiso   1.00
H39    H     0.05288   0.14281   0.42212   0.00000  Uiso   1.00
H40    H     0.08657   0.15491   0.06707   0.00000  Uiso   1.00
H41    H     0.02930   0.13693   0.02184   0.00000  Uiso   1.00
H42    H     0.19525   0.22807   0.37438   0.00000  Uiso   1.00
H43    H     0.22836   0.29562   0.27688   0.00000  Uiso   1.00
N44    N     0.04760   0.16668   0.25002   0.00000  Uiso   1.00
N45    N     0.28573   0.16665   0.25000   0.00000  Uiso   1.00
O46    O     0.12846   0.22775   0.25001   0.00000  Uiso   1.00
O47    O     0.20490   0.22774   0.25000   0.00000  Uiso   1.00
O48    O     0.10947   0.16666   0.32681   0.00000  Uiso   1.00
O49    O     0.18591   0.16665   0.32681   0.00000  Uiso   1.00
O50    O     0.12843   0.10559   0.25000   0.00000  Uiso   1.00
O51    O     0.20488   0.10558   0.24999   0.00000  Uiso   1.00
O52    O     0.14742   0.16668   0.17319   0.00000  Uiso   1.00
O53    O     0.22387   0.16667   0.17319   0.00000  Uiso   1.00
Zn54   Zn    0.11562   0.16667   0.25000   0.00000  Uiso   1.00
Zn55   Zn    0.21771   0.16666   0.25000   0.00000  Uiso   1.00
I56    I     0.15194   0.09638   0.08233   0.00000  Uiso   1.00
C57    C     0.49999   0.24669   0.25002   0.00000  Uiso   1.00
C58    C     0.47734   0.17366   0.49263   0.00000  Uiso   1.00
C59    C     0.48596   0.18620   0.43861   0.00000  Uiso   1.00
C60    C     0.51425   0.17932   0.01469   0.00000  Uiso   1.00
C61    C     0.55267   0.20724   0.48879   0.00000  Uiso   1.00
C62    C     0.55672   0.22485   0.43867   0.00000  Uiso   1.00
C63    C     0.52439   0.21371   0.41318   0.00000  Uiso   1.00
C64    C     0.51491   0.15779   0.06112   0.00000  Uiso   1.00
C65    C     0.58032   0.20175   0.06522   0.00000  Uiso   1.00
C66    C     0.45549   0.17107   0.41168   0.00000  Uiso   1.00
C67    C     0.53489   0.31196   0.26478   0.00000  Uiso   1.00
C68    C     0.47316   0.16846   0.35230   0.00000  Uiso   1.00
C69    C     0.53497   0.02129   0.26463   0.00000  Uiso   1.00
C70    C     0.50012   0.04249   0.24975   0.00000  Uiso   1.00
C71    C     0.46526   0.02137   0.23487   0.00000  Uiso   1.00
C72    C     0.46519   0.31204   0.23501   0.00000  Uiso   1.00
C73    C     0.49999   0.29084   0.24997   0.00000  Uiso   1.00
C74    C     0.65171   0.13777   0.22064   0.00000  Uiso   1.00
C75    C     0.36630   0.13778   0.22066   0.00000  Uiso   1.00
C76    C     0.34830   0.19558   0.27933   0.00000  Uiso   1.00
C77    C     0.63374   0.19562   0.27923   0.00000  Uiso   1.00
C78    C     0.50004   0.08664   0.24989   0.00000  Uiso   1.00
C79    C     0.52683   0.16666   0.14777   0.00000  Uiso   1.00
C80    C     0.58620   0.21742   0.01374   0.00000  Uiso   1.00
C81    C     0.54368   0.17289   0.08939   0.00000  Uiso   1.00
C82    C     0.41072   0.15361   0.44195   0.00000  Uiso   1.00
C83    C     0.39777   0.14914   0.49813   0.00000  Uiso   1.00
C84    C     0.43109   0.15844   0.02335   0.00000  Uiso   1.00
H85    H     0.60294   0.21337   0.08698   0.00000  Uiso   1.00
H86    H     0.56184   0.03756   0.27660   0.00000  Uiso   1.00
H87    H     0.43846   0.03772   0.22279   0.00000  Uiso   1.00
H88    H     0.43832   0.29575   0.22304   0.00000  Uiso   1.00
H89    H     0.64080   0.11468   0.19711   0.00000  Uiso   1.00
H90    H     0.39162   0.11465   0.19721   0.00000  Uiso   1.00
H91    H     0.35922   0.21869   0.30282   0.00000  Uiso   1.00
H92    H     0.60855   0.21889   0.30244   0.00000  Uiso   1.00
H93    H     0.58550   0.24651   0.41860   0.00000  Uiso   1.00
H94    H     0.61505   0.23932   0.49497   0.00000  Uiso   1.00
H95    H     0.38622   0.14281   0.42212   0.00000  Uiso   1.00
H96    H     0.41990   0.15491   0.06707   0.00000  Uiso   1.00
H97    H     0.36264   0.13693   0.02184   0.00000  Uiso   1.00
H98    H     0.52859   0.22807   0.37438   0.00000  Uiso   1.00
H99    H     0.56169   0.29562   0.27688   0.00000  Uiso   1.00
N100   N     0.38093   0.16668   0.25002   0.00000  Uiso   1.00
N101   N     0.61906   0.16665   0.25000   0.00000  Uiso   1.00
O102   O     0.46179   0.22775   0.25001   0.00000  Uiso   1.00
O103   O     0.53823   0.22774   0.25000   0.00000  Uiso   1.00
O104   O     0.44280   0.16666   0.32681   0.00000  Uiso   1.00
O105   O     0.51924   0.16665   0.32681   0.00000  Uiso   1.00
O106   O     0.46177   0.10559   0.25000   0.00000  Uiso   1.00
O107   O     0.53821   0.10558   0.24999   0.00000  Uiso   1.00
O108   O     0.48076   0.16668   0.17319   0.00000  Uiso   1.00
O109   O     0.55720   0.16667   0.17319   0.00000  Uiso   1.00
Zn110  Zn    0.44896   0.16667   0.25000   0.00000  Uiso   1.00
Zn111  Zn    0.55104   0.16666   0.25000   0.00000  Uiso   1.00
I112   I     0.48527   0.09638   0.08233   0.00000  Uiso   1.00
C113   C     0.83332   0.24669   0.25002   0.00000  Uiso   1.00
C114   C     0.81067   0.17366   0.49263   0.00000  Uiso   1.00
C115   C     0.81930   0.18620   0.43861   0.00000  Uiso   1.00
C116   C     0.84758   0.17932   0.01469   0.00000  Uiso   1.00
C117   C     0.88600   0.20724   0.48879   0.00000  Uiso   1.00
C118   C     0.89006   0.22485   0.43867   0.00000  Uiso   1.00
C119   C     0.85773   0.21371   0.41318   0.00000  Uiso   1.00
C120   C     0.84825   0.15779   0.06112   0.00000  Uiso   1.00
C121   C     0.91365   0.20175   0.06522   0.00000  Uiso   1.00
C122   C     0.78883   0.17107   0.41168   0.00000  Uiso   1.00
C123   C     0.86822   0.31196   0.26478   0.00000  Uiso   1.00
C124   C     0.80650   0.16846   0.35230   0.00000  Uiso   1.00
C125   C     0.86830   0.02129   0.26463   0.00000  Uiso   1.00
C126   C     0.83345   0.04249   0.24975   0.00000  Uiso   1.00
C127   C     0.79860   0.02137   0.23487   0.00000  Uiso   1.00
C128   C     0.79852   0.31204   0.23501   0.00000  Uiso   1.00
C129   C     0.83333   0.29084   0.24997   0.00000  Uiso   1.00
C130   C     0.98504   0.13777   0.22064   0.00000  Uiso   1.00
C131   C     0.69964   0.13778   0.22066   0.00000  Uiso   1.00
C132   C     0.68164   0.19558   0.27933   0.00000  Uiso   1.00
C133   C     0.96708   0.19562   0.27923   0.00000  Uiso   1.00
C134   C     0.83337   0.08664   0.24989   0.00000  Uiso   1.00
C135   C     0.86017   0.16666   0.14777   0.00000  Uiso   1.00
C136   C     0.91953   0.21742   0.01374   0.00000  Uiso   1.00
C137   C     0.87701   0.17289   0.08939   0.00000  Uiso   1.00
C138   C     0.74405   0.15361   0.44195   0.00000  Uiso   1.00
C139   C     0.73110   0.14914   0.49813   0.00000  Uiso   1.00
C140   C     0.76442   0.15844   0.02335   0.00000  Uiso   1.00
H141   H     0.93627   0.21337   0.08698   0.00000  Uiso   1.00
H142   H     0.89517   0.03756   0.27660   0.00000  Uiso   1.00
H143   H     0.77179   0.03772   0.22279   0.00000  Uiso   1.00
H144   H     0.77166   0.29575   0.22304   0.00000  Uiso   1.00
H145   H     0.97413   0.11468   0.19711   0.00000  Uiso   1.00
H146   H     0.72495   0.11465   0.19721   0.00000  Uiso   1.00
H147   H     0.69256   0.21869   0.30282   0.00000  Uiso   1.00
H148   H     0.94189   0.21889   0.30244   0.00000  Uiso   1.00
H149   H     0.91883   0.24651   0.41860   0.00000  Uiso   1.00
H150   H     0.94839   0.23932   0.49497   0.00000  Uiso   1.00
H151   H     0.71955   0.14281   0.42212   0.00000  Uiso   1.00
H152   H     0.75324   0.15491   0.06707   0.00000  Uiso   1.00
H153   H     0.69597   0.13693   0.02184   0.00000  Uiso   1.00
H154   H     0.86192   0.22807   0.37438   0.00000  Uiso   1.00
H155   H     0.89502   0.29562   0.27688   0.00000  Uiso   1.00
N156   N     0.71426   0.16668   0.25002   0.00000  Uiso   1.00
N157   N     0.95239   0.16665   0.25000   0.00000  Uiso   1.00
O158   O     0.79512   0.22775   0.25001   0.00000  Uiso   1.00
O159   O     0.87157   0.22774   0.25000   0.00000  Uiso   1.00
O160   O     0.77613   0.16666   0.32681   0.00000  Uiso   1.00
O161   O     0.85258   0.16665   0.32681   0.00000  Uiso   1.00
O162   O     0.79510   0.10559   0.25000   0.00000  Uiso   1.00
O163   O     0.87154   0.10558   0.24999   0.00000  Uiso   1.00
O164   O     0.81409   0.16668   0.17319   0.00000  Uiso   1.00
O165   O     0.89053   0.16667   0.17319   0.00000  Uiso   1.00
Zn166  Zn    0.78229   0.16667   0.25000   0.00000  Uiso   1.00
Zn167  Zn    0.88438   0.16666   0.25000   0.00000  Uiso   1.00
I168   I     0.81860   0.09638   0.08233   0.00000  Uiso   1.00
C169   C     0.16666   0.58003   0.25002   0.00000  Uiso   1.00
C170   C     0.14401   0.50700   0.49263   0.00000  Uiso   1.00
C171   C     0.15263   0.51954   0.43861   0.00000  Uiso   1.00
C172   C     0.18091   0.51265   0.01469   0.00000  Uiso   1.00
C173   C     0.21934   0.54057   0.48879   0.00000  Uiso   1.00
C174   C     0.22339   0.55819   0.43867   0.00000  Uiso   1.00
C175   C     0.19106   0.54704   0.41318   0.00000  Uiso   1.00
C176   C     0.18158   0.49113   0.06112   0.00000  Uiso   1.00
C177   C     0.24698   0.53508   0.06522   0.00000  Uiso   1.00
C178   C     0.12216   0.50440   0.41168   0.00000  Uiso   1.00
C179   C     0.20155   0.64529   0.26478   0.00000  Uiso   1.00
C180   C     0.13983   0.50180   0.35230   0.00000  Uiso   1.00
C181   C     0.20163   0.35462   0.26463   0.00000  Uiso   1.00
C182   C     0.16678   0.37583   0.24975   0.00000  Uiso   1.00
C183   C     0.13193   0.35471   0.23487   0.00000  Uiso   1.00
C184   C     0.13185   0.64537   0.23501   0.00000  Uiso   1.00
C185   C     0.16666   0.62417   0.24997   0.00000  Uiso   1.00
C186   C     0.31837   0.47110   0.22064   0.00000  Uiso   1.00
C187   C     0.03297   0.47111   0.22066   0.00000  Uiso   1.00
C188   C     0.01497   0.52891   0.27933   0.00000  Uiso   1.00
C189   C     0.30041   0.52895   0.27923   0.00000  Uiso   1.00
C190   C     0.16671   0.41997   0.24989   0.00000  Uiso   1.00
C191   C     0.19350   0.49999   0.14777   0.00000  Uiso   1.00
C192   C     0.25287   0.55076   0.01374   0.00000  Uiso   1.00
C193   C     0.21035   0.50622   0.08939   0.00000  Uiso   1.00
C194   C     0.07738   0.48694   0.44195   0.00000  Uiso   1.00
C195   C     0.06443   0.48247   0.49813   0.00000  Uiso   1.00
C196   C     0.09775   0.49177   0.02335   0.00000  Uiso   1.00
H197   H     0.26961   0.54670   0.08698   0.00000  Uiso   1.00
H198   H     0.22850   0.37090   0.27660   0.00000  Uiso   1.00
H199   H     0.10512   0.37105   0.22279   0.00000  Uiso   1.00
H200   H     0.10499   0.62909   0.22304   0.00000  Uiso   1.00
H201   H     0.30747   0.44801   0.19711   0.00000  Uiso   1.00
H202   H     0.05829   0.44798   0.19721   0.00000  Uiso   1.00
H203   H     0.02589   0.55203   0.30282   0.00000  Uiso   1.00
H204   H     0.27522   0.55222   0.30244   0.00000  Uiso   1.00
H205   H     0.25216   0.57984   0.41860   0.00000  Uiso   1.00
H206   H     0.28172   0.57265   0.49497   0.00000  Uiso   1.00
H207   H     0.05288   0.47615   0.42212   0.00000  Uiso   1.00
H208   H     0.08657   0.48824   0.06707   0.00000  Uiso   1.00
H209   H     0.02930   0.47026   0.02184   0.00000  Uiso   1.00
H210   H     0.19525   0.56140   0.37438   0.00000  Uiso   1.00
H211   H     0.22836   0.62895   0.27688   0.00000  Uiso   1.00
N212   N     0.04760   0.50001   0.25002   0.00000  Uiso   1.00
N213   N     0.28573   0.49998   0.25000   0.00000  Uiso   1.00
O214   O     0.12846   0.56108   0.25001   0.00000  Uiso   1.00
O215   O     0.20490   0.56107   0.25000   0.00000  Uiso   1.00
O216   O     0.10947   0.50000   0.32681   0.00000  Uiso   1.00
O217   O     0.18591   0.49999   0.32681   0.00000  Uiso   1.00
O218   O     0.12843   0.43893   0.25000   0.00000  Uiso   1.00
O219   O     0.20488   0.43892   0.24999   0.00000  Uiso   1.00
O220   O     0.14742   0.50001   0.17319   0.00000  Uiso   1.00
O221   O     0.22387   0.50000   0.17319   0.00000  Uiso   1.00
Zn222  Zn    0.11562   0.50001   0.25000   0.00000  Uiso   1.00
Zn223  Zn    0.21771   0.49999   0.25000   0.00000  Uiso   1.00
I224   I     0.15194   0.42971   0.08233   0.00000  Uiso   1.00
C225   C     0.49999   0.58003   0.25002   0.00000  Uiso   1.00
C226   C     0.47734   0.50700   0.49263   0.00000  Uiso   1.00
C227   C     0.48596   0.51954   0.43861   0.00000  Uiso   1.00
C228   C     0.51425   0.51265   0.01469   0.00000  Uiso   1.00
C229   C     0.55267   0.54057   0.48879   0.00000  Uiso   1.00
C230   C     0.55672   0.55819   0.43867   0.00000  Uiso   1.00
C231   C     0.52439   0.54704   0.41318   0.00000  Uiso   1.00
C232   C     0.51491   0.49113   0.06112   0.00000  Uiso   1.00
C233   C     0.58032   0.53508   0.06522   0.00000  Uiso   1.00
C234   C     0.45549   0.50440   0.41168   0.00000  Uiso   1.00
C235   C     0.53489   0.64529   0.26478   0.00000  Uiso   1.00
C236   C     0.47316   0.50180   0.35230   0.00000  Uiso   1.00
C237   C     0.53497   0.35462   0.26463   0.00000  Uiso   1.00
C238   C     0.50012   0.37583   0.24975   0.00000  Uiso   1.00
C239   C     0.46526   0.35471   0.23487   0.00000  Uiso   1.00
C240   C     0.46519   0.64537   0.23501   0.00000  Uiso   1.00
C241   C     0.49999   0.62417   0.24997   0.00000  Uiso   1.00
C242   C     0.65171   0.47110   0.22064   0.00000  Uiso   1.00
C243   C     0.36630   0.47111   0.22066   0.00000  Uiso   1.00
C244   C     0.34830   0.52891   0.27933   0.00000  Uiso   1.00
C245   C     0.63374   0.52895   0.27923   0.00000  Uiso   1.00
C246   C     0.50004   0.41997   0.24989   0.00000  Uiso   1.00
C247   C     0.52683   0.49999   0.14777   0.00000  Uiso   1.00
C248   C     0.58620   0.55076   0.01374   0.00000  Uiso   1.00
C249   C     0.54368   0.50622   0.08939   0.00000  Uiso   1.00
C250   C     0.41072   0.48694   0.44195   0.00000  Uiso   1.00
C251   C     0.39777   0.48247   0.49813   0.00000  Uiso   1.00
C252   C     0.43109   0.49177   0.02335   0.00000  Uiso   1.00
H253   H     0.60294   0.54670   0.08698   0.00000  Uiso   1.00
H254   H     0.56184   0.37090   0.27660   0.00000  Uiso   1.00
H255   H     0.43846   0.37105   0.22279   0.00000  Uiso   1.00
H256   H     0.43832   0.62909   0.22304   0.00000  Uiso   1.00
H257   H     0.64080   0.44801   0.19711   0.00000  Uiso   1.00
H258   H     0.39162   0.44798   0.19721   0.00000  Uiso   1.00
H259   H     0.35922   0.55203   0.30282   0.00000  Uiso   1.00
H260   H     0.60855   0.55222   0.30244   0.00000  Uiso   1.00
H261   H     0.58550   0.57984   0.41860   0.00000  Uiso   1.00
H262   H     0.61505   0.57265   0.49497   0.00000  Uiso   1.00
H263   H     0.38622   0.47615   0.42212   0.00000  Uiso   1.00
H264   H     0.41990   0.48824   0.06707   0.00000  Uiso   1.00
H265   H     0.36264   0.47026   0.02184   0.00000  Uiso   1.00
H266   H     0.52859   0.56140   0.37438   0.00000  Uiso   1.00
H267   H     0.56169   0.62895   0.27688   0.00000  Uiso   1.00
N268   N     0.38093   0.50001   0.25002   0.00000  Uiso   1.00
N269   N     0.61906   0.49998   0.25000   0.00000  Uiso   1.00
O270   O     0.46179   0.56108   0.25001   0.00000  Uiso   1.00
O271   O     0.53823   0.56107   0.25000   0.00000  Uiso   1.00
O272   O     0.44280   0.50000   0.32681   0.00000  Uiso   1.00
O273   O     0.51924   0.49999   0.32681   0.00000  Uiso   1.00
O274   O     0.46177   0.43893   0.25000   0.00000  Uiso   1.00
O275   O     0.53821   0.43892   0.24999   0.00000  Uiso   1.00
O276   O     0.48076   0.50001   0.17319   0.00000  Uiso   1.00
O277   O     0.55720   0.50000   0.17319   0.00000  Uiso   1.00
Zn278  Zn    0.44896   0.50001   0.25000   0.00000  Uiso   1.00
Zn279  Zn    0.55104   0.49999   0.25000   0.00000  Uiso   1.00
I280   I     0.48527   0.42971   0.08233   0.00000  Uiso   1.00
C281   C     0.83332   0.58003   0.25002   0.00000  Uiso   1.00
C282   C     0.81067   0.50700   0.49263   0.00000  Uiso   1.00
C283   C     0.81930   0.51954   0.43861   0.00000  Uiso   1.00
C284   C     0.84758   0.51265   0.01469   0.00000  Uiso   1.00
C285   C     0.88600   0.54057   0.48879   0.00000  Uiso   1.00
C286   C     0.89006   0.55819   0.43867   0.00000  Uiso   1.00
C287   C     0.85773   0.54704   0.41318   0.00000  Uiso   1.00
C288   C     0.84825   0.49113   0.06112   0.00000  Uiso   1.00
C289   C     0.91365   0.53508   0.06522   0.00000  Uiso   1.00
C290   C     0.78883   0.50440   0.41168   0.00000  Uiso   1.00
C291   C     0.86822   0.64529   0.26478   0.00000  Uiso   1.00
C292   C     0.80650   0.50180   0.35230   0.00000  Uiso   1.00
C293   C     0.86830   0.35462   0.26463   0.00000  Uiso   1.00
C294   C     0.83345   0.37583   0.24975   0.00000  Uiso   1.00
C295   C     0.79860   0.35471   0.23487   0.00000  Uiso   1.00
C296   C     0.79852   0.64537   0.23501   0.00000  Uiso   1.00
C297   C     0.83333   0.62417   0.24997   0.00000  Uiso   1.00
C298   C     0.98504   0.47110   0.22064   0.00000  Uiso   1.00
C299   C     0.69964   0.47111   0.22066   0.00000  Uiso   1.00
C300   C     0.68164   0.52891   0.27933   0.00000  Uiso   1.00
C301   C     0.96708   0.52895   0.27923   0.00000  Uiso   1.00
C302   C     0.83337   0.41997   0.24989   0.00000  Uiso   1.00
C303   C     0.86017   0.49999   0.14777   0.00000  Uiso   1.00
C304   C     0.91953   0.55076   0.01374   0.00000  Uiso   1.00
C305   C     0.87701   0.50622   0.08939   0.00000  Uiso   1.00
C306   C     0.74405   0.48694   0.44195   0.00000  Uiso   1.00
C307   C     0.73110   0.48247   0.49813   0.00000  Uiso   1.00
C308   C     0.76442   0.49177   0.02335   0.00000  Uiso   1.00
H309   H     0.93627   0.54670   0.08698   0.00000  Uiso   1.00
H310   H     0.89517   0.37090   0.27660   0.00000  Uiso   1.00
H311   H     0.77179   0.37105   0.22279   0.00000  Uiso   1.00
H312   H     0.77166   0.62909   0.22304   0.00000  Uiso   1.00
H313   H     0.97413   0.44801   0.19711   0.00000  Uiso   1.00
H314   H     0.72495   0.44798   0.19721   0.00000  Uiso   1.00
H315   H     0.69256   0.55203   0.30282   0.00000  Uiso   1.00
H316   H     0.94189   0.55222   0.30244   0.00000  Uiso   1.00
H317   H     0.91883   0.57984   0.41860   0.00000  Uiso   1.00
H318   H     0.94839   0.57265   0.49497   0.00000  Uiso   1.00
H319   H     0.71955   0.47615   0.42212   0.00000  Uiso   1.00
H320   H     0.75324   0.48824   0.06707   0.00000  Uiso   1.00
H321   H     0.69597   0.47026   0.02184   0.00000  Uiso   1.00
H322   H     0.86192   0.56140   0.37438   0.00000  Uiso   1.00
H323   H     0.89502   0.62895   0.27688   0.00000  Uiso   1.00
N324   N     0.71426   0.50001   0.25002   0.00000  Uiso   1.00
N325   N     0.95239   0.49998   0.25000   0.00000  Uiso   1.00
O326   O     0.79512   0.56108   0.25001   0.00000  Uiso   1.00
O327   O     0.87157   0.56107   0.25000   0.00000  Uiso   1.00
O328   O     0.77613   0.50000   0.32681   0.00000  Uiso   1.00
O329   O     0.85258   0.49999   0.32681   0.00000  Uiso   1.00
O330   O     0.79510   0.43893   0.25000   0.00000  Uiso   1.00
O331   O     0.87154   0.43892   0.24999   0.00000  Uiso   1.00
O332   O     0.81409   0.50001   0.17319   0.00000  Uiso   1.00
O333   O     0.89053   0.50000   0.17319   0.00000  Uiso   1.00
Zn334  Zn    0.78229   0.50001   0.25000   0.00000  Uiso   1.00
Zn335  Zn    0.88438   0.49999   0.25000   0.00000  Uiso   1.00
I336   I     0.81860   0.42971   0.08233   0.00000  Uiso   1.00
C337   C     0.16666   0.91336   0.25002   0.00000  Uiso   1.00
C338   C     0.14401   0.84033   0.49263   0.00000  Uiso   1.00
C339   C     0.15263   0.85287   0.43861   0.00000  Uiso   1.00
C340   C     0.18091   0.84599   0.01469   0.00000  Uiso   1.00
C341   C     0.21934   0.87390   0.48879   0.00000  Uiso   1.00
C342   C     0.22339   0.89152   0.43867   0.00000  Uiso   1.00
C343   C     0.19106   0.88038   0.41318   0.00000  Uiso   1.00
C344   C     0.18158   0.82446   0.06112   0.00000  Uiso   1.00
C345   C     0.24698   0.86842   0.06522   0.00000  Uiso   1.00
C346   C     0.12216   0.83774   0.41168   0.00000  Uiso   1.00
C347   C     0.20155   0.97862   0.26478   0.00000  Uiso   1.00
C348   C     0.13983   0.83513   0.35230   0.00000  Uiso   1.00
C349   C     0.20163   0.68795   0.26463   0.00000  Uiso   1.00
C350   C     0.16678   0.70916   0.24975   0.00000  Uiso   1.00
C351   C     0.13193   0.68804   0.23487   0.00000  Uiso   1.00
C352   C     0.13185   0.97870   0.23501   0.00000  Uiso   1.00
C353   C     0.16666   0.95750   0.24997   0.00000  Uiso   1.00
C354   C     0.31837   0.80444   0.22064   0.00000  Uiso   1.00
C355   C     0.03297   0.80444   0.22066   0.00000  Uiso   1.00
C356   C     0.01497   0.86224   0.27933   0.00000  Uiso   1.00
C357   C     0.30041   0.86228   0.27923   0.00000  Uiso   1.00
C358   C     0.16671   0.75331   0.24989   0.00000  Uiso   1.00
C359   C     0.19350   0.83332   0.14777   0.00000  Uiso   1.00
C360   C     0.25287   0.88409   0.01374   0.00000  Uiso   1.00
C361   C     0.21035   0.83955   0.08939   0.00000  Uiso   1.00
C362   C     0.07738   0.82027   0.44195   0.00000  Uiso   1.00
C363   C     0.06443   0.81581   0.49813   0.00000  Uiso   1.00
C364   C     0.09775   0.82511   0.02335   0.00000  Uiso   1.00
H365   H     0.26961   0.88003   0.08698   0.00000  Uiso   1.00
H366   H     0.22850   0.70423   0.27660   0.00000  Uiso   1.00
H367   H     0.10512   0.70438   0.22279   0.00000  Uiso   1.00
H368   H     0.10499   0.96242   0.22304   0.00000  Uiso   1.00
H369   H     0.30747   0.78135   0.19711   0.00000  Uiso   1.00
H370   H     0.05829   0.78132   0.19721   0.00000  Uiso   1.00
H371   H     0.02589   0.88536   0.30282   0.00000  Uiso   1.00
H372   H     0.27522   0.88556   0.30244   0.00000  Uiso   1.00
H373   H     0.25216   0.91318   0.41860   0.00000  Uiso   1.00
H374   H     0.28172   0.90599   0.49497   0.00000  Uiso   1.00
H375   H     0.05288   0.80948   0.42212   0.00000  Uiso   1.00
H376   H     0.08657   0.82157   0.06707   0.00000  Uiso   1.00
H377   H     0.02930   0.80359   0.02184   0.00000  Uiso   1.00
H378   H     0.19525   0.89473   0.37438   0.00000  Uiso   1.00
H379   H     0.22836   0.96228   0.27688   0.00000  Uiso   1.00
N380   N     0.04760   0.83334   0.25002   0.00000  Uiso   1.00
N381   N     0.28573   0.83331   0.25000   0.00000  Uiso   1.00
O382   O     0.12846   0.89442   0.25001   0.00000  Uiso   1.00
O383   O     0.20490   0.89441   0.25000   0.00000  Uiso   1.00
O384   O     0.10947   0.83333   0.32681   0.00000  Uiso   1.00
O385   O     0.18591   0.83332   0.32681   0.00000  Uiso   1.00
O386   O     0.12843   0.77226   0.25000   0.00000  Uiso   1.00
O387   O     0.20488   0.77225   0.24999   0.00000  Uiso   1.00
O388   O     0.14742   0.83335   0.17319   0.00000  Uiso   1.00
O389   O     0.22387   0.83334   0.17319   0.00000  Uiso   1.00
Zn390  Zn    0.11562   0.83334   0.25000   0.00000  Uiso   1.00
Zn391  Zn    0.21771   0.83333   0.25000   0.00000  Uiso   1.00
I392   I     0.15194   0.76305   0.08233   0.00000  Uiso   1.00
C393   C     0.49999   0.91336   0.25002   0.00000  Uiso   1.00
C394   C     0.47734   0.84033   0.49263   0.00000  Uiso   1.00
C395   C     0.48596   0.85287   0.43861   0.00000  Uiso   1.00
C396   C     0.51425   0.84599   0.01469   0.00000  Uiso   1.00
C397   C     0.55267   0.87390   0.48879   0.00000  Uiso   1.00
C398   C     0.55672   0.89152   0.43867   0.00000  Uiso   1.00
C399   C     0.52439   0.88038   0.41318   0.00000  Uiso   1.00
C400   C     0.51491   0.82446   0.06112   0.00000  Uiso   1.00
C401   C     0.58032   0.86842   0.06522   0.00000  Uiso   1.00
C402   C     0.45549   0.83774   0.41168   0.00000  Uiso   1.00
C403   C     0.53489   0.97862   0.26478   0.00000  Uiso   1.00
C404   C     0.47316   0.83513   0.35230   0.00000  Uiso   1.00
C405   C     0.53497   0.68795   0.26463   0.00000  Uiso   1.00
C406   C     0.50012   0.70916   0.24975   0.00000  Uiso   1.00
C407   C     0.46526   0.68804   0.23487   0.00000  Uiso   1.00
C408   C     0.46519   0.97870   0.23501   0.00000  Uiso   1.00
C409   C     0.49999   0.95750   0.24997   0.00000  Uiso   1.00
C410   C     0.65171   0.80444   0.22064   0.00000  Uiso   1.00
C411   C     0.36630   0.80444   0.22066   0.00000  Uiso   1.00
C412   C     0.34830   0.86224   0.27933   0.00000  Uiso   1.00
C413   C     0.63374   0.86228   0.27923   0.00000  Uiso   1.00
C414   C     0.50004   0.75331   0.24989   0.00000  Uiso   1.00
C415   C     0.52683   0.83332   0.14777   0.00000  Uiso   1.00
C416   C     0.58620   0.88409   0.01374   0.00000  Uiso   1.00
C417   C     0.54368   0.83955   0.08939   0.00000  Uiso   1.00
C418   C     0.41072   0.82027   0.44195   0.00000  Uiso   1.00
C419   C     0.39777   0.81581   0.49813   0.00000  Uiso   1.00
C420   C     0.43109   0.82511   0.02335   0.00000  Uiso   1.00
H421   H     0.60294   0.88003   0.08698   0.00000  Uiso   1.00
H422   H     0.56184   0.70423   0.27660   0.00000  Uiso   1.00
H423   H     0.43846   0.70438   0.22279   0.00000  Uiso   1.00
H424   H     0.43832   0.96242   0.22304   0.00000  Uiso   1.00
H425   H     0.64080   0.78135   0.19711   0.00000  Uiso   1.00
H426   H     0.39162   0.78132   0.19721   0.00000  Uiso   1.00
H427   H     0.35922   0.88536   0.30282   0.00000  Uiso   1.00
H428   H     0.60855   0.88556   0.30244   0.00000  Uiso   1.00
H429   H     0.58550   0.91318   0.41860   0.00000  Uiso   1.00
H430   H     0.61505   0.90599   0.49497   0.00000  Uiso   1.00
H431   H     0.38622   0.80948   0.42212   0.00000  Uiso   1.00
H432   H     0.41990   0.82157   0.06707   0.00000  Uiso   1.00
H433   H     0.36264   0.80359   0.02184   0.00000  Uiso   1.00
H434   H     0.52859   0.89473   0.37438   0.00000  Uiso   1.00
H435   H     0.56169   0.96228   0.27688   0.00000  Uiso   1.00
N436   N     0.38093   0.83334   0.25002   0.00000  Uiso   1.00
N437   N     0.61906   0.83331   0.25000   0.00000  Uiso   1.00
O438   O     0.46179   0.89442   0.25001   0.00000  Uiso   1.00
O439   O     0.53823   0.89441   0.25000   0.00000  Uiso   1.00
O440   O     0.44280   0.83333   0.32681   0.00000  Uiso   1.00
O441   O     0.51924   0.83332   0.32681   0.00000  Uiso   1.00
O442   O     0.46177   0.77226   0.25000   0.00000  Uiso   1.00
O443   O     0.53821   0.77225   0.24999   0.00000  Uiso   1.00
O444   O     0.48076   0.83335   0.17319   0.00000  Uiso   1.00
O445   O     0.55720   0.83334   0.17319   0.00000  Uiso   1.00
Zn446  Zn    0.44896   0.83334   0.25000   0.00000  Uiso   1.00
Zn447  Zn    0.55104   0.83333   0.25000   0.00000  Uiso   1.00
I448   I     0.48527   0.76305   0.08233   0.00000  Uiso   1.00
C449   C     0.83332   0.91336   0.25002   0.00000  Uiso   1.00
C450   C     0.81067   0.84033   0.49263   0.00000  Uiso   1.00
C451   C     0.81930   0.85287   0.43861   0.00000  Uiso   1.00
C452   C     0.84758   0.84599   0.01469   0.00000  Uiso   1.00
C453   C     0.88600   0.87390   0.48879   0.00000  Uiso   1.00
C454   C     0.89006   0.89152   0.43867   0.00000  Uiso   1.00
C455   C     0.85773   0.88038   0.41318   0.00000  Uiso   1.00
C456   C     0.84825   0.82446   0.06112   0.00000  Uiso   1.00
C457   C     0.91365   0.86842   0.06522   0.00000  Uiso   1.00
C458   C     0.78883   0.83774   0.41168   0.00000  Uiso   1.00
C459   C     0.86822   0.97862   0.26478   0.00000  Uiso   1.00
C460   C     0.80650   0.83513   0.35230   0.00000  Uiso   1.00
C461   C     0.86830   0.68795   0.26463   0.00000  Uiso   1.00
C462   C     0.83345   0.70916   0.24975   0.00000  Uiso   1.00
C463   C     0.79860   0.68804   0.23487   0.00000  Uiso   1.00
C464   C     0.79852   0.97870   0.23501   0.00000  Uiso   1.00
C465   C     0.83333   0.95750   0.24997   0.00000  Uiso   1.00
C466   C     0.98504   0.80444   0.22064   0.00000  Uiso   1.00
C467   C     0.69964   0.80444   0.22066   0.00000  Uiso   1.00
C468   C     0.68164   0.86224   0.27933   0.00000  Uiso   1.00
C469   C     0.96708   0.86228   0.27923   0.00000  Uiso   1.00
C470   C     0.83337   0.75331   0.24989   0.00000  Uiso   1.00
C471   C     0.86017   0.83332   0.14777   0.00000  Uiso   1.00
C472   C     0.91953   0.88409   0.01374   0.00000  Uiso   1.00
C473   C     0.87701   0.83955   0.08939   0.00000  Uiso   1.00
C474   C     0.74405   0.82027   0.44195   0.00000  Uiso   1.00
C475   C     0.73110   0.81581   0.49813   0.00000  Uiso   1.00
C476   C     0.76442   0.82511   0.02335   0.00000  Uiso   1.00
H477   H     0.93627   0.88003   0.08698   0.00000  Uiso   1.00
H478   H     0.89517   0.70423   0.27660   0.00000  Uiso   1.00
H479   H     0.77179   0.70438   0.22279   0.00000  Uiso   1.00
H480   H     0.77166   0.96242   0.22304   0.00000  Uiso   1.00
H481   H     0.97413   0.78135   0.19711   0.00000  Uiso   1.00
H482   H     0.72495   0.78132   0.19721   0.00000  Uiso   1.00
H483   H     0.69256   0.88536   0.30282   0.00000  Uiso   1.00
H484   H     0.94189   0.88556   0.30244   0.00000  Uiso   1.00
H485   H     0.91883   0.91318   0.41860   0.00000  Uiso   1.00
H486   H     0.94839   0.90599   0.49497   0.00000  Uiso   1.00
H487   H     0.71955   0.80948   0.42212   0.00000  Uiso   1.00
H488   H     0.75324   0.82157   0.06707   0.00000  Uiso   1.00
H489   H     0.69597   0.80359   0.02184   0.00000  Uiso   1.00
H490   H     0.86192   0.89473   0.37438   0.00000  Uiso   1.00
H491   H     0.89502   0.96228   0.27688   0.00000  Uiso   1.00
N492   N     0.71426   0.83334   0.25002   0.00000  Uiso   1.00
N493   N     0.95239   0.83331   0.25000   0.00000  Uiso   1.00
O494   O     0.79512   0.89442   0.25001   0.00000  Uiso   1.00
O495   O     0.87157   0.89441   0.25000   0.00000  Uiso   1.00
O496   O     0.77613   0.83333   0.32681   0.00000  Uiso   1.00
O497   O     0.85258   0.83332   0.32681   0.00000  Uiso   1.00
O498   O     0.79510   0.77226   0.25000   0.00000  Uiso   1.00
O499   O     0.87154   0.77225   0.24999   0.00000  Uiso   1.00
O500   O     0.81409   0.83335   0.17319   0.00000  Uiso   1.00
O501   O     0.89053   0.83334   0.17319   0.00000  Uiso   1.00
Zn502  Zn    0.78229   0.83334   0.25000   0.00000  Uiso   1.00
Zn503  Zn    0.88438   0.83333   0.25000   0.00000  Uiso   1.00
I504   I     0.81860   0.76305   0.08233   0.00000  Uiso   1.00
C505   C     0.16666   0.24669   0.75002   0.00000  Uiso   1.00
C506   C     0.14401   0.17366   0.99263   0.00000  Uiso   1.00
C507   C     0.15263   0.18620   0.93861   0.00000  Uiso   1.00
C508   C     0.18091   0.17932   0.51469   0.00000  Uiso   1.00
C509   C     0.21934   0.20724   0.98879   0.00000  Uiso   1.00
C510   C     0.22339   0.22485   0.93867   0.00000  Uiso   1.00
C511   C     0.19106   0.21371   0.91318   0.00000  Uiso   1.00
C512   C     0.18158   0.15779   0.56112   0.00000  Uiso   1.00
C513   C     0.24698   0.20175   0.56522   0.00000  Uiso   1.00
C514   C     0.12216   0.17107   0.91168   0.00000  Uiso   1.00
C515   C     0.20155   0.31196   0.76478   0.00000  Uiso   1.00
C516   C     0.13983   0.16846   0.85230   0.00000  Uiso   1.00
C517   C     0.20163   0.02129   0.76463   0.00000  Uiso   1.00
C518   C     0.16678   0.04249   0.74975   0.00000  Uiso   1.00
C519   C     0.13193   0.02137   0.73487   0.00000  Uiso   1.00
C520   C     0.13185   0.31204   0.73501   0.00000  Uiso   1.00
C521   C     0.16666   0.29084   0.74997   0.00000  Uiso   1.00
C522   C     0.31837   0.13777   0.72064   0.00000  Uiso   1.00
C523   C     0.03297   0.13778   0.72066   0.00000  Uiso   1.00
C524   C     0.01497   0.19558   0.77933   0.00000  Uiso   1.00
C525   C     0.30041   0.19562   0.77923   0.00000  Uiso   1.00
C526   C     0.16671   0.08664   0.74989   0.00000  Uiso   1.00
C527   C     0.19350   0.16666   0.64777   0.00000  Uiso   1.00
C528   C     0.25287   0.21742   0.51374   0.00000  Uiso   1.00
C529   C     0.21035   0.17289   0.58939   0.00000  Uiso   1.00
C530   C     0.07738   0.15361   0.94195   0.00000  Uiso   1.00
C531   C     0.06443   0.14914   0.99813   0.00000  Uiso   1.00
C532   C     0.09775   0.15844   0.52335   0.00000  Uiso   1.00
H533   H     0.26961   0.21337   0.58698   0.00000  Uiso   1.00
H534   H     0.22850   0.03756   0.77660   0.00000  Uiso   1.00
H535   H     0.10512   0.03772   0.72279   0.00000  Uiso   1.00
H536   H     0.10499   0.29575   0.72304   0.00000  Uiso   1.00
H537   H     0.30747   0.11468   0.69711   0.00000  Uiso   1.00
H538   H     0.05829   0.11465   0.69721   0.00000  Uiso   1.00
H539   H     0.02589   0.21869   0.80282   0.00000  Uiso   1.00
H540   H     0.27522   0.21889   0.80244   0.00000  Uiso   1.00
H541   H     0.25216   0.24651   0.91860   0.00000  Uiso   1.00
H542   H     0.28172   0.23932   0.99497   0.00000  Uiso   1.00
H543   H     0.05288   0.14281   0.92212   0.00000  Uiso   1.00
H544   H     0.08657   0.15491   0.56707   0.00000  Uiso   1.00
H545   H     0.02930   0.13693   0.52184   0.00000  Uiso   1.00
H546   H     0.19525   0.22807   0.87438   0.00000  Uiso   1.00
H547   H     0.22836   0.29562   0.77688   0.00000  Uiso   1.00
N548   N     0.04760   0.16668   0.75002   0.00000  Uiso   1.00
N549   N     0.28573   0.16665   0.75000   0.00000  Uiso   1.00
O550   O     0.12846   0.22775   0.75001   0.00000  Uiso   1.00
O551   O     0.20490   0.22774   0.75000   0.00000  Uiso   1.00
O552   O     0.10947   0.16666   0.82681   0.00000  Uiso   1.00
O553   O     0.18591   0.16665   0.82681   0.00000  Uiso   1.00
O554   O     0.12843   0.10559   0.75000   0.00000  Uiso   1.00
O555   O     0.20488   0.10558   0.74999   0.00000  Uiso   1.00
O556   O     0.14742   0.16668   0.67319   0.00000  Uiso   1.00
O557   O     0.22387   0.16667   0.67319   0.00000  Uiso   1.00
Zn558  Zn    0.11562   0.16667   0.75000   0.00000  Uiso   1.00
Zn559  Zn    0.21771   0.16666   0.75000   0.00000  Uiso   1.00
I560   I     0.15194   0.09638   0.58233   0.00000  Uiso   1.00
C561   C     0.49999   0.24669   0.75002   0.00000  Uiso   1.00
C562   C     0.47734   0.17366   0.99263   0.00000  Uiso   1.00
C563   C     0.48596   0.18620   0.93861   0.00000  Uiso   1.00
C564   C     0.51425   0.17932   0.51469   0.00000  Uiso   1.00
C565   C     0.55267   0.20724   0.98879   0.00000  Uiso   1.00
C566   C     0.55672   0.22485   0.93867   0.00000  Uiso   1.00
C567   C     0.52439   0.21371   0.91318   0.00000  Uiso   1.00
C568   C     0.51491   0.15779   0.56112   0.00000  Uiso   1.00
C569   C     0.58032   0.20175   0.56522   0.00000  Uiso   1.00
C570   C     0.45549   0.17107   0.91168   0.00000  Uiso   1.00
C571   C     0.53489   0.31196   0.76478   0.00000  Uiso   1.00
C572   C     0.47316   0.16846   0.85230   0.00000  Uiso   1.00
C573   C     0.53497   0.02129   0.76463   0.00000  Uiso   1.00
C574   C     0.50012   0.04249   0.74975   0.00000  Uiso   1.00
C575   C     0.46526   0.02137   0.73487   0.00000  Uiso   1.00
C576   C     0.46519   0.31204   0.73501   0.00000  Uiso   1.00
C577   C     0.49999   0.29084   0.74997   0.00000  Uiso   1.00
C578   C     0.65171   0.13777   0.72064   0.00000  Uiso   1.00
C579   C     0.36630   0.13778   0.72066   0.00000  Uiso   1.00
C580   C     0.34830   0.19558   0.77933   0.00000  Uiso   1.00
C581   C     0.63374   0.19562   0.77923   0.00000  Uiso   1.00
C582   C     0.50004   0.08664   0.74989   0.00000  Uiso   1.00
C583   C     0.52683   0.16666   0.64777   0.00000  Uiso   1.00
C584   C     0.58620   0.21742   0.51374   0.00000  Uiso   1.00
C585   C     0.54368   0.17289   0.58939   0.00000  Uiso   1.00
C586   C     0.41072   0.15361   0.94195   0.00000  Uiso   1.00
C587   C     0.39777   0.14914   0.99813   0.00000  Uiso   1.00
C588   C     0.43109   0.15844   0.52335   0.00000  Uiso   1.00
H589   H     0.60294   0.21337   0.58698   0.00000  Uiso   1.00
H590   H     0.56184   0.03756   0.77660   0.00000  Uiso   1.00
H591   H     0.43846   0.03772   0.72279   0.00000  Uiso   1.00
H592   H     0.43832   0.29575   0.72304   0.00000  Uiso   1.00
H593   H     0.64080   0.11468   0.69711   0.00000  Uiso   1.00
H594   H     0.39162   0.11465   0.69721   0.00000  Uiso   1.00
H595   H     0.35922   0.21869   0.80282   0.00000  Uiso   1.00
H596   H     0.60855   0.21889   0.80244   0.00000  Uiso   1.00
H597   H     0.58550   0.24651   0.91860   0.00000  Uiso   1.00
H598   H     0.61505   0.23932   0.99497   0.00000  Uiso   1.00
H599   H     0.38622   0.14281   0.92212   0.00000  Uiso   1.00
H600   H     0.41990   0.15491   0.56707   0.00000  Uiso   1.00
H601   H     0.36264   0.13693   0.52184   0.00000  Uiso   1.00
H602   H     0.52859   0.22807   0.87438   0.00000  Uiso   1.00
H603   H     0.56169   0.29562   0.77688   0.00000  Uiso   1.00
N604   N     0.38093   0.16668   0.75002   0.00000  Uiso   1.00
N605   N     0.61906   0.16665   0.75000   0.00000  Uiso   1.00
O606   O     0.46179   0.22775   0.75001   0.00000  Uiso   1.00
O607   O     0.53823   0.22774   0.75000   0.00000  Uiso   1.00
O608   O     0.44280   0.16666   0.82681   0.00000  Uiso   1.00
O609   O     0.51924   0.16665   0.82681   0.00000  Uiso   1.00
O610   O     0.46177   0.10559   0.75000   0.00000  Uiso   1.00
O611   O     0.53821   0.10558   0.74999   0.00000  Uiso   1.00
O612   O     0.48076   0.16668   0.67319   0.00000  Uiso   1.00
O613   O     0.55720   0.16667   0.67319   0.00000  Uiso   1.00
Zn614  Zn    0.44896   0.16667   0.75000   0.00000  Uiso   1.00
Zn615  Zn    0.55104   0.16666   0.75000   0.00000  Uiso   1.00
I616   I     0.48527   0.09638   0.58233   0.00000  Uiso   1.00
C617   C     0.83332   0.24669   0.75002   0.00000  Uiso   1.00
C618   C     0.81067   0.17366   0.99263   0.00000  Uiso   1.00
C619   C     0.81930   0.18620   0.93861   0.00000  Uiso   1.00
C620   C     0.84758   0.17932   0.51469   0.00000  Uiso   1.00
C621   C     0.88600   0.20724   0.98879   0.00000  Uiso   1.00
C622   C     0.89006   0.22485   0.93867   0.00000  Uiso   1.00
C623   C     0.85773   0.21371   0.91318   0.00000  Uiso   1.00
C624   C     0.84825   0.15779   0.56112   0.00000  Uiso   1.00
C625   C     0.91365   0.20175   0.56522   0.00000  Uiso   1.00
C626   C     0.78883   0.17107   0.91168   0.00000  Uiso   1.00
C627   C     0.86822   0.31196   0.76478   0.00000  Uiso   1.00
C628   C     0.80650   0.16846   0.85230   0.00000  Uiso   1.00
C629   C     0.86830   0.02129   0.76463   0.00000  Uiso   1.00
C630   C     0.83345   0.04249   0.74975   0.00000  Uiso   1.00
C631   C     0.79860   0.02137   0.73487   0.00000  Uiso   1.00
C632   C     0.79852   0.31204   0.73501   0.00000  Uiso   1.00
C633   C     0.83333   0.29084   0.74997   0.00000  Uiso   1.00
C634   C     0.98504   0.13777   0.72064   0.00000  Uiso   1.00
C635   C     0.69964   0.13778   0.72066   0.00000  Uiso   1.00
C636   C     0.68164   0.19558   0.77933   0.00000  Uiso   1.00
C637   C     0.96708   0.19562   0.77923   0.00000  Uiso   1.00
C638   C     0.83337   0.08664   0.74989   0.00000  Uiso   1.00
C639   C     0.86017   0.16666   0.64777   0.00000  Uiso   1.00
C640   C     0.91953   0.21742   0.51374   0.00000  Uiso   1.00
C641   C     0.87701   0.17289   0.58939   0.00000  Uiso   1.00
C642   C     0.74405   0.15361   0.94195   0.00000  Uiso   1.00
C643   C     0.73110   0.14914   0.99813   0.00000  Uiso   1.00
C644   C     0.76442   0.15844   0.52335   0.00000  Uiso   1.00
H645   H     0.93627   0.21337   0.58698   0.00000  Uiso   1.00
H646   H     0.89517   0.03756   0.77660   0.00000  Uiso   1.00
H647   H     0.77179   0.03772   0.72279   0.00000  Uiso   1.00
H648   H     0.77166   0.29575   0.72304   0.00000  Uiso   1.00
H649   H     0.97413   0.11468   0.69711   0.00000  Uiso   1.00
H650   H     0.72495   0.11465   0.69721   0.00000  Uiso   1.00
H651   H     0.69256   0.21869   0.80282   0.00000  Uiso   1.00
H652   H     0.94189   0.21889   0.80244   0.00000  Uiso   1.00
H653   H     0.91883   0.24651   0.91860   0.00000  Uiso   1.00
H654   H     0.94839   0.23932   0.99497   0.00000  Uiso   1.00
H655   H     0.71955   0.14281   0.92212   0.00000  Uiso   1.00
H656   H     0.75324   0.15491   0.56707   0.00000  Uiso   1.00
H657   H     0.69597   0.13693   0.52184   0.00000  Uiso   1.00
H658   H     0.86192   0.22807   0.87438   0.00000  Uiso   1.00
H659   H     0.89502   0.29562   0.77688   0.00000  Uiso   1.00
N660   N     0.71426   0.16668   0.75002   0.00000  Uiso   1.00
N661   N     0.95239   0.16665   0.75000   0.00000  Uiso   1.00
O662   O     0.79512   0.22775   0.75001   0.00000  Uiso   1.00
O663   O     0.87157   0.22774   0.75000   0.00000  Uiso   1.00
O664   O     0.77613   0.16666   0.82681   0.00000  Uiso   1.00
O665   O     0.85258   0.16665   0.82681   0.00000  Uiso   1.00
O666   O     0.79510   0.10559   0.75000   0.00000  Uiso   1.00
O667   O     0.87154   0.10558   0.74999   0.00000  Uiso   1.00
O668   O     0.81409   0.16668   0.67319   0.00000  Uiso   1.00
O669   O     0.89053   0.16667   0.67319   0.00000  Uiso   1.00
Zn670  Zn    0.78229   0.16667   0.75000   0.00000  Uiso   1.00
Zn671  Zn    0.88438   0.16666   0.75000   0.00000  Uiso   1.00
I672   I     0.81860   0.09638   0.58233   0.00000  Uiso   1.00
C673   C     0.16666   0.58003   0.75002   0.00000  Uiso   1.00
C674   C     0.14401   0.50700   0.99263   0.00000  Uiso   1.00
C675   C     0.15263   0.51954   0.93861   0.00000  Uiso   1.00
C676   C     0.18091   0.51265   0.51469   0.00000  Uiso   1.00
C677   C     0.21934   0.54057   0.98879   0.00000  Uiso   1.00
C678   C     0.22339   0.55819   0.93867   0.00000  Uiso   1.00
C679   C     0.19106   0.54704   0.91318   0.00000  Uiso   1.00
C680   C     0.18158   0.49113   0.56112   0.00000  Uiso   1.00
C681   C     0.24698   0.53508   0.56522   0.00000  Uiso   1.00
C682   C     0.12216   0.50440   0.91168   0.00000  Uiso   1.00
C683   C     0.20155   0.64529   0.76478   0.00000  Uiso   1.00
C684   C     0.13983   0.50180   0.85230   0.00000  Uiso   1.00
C685   C     0.20163   0.35462   0.76463   0.00000  Uiso   1.00
C686   C     0.16678   0.37583   0.74975   0.00000  Uiso   1.00
C687   C     0.13193   0.35471   0.73487   0.00000  Uiso   1.00
C688   C     0.13185   0.64537   0.73501   0.00000  Uiso   1.00
C689   C     0.16666   0.62417   0.74997   0.00000  Uiso   1.00
C690   C     0.31837   0.47110   0.72064   0.00000  Uiso   1.00
C691   C     0.03297   0.47111   0.72066   0.00000  Uiso   1.00
C692   C     0.01497   0.52891   0.77933   0.00000  Uiso   1.00
C693   C     0.30041   0.52895   0.77923   0.00000  Uiso   1.00
C694   C     0.16671   0.41997   0.74989   0.00000  Uiso   1.00
C695   C     0.19350   0.49999   0.64777   0.00000  Uiso   1.00
C696   C     0.25287   0.55076   0.51374   0.00000  Uiso   1.00
C697   C     0.21035   0.50622   0.58939   0.00000  Uiso   1.00
C698   C     0.07738   0.48694   0.94195   0.00000  Uiso   1.00
C699   C     0.06443   0.48247   0.99813   0.00000  Uiso   1.00
C700   C     0.09775   0.49177   0.52335   0.00000  Uiso   1.00
H701   H     0.26961   0.54670   0.58698   0.00000  Uiso   1.00
H702   H     0.22850   0.37090   0.77660   0.00000  Uiso   1.00
H703   H     0.10512   0.37105   0.72279   0.00000  Uiso   1.00
H704   H     0.10499   0.62909   0.72304   0.00000  Uiso   1.00
H705   H     0.30747   0.44801   0.69711   0.00000  Uiso   1.00
H706   H     0.05829   0.44798   0.69721   0.00000  Uiso   1.00
H707   H     0.02589   0.55203   0.80282   0.00000  Uiso   1.00
H708   H     0.27522   0.55222   0.80244   0.00000  Uiso   1.00
H709   H     0.25216   0.57984   0.91860   0.00000  Uiso   1.00
H710   H     0.28172   0.57265   0.99497   0.00000  Uiso   1.00
H711   H     0.05288   0.47615   0.92212   0.00000  Uiso   1.00
H712   H     0.08657   0.48824   0.56707   0.00000  Uiso   1.00
H713   H     0.02930   0.47026   0.52184   0.00000  Uiso   1.00
H714   H     0.19525   0.56140   0.87438   0.00000  Uiso   1.00
H715   H     0.22836   0.62895   0.77688   0.00000  Uiso   1.00
N716   N     0.04760   0.50001   0.75002   0.00000  Uiso   1.00
N717   N     0.28573   0.49998   0.75000   0.00000  Uiso   1.00
O718   O     0.12846   0.56108   0.75001   0.00000  Uiso   1.00
O719   O     0.20490   0.56107   0.75000   0.00000  Uiso   1.00
O720   O     0.10947   0.50000   0.82681   0.00000  Uiso   1.00
O721   O     0.18591   0.49999   0.82681   0.00000  Uiso   1.00
O722   O     0.12843   0.43893   0.75000   0.00000  Uiso   1.00
O723   O     0.20488   0.43892   0.74999   0.00000  Uiso   1.00
O724   O     0.14742   0.50001   0.67319   0.00000  Uiso   1.00
O725   O     0.22387   0.50000   0.67319   0.00000  Uiso   1.00
Zn726  Zn    0.11562   0.50001   0.75000   0.00000  Uiso   1.00
Zn727  Zn    0.21771   0.49999   0.75000   0.00000  Uiso   1.00
I728   I     0.15194   0.42971   0.58233   0.00000  Uiso   1.00
C729   C     0.49999   0.58003   0.75002   0.00000  Uiso   1.00
C730   C     0.47734   0.50700   0.99263   0.00000  Uiso   1.00
C731   C     0.48596   0.51954   0.93861   0.00000  Uiso   1.00
C732   C     0.51425   0.51265   0.51469   0.00000  Uiso   1.00
C733   C     0.55267   0.54057   0.98879   0.00000  Uiso   1.00
C734   C     0.55672   0.55819   0.93867   0.00000  Uiso   1.00
C735   C     0.52439   0.54704   0.91318   0.00000  Uiso   1.00
C736   C     0.51491   0.49113   0.56112   0.00000  Uiso   1.00
C737   C     0.58032   0.53508   0.56522   0.00000  Uiso   1.00
C738   C     0.45549   0.50440   0.91168   0.00000  Uiso   1.00
C739   C     0.53489   0.64529   0.76478   0.00000  Uiso   1.00
C740   C     0.47316   0.50180   0.85230   0.00000  Uiso   1.00
C741   C     0.53497   0.35462   0.76463   0.00000  Uiso   1.00
C742   C     0.50012   0.37583   0.74975   0.00000  Uiso   1.00
C743   C     0.46526   0.35471   0.73487   0.00000  Uiso   1.00
C744   C     0.46519   0.64537   0.73501   0.00000  Uiso   1.00
C745   C     0.49999   0.62417   0.74997   0.00000  Uiso   1.00
C746   C     0.65171   0.47110   0.72064   0.00000  Uiso   1.00
C747   C     0.36630   0.47111   0.72066   0.00000  Uiso   1.00
C748   C     0.34830   0.52891   0.77933   0.00000  Uiso   1.00
C749   C     0.63374   0.52895   0.77923   0.00000  Uiso   1.00
C750   C     0.50004   0.41997   0.74989   0.00000  Uiso   1.00
C751   C     0.52683   0.49999   0.64777   0.00000  Uiso   1.00
C752   C     0.58620   0.55076   0.51374   0.00000  Uiso   1.00
C753   C     0.54368   0.50622   0.58939   0.00000  Uiso   1.00
C754   C     0.41072   0.48694   0.94195   0.00000  Uiso   1.00
C755   C     0.39777   0.48247   0.99813   0.00000  Uiso   1.00
C756   C     0.43109   0.49177   0.52335   0.00000  Uiso   1.00
H757   H     0.60294   0.54670   0.58698   0.00000  Uiso   1.00
H758   H     0.56184   0.37090   0.77660   0.00000  Uiso   1.00
H759   H     0.43846   0.37105   0.72279   0.00000  Uiso   1.00
H760   H     0.43832   0.62909   0.72304   0.00000  Uiso   1.00
H761   H     0.64080   0.44801   0.69711   0.00000  Uiso   1.00
H762   H     0.39162   0.44798   0.69721   0.00000  Uiso   1.00
H763   H     0.35922   0.55203   0.80282   0.00000  Uiso   1.00
H764   H     0.60855   0.55222   0.80244   0.00000  Uiso   1.00
H765   H     0.58550   0.57984   0.91860   0.00000  Uiso   1.00
H766   H     0.61505   0.57265   0.99497   0.00000  Uiso   1.00
H767   H     0.38622   0.47615   0.92212   0.00000  Uiso   1.00
H768   H     0.41990   0.48824   0.56707   0.00000  Uiso   1.00
H769   H     0.36264   0.47026   0.52184   0.00000  Uiso   1.00
H770   H     0.52859   0.56140   0.87438   0.00000  Uiso   1.00
H771   H     0.56169   0.62895   0.77688   0.00000  Uiso   1.00
N772   N     0.38093   0.50001   0.75002   0.00000  Uiso   1.00
N773   N     0.61906   0.49998   0.75000   0.00000  Uiso   1.00
O774   O     0.46179   0.56108   0.75001   0.00000  Uiso   1.00
O775   O     0.53823   0.56107   0.75000   0.00000  Uiso   1.00
O776   O     0.44280   0.50000   0.82681   0.00000  Uiso   1.00
O777   O     0.51924   0.49999   0.82681   0.00000  Uiso   1.00
O778   O     0.46177   0.43893   0.75000   0.00000  Uiso   1.00
O779   O     0.53821   0.43892   0.74999   0.00000  Uiso   1.00
O780   O     0.48076   0.50001   0.67319   0.00000  Uiso   1.00
O781   O     0.55720   0.50000   0.67319   0.00000  Uiso   1.00
Zn782  Zn    0.44896   0.50001   0.75000   0.00000  Uiso   1.00
Zn783  Zn    0.55104   0.49999   0.75000   0.00000  Uiso   1.00
I784   I     0.48527   0.42971   0.58233   0.00000  Uiso   1.00
C785   C     0.83332   0.58003   0.75002   0.00000  Uiso   1.00
C786   C     0.81067   0.50700   0.99263   0.00000  Uiso   1.00
C787   C     0.81930   0.51954   0.93861   0.00000  Uiso   1.00
C788   C     0.84758   0.51265   0.51469   0.00000  Uiso   1.00
C789   C     0.88600   0.54057   0.98879   0.00000  Uiso   1.00
C790   C     0.89006   0.55819   0.93867   0.00000  Uiso   1.00
C791   C     0.85773   0.54704   0.91318   0.00000  Uiso   1.00
C792   C     0.84825   0.49113   0.56112   0.00000  Uiso   1.00
C793   C     0.91365   0.53508   0.56522   0.00000  Uiso   1.00
C794   C     0.78883   0.50440   0.91168   0.00000  Uiso   1.00
C795   C     0.86822   0.64529   0.76478   0.00000  Uiso   1.00
C796   C     0.80650   0.50180   0.85230   0.00000  Uiso   1.00
C797   C     0.86830   0.35462   0.76463   0.00000  Uiso   1.00
C798   C     0.83345   0.37583   0.74975   0.00000  Uiso   1.00
C799   C     0.79860   0.35471   0.73487   0.00000  Uiso   1.00
C800   C     0.79852   0.64537   0.73501   0.00000  Uiso   1.00
C801   C     0.83333   0.62417   0.74997   0.00000  Uiso   1.00
C802   C     0.98504   0.47110   0.72064   0.00000  Uiso   1.00
C803   C     0.69964   0.47111   0.72066   0.00000  Uiso   1.00
C804   C     0.68164   0.52891   0.77933   0.00000  Uiso   1.00
C805   C     0.96708   0.52895   0.77923   0.00000  Uiso   1.00
C806   C     0.83337   0.41997   0.74989   0.00000  Uiso   1.00
C807   C     0.86017   0.49999   0.64777   0.00000  Uiso   1.00
C808   C     0.91953   0.55076   0.51374   0.00000  Uiso   1.00
C809   C     0.87701   0.50622   0.58939   0.00000  Uiso   1.00
C810   C     0.74405   0.48694   0.94195   0.00000  Uiso   1.00
C811   C     0.73110   0.48247   0.99813   0.00000  Uiso   1.00
C812   C     0.76442   0.49177   0.52335   0.00000  Uiso   1.00
H813   H     0.93627   0.54670   0.58698   0.00000  Uiso   1.00
H814   H     0.89517   0.37090   0.77660   0.00000  Uiso   1.00
H815   H     0.77179   0.37105   0.72279   0.00000  Uiso   1.00
H816   H     0.77166   0.62909   0.72304   0.00000  Uiso   1.00
H817   H     0.97413   0.44801   0.69711   0.00000  Uiso   1.00
H818   H     0.72495   0.44798   0.69721   0.00000  Uiso   1.00
H819   H     0.69256   0.55203   0.80282   0.00000  Uiso   1.00
H820   H     0.94189   0.55222   0.80244   0.00000  Uiso   1.00
H821   H     0.91883   0.57984   0.91860   0.00000  Uiso   1.00
H822   H     0.94839   0.57265   0.99497   0.00000  Uiso   1.00
H823   H     0.71955   0.47615   0.92212   0.00000  Uiso   1.00
H824   H     0.75324   0.48824   0.56707   0.00000  Uiso   1.00
H825   H     0.69597   0.47026   0.52184   0.00000  Uiso   1.00
H826   H     0.86192   0.56140   0.87438   0.00000  Uiso   1.00
H827   H     0.89502   0.62895   0.77688   0.00000  Uiso   1.00
N828   N     0.71426   0.50001   0.75002   0.00000  Uiso   1.00
N829   N     0.95239   0.49998   0.75000   0.00000  Uiso   1.00
O830   O     0.79512   0.56108   0.75001   0.00000  Uiso   1.00
O831   O     0.87157   0.56107   0.75000   0.00000  Uiso   1.00
O832   O     0.77613   0.50000   0.82681   0.00000  Uiso   1.00
O833   O     0.85258   0.49999   0.82681   0.00000  Uiso   1.00
O834   O     0.79510   0.43893   0.75000   0.00000  Uiso   1.00
O835   O     0.87154   0.43892   0.74999   0.00000  Uiso   1.00
O836   O     0.81409   0.50001   0.67319   0.00000  Uiso   1.00
O837   O     0.89053   0.50000   0.67319   0.00000  Uiso   1.00
Zn838  Zn    0.78229   0.50001   0.75000   0.00000  Uiso   1.00
Zn839  Zn    0.88438   0.49999   0.75000   0.00000  Uiso   1.00
I840   I     0.81860   0.42971   0.58233   0.00000  Uiso   1.00
C841   C     0.16666   0.91336   0.75002   0.00000  Uiso   1.00
C842   C     0.14401   0.84033   0.99263   0.00000  Uiso   1.00
C843   C     0.15263   0.85287   0.93861   0.00000  Uiso   1.00
C844   C     0.18091   0.84599   0.51469   0.00000  Uiso   1.00
C845   C     0.21934   0.87390   0.98879   0.00000  Uiso   1.00
C846   C     0.22339   0.89152   0.93867   0.00000  Uiso   1.00
C847   C     0.19106   0.88038   0.91318   0.00000  Uiso   1.00
C848   C     0.18158   0.82446   0.56112   0.00000  Uiso   1.00
C849   C     0.24698   0.86842   0.56522   0.00000  Uiso   1.00
C850   C     0.12216   0.83774   0.91168   0.00000  Uiso   1.00
C851   C     0.20155   0.97862   0.76478   0.00000  Uiso   1.00
C852   C     0.13983   0.83513   0.85230   0.00000  Uiso   1.00
C853   C     0.20163   0.68795   0.76463   0.00000  Uiso   1.00
C854   C     0.16678   0.70916   0.74975   0.00000  Uiso   1.00
C855   C     0.13193   0.68804   0.73487   0.00000  Uiso   1.00
C856   C     0.13185   0.97870   0.73501   0.00000  Uiso   1.00
C857   C     0.16666   0.95750   0.74997   0.00000  Uiso   1.00
C858   C     0.31837   0.80444   0.72064   0.00000  Uiso   1.00
C859   C     0.03297   0.80444   0.72066   0.00000  Uiso   1.00
C860   C     0.01497   0.86224   0.77933   0.00000  Uiso   1.00
C861   C     0.30041   0.86228   0.77923   0.00000  Uiso   1.00
C862   C     0.16671   0.75331   0.74989   0.00000  Uiso   1.00
C863   C     0.19350   0.83332   0.64777   0.00000  Uiso   1.00
C864   C     0.25287   0.88409   0.51374   0.00000  Uiso   1.00
C865   C     0.21035   0.83955   0.58939   0.00000  Uiso   1.00
C866   C     0.07738   0.82027   0.94195   0.00000  Uiso   1.00
C867   C     0.06443   0.81581   0.99813   0.00000  Uiso   1.00
C868   C     0.09775   0.82511   0.52335   0.00000  Uiso   1.00
H869   H     0.26961   0.88003   0.58698   0.00000  Uiso   1.00
H870   H     0.22850   0.70423   0.77660   0.00000  Uiso   1.00
H871   H     0.10512   0.70438   0.72279   0.00000  Uiso   1.00
H872   H     0.10499   0.96242   0.72304   0.00000  Uiso   1.00
H873   H     0.30747   0.78135   0.69711   0.00000  Uiso   1.00
H874   H     0.05829   0.78132   0.69721   0.00000  Uiso   1.00
H875   H     0.02589   0.88536   0.80282   0.00000  Uiso   1.00
H876   H     0.27522   0.88556   0.80244   0.00000  Uiso   1.00
H877   H     0.25216   0.91318   0.91860   0.00000  Uiso   1.00
H878   H     0.28172   0.90599   0.99497   0.00000  Uiso   1.00
H879   H     0.05288   0.80948   0.92212   0.00000  Uiso   1.00
H880   H     0.08657   0.82157   0.56707   0.00000  Uiso   1.00
H881   H     0.02930   0.80359   0.52184   0.00000  Uiso   1.00
H882   H     0.19525   0.89473   0.87438   0.00000  Uiso   1.00
H883   H     0.22836   0.96228   0.77688   0.00000  Uiso   1.00
N884   N     0.04760   0.83334   0.75002   0.00000  Uiso   1.00
N885   N     0.28573   0.83331   0.75000   0.00000  Uiso   1.00
O886   O     0.12846   0.89442   0.75001   0.00000  Uiso   1.00
O887   O     0.20490   0.89441   0.75000   0.00000  Uiso   1.00
O888   O     0.10947   0.83333   0.82681   0.00000  Uiso   1.00
O889   O     0.18591   0.83332   0.82681   0.00000  Uiso   1.00
O890   O     0.12843   0.77226   0.75000   0.00000  Uiso   1.00
O891   O     0.20488   0.77225   0.74999   0.00000  Uiso   1.00
O892   O     0.14742   0.83335   0.67319   0.00000  Uiso   1.00
O893   O     0.22387   0.83334   0.67319   0.00000  Uiso   1.00
Zn894  Zn    0.11562   0.83334   0.75000   0.00000  Uiso   1.00
Zn895  Zn    0.21771   0.83333   0.75000   0.00000  Uiso   1.00
I896   I     0.15194   0.76305   0.58233   0.00000  Uiso   1.00
C897   C     0.49999   0.91336   0.75002   0.00000  Uiso   1.00
C898   C     0.47734   0.84033   0.99263   0.00000  Uiso   1.00
C899   C     0.48596   0.85287   0.93861   0.00000  Uiso   1.00
C900   C     0.51425   0.84599   0.51469   0.00000  Uiso   1.00
C901   C     0.55267   0.87390   0.98879   0.00000  Uiso   1.00
C902   C     0.55672   0.89152   0.93867   0.00000  Uiso   1.00
C903   C     0.52439   0.88038   0.91318   0.00000  Uiso   1.00
C904   C     0.51491   0.82446   0.56112   0.00000  Uiso   1.00
C905   C     0.58032   0.86842   0.56522   0.00000  Uiso   1.00
C906   C     0.45549   0.83774   0.91168   0.00000  Uiso   1.00
C907   C     0.53489   0.97862   0.76478   0.00000  Uiso   1.00
C908   C     0.47316   0.83513   0.85230   0.00000  Uiso   1.00
C909   C     0.53497   0.68795   0.76463   0.00000  Uiso   1.00
C910   C     0.50012   0.70916   0.74975   0.00000  Uiso   1.00
C911   C     0.46526   0.68804   0.73487   0.00000  Uiso   1.00
C912   C     0.46519   0.97870   0.73501   0.00000  Uiso   1.00
C913   C     0.49999   0.95750   0.74997   0.00000  Uiso   1.00
C914   C     0.65171   0.80444   0.72064   0.00000  Uiso   1.00
C915   C     0.36630   0.80444   0.72066   0.00000  Uiso   1.00
C916   C     0.34830   0.86224   0.77933   0.00000  Uiso   1.00
C917   C     0.63374   0.86228   0.77923   0.00000  Uiso   1.00
C918   C     0.50004   0.75331   0.74989   0.00000  Uiso   1.00
C919   C     0.52683   0.83332   0.64777   0.00000  Uiso   1.00
C920   C     0.58620   0.88409   0.51374   0.00000  Uiso   1.00
C921   C     0.54368   0.83955   0.58939   0.00000  Uiso   1.00
C922   C     0.41072   0.82027   0.94195   0.00000  Uiso   1.00
C923   C     0.39777   0.81581   0.99813   0.00000  Uiso   1.00
C924   C     0.43109   0.82511   0.52335   0.00000  Uiso   1.00
H925   H     0.60294   0.88003   0.58698   0.00000  Uiso   1.00
H926   H     0.56184   0.70423   0.77660   0.00000  Uiso   1.00
H927   H     0.43846   0.70438   0.72279   0.00000  Uiso   1.00
H928   H     0.43832   0.96242   0.72304   0.00000  Uiso   1.00
H929   H     0.64080   0.78135   0.69711   0.00000  Uiso   1.00
H930   H     0.39162   0.78132   0.69721   0.00000  Uiso   1.00
H931   H     0.35922   0.88536   0.80282   0.00000  Uiso   1.00
H932   H     0.60855   0.88556   0.80244   0.00000  Uiso   1.00
H933   H     0.58550   0.91318   0.91860   0.00000  Uiso   1.00
H934   H     0.61505   0.90599   0.99497   0.00000  Uiso   1.00
H935   H     0.38622   0.80948   0.92212   0.00000  Uiso   1.00
H936   H     0.41990   0.82157   0.56707   0.00000  Uiso   1.00
H937   H     0.36264   0.80359   0.52184   0.00000  Uiso   1.00
H938   H     0.52859   0.89473   0.87438   0.00000  Uiso   1.00
H939   H     0.56169   0.96228   0.77688   0.00000  Uiso   1.00
N940   N     0.38093   0.83334   0.75002   0.00000  Uiso   1.00
N941   N     0.61906   0.83331   0.75000   0.00000  Uiso   1.00
O942   O     0.46179   0.89442   0.75001   0.00000  Uiso   1.00
O943   O     0.53823   0.89441   0.75000   0.00000  Uiso   1.00
O944   O     0.44280   0.83333   0.82681   0.00000  Uiso   1.00
O945   O     0.51924   0.83332   0.82681   0.00000  Uiso   1.00
O946   O     0.46177   0.77226   0.75000   0.00000  Uiso   1.00
O947   O     0.53821   0.77225   0.74999   0.00000  Uiso   1.00
O948   O     0.48076   0.83335   0.67319   0.00000  Uiso   1.00
O949   O     0.55720   0.83334   0.67319   0.00000  Uiso   1.00
Zn950  Zn    0.44896   0.83334   0.75000   0.00000  Uiso   1.00
Zn951  Zn    0.55104   0.83333   0.75000   0.00000  Uiso   1.00
I952   I     0.48527   0.76305   0.58233   0.00000  Uiso   1.00
C953   C     0.83332   0.91336   0.75002   0.00000  Uiso   1.00
C954   C     0.81067   0.84033   0.99263   0.00000  Uiso   1.00
C955   C     0.81930   0.85287   0.93861   0.00000  Uiso   1.00
C956   C     0.84758   0.84599   0.51469   0.00000  Uiso   1.00
C957   C     0.88600   0.87390   0.98879   0.00000  Uiso   1.00
C958   C     0.89006   0.89152   0.93867   0.00000  Uiso   1.00
C959   C     0.85773   0.88038   0.91318   0.00000  Uiso   1.00
C960   C     0.84825   0.82446   0.56112   0.00000  Uiso   1.00
C961   C     0.91365   0.86842   0.56522   0.00000  Uiso   1.00
C962   C     0.78883   0.83774   0.91168   0.00000  Uiso   1.00
C963   C     0.86822   0.97862   0.76478   0.00000  Uiso   1.00
C964   C     0.80650   0.83513   0.85230   0.00000  Uiso   1.00
C965   C     0.86830   0.68795   0.76463   0.00000  Uiso   1.00
C966   C     0.83345   0.70916   0.74975   0.00000  Uiso   1.00
C967   C     0.79860   0.68804   0.73487   0.00000  Uiso   1.00
C968   C     0.79852   0.97870   0.73501   0.00000  Uiso   1.00
C969   C     0.83333   0.95750   0.74997   0.00000  Uiso   1.00
C970   C     0.98504   0.80444   0.72064   0.00000  Uiso   1.00
C971   C     0.69964   0.80444   0.72066   0.00000  Uiso   1.00
C972   C     0.68164   0.86224   0.77933   0.00000  Uiso   1.00
C973   C     0.96708   0.86228   0.77923   0.00000  Uiso   1.00
C974   C     0.83337   0.75331   0.74989   0.00000  Uiso   1.00
C975   C     0.86017   0.83332   0.64777   0.00000  Uiso   1.00
C976   C     0.91953   0.88409   0.51374   0.00000  Uiso   1.00
C977   C     0.87701   0.83955   0.58939   0.00000  Uiso   1.00
C978   C     0.74405   0.82027   0.94195   0.00000  Uiso   1.00
C979   C     0.73110   0.81581   0.99813   0.00000  Uiso   1.00
C980   C     0.76442   0.82511   0.52335   0.00000  Uiso   1.00
H981   H     0.93627   0.88003   0.58698   0.00000  Uiso   1.00
H982   H     0.89517   0.70423   0.77660   0.00000  Uiso   1.00
H983   H     0.77179   0.70438   0.72279   0.00000  Uiso   1.00
H984   H     0.77166   0.96242   0.72304   0.00000  Uiso   1.00
H985   H     0.97413   0.78135   0.69711   0.00000  Uiso   1.00
H986   H     0.72495   0.78132   0.69721   0.00000  Uiso   1.00
H987   H     0.69256   0.88536   0.80282   0.00000  Uiso   1.00
H988   H     0.94189   0.88556   0.80244   0.00000  Uiso   1.00
H989   H     0.91883   0.91318   0.91860   0.00000  Uiso   1.00
H990   H     0.94839   0.90599   0.99497   0.00000  Uiso   1.00
H991   H     0.71955   0.80948   0.92212   0.00000  Uiso   1.00
H992   H     0.75324   0.82157   0.56707   0.00000  Uiso   1.00
H993   H     0.69597   0.80359   0.52184   0.00000  Uiso   1.00
H994   H     0.86192   0.89473   0.87438   0.00000  Uiso   1.00
H995   H     0.89502   0.96228   0.77688   0.00000  Uiso   1.00
N996   N     0.71426   0.83334   0.75002   0.00000  Uiso   1.00
N997   N     0.95239   0.83331   0.75000   0.00000  Uiso   1.00
O998   O     0.79512   0.89442   0.75001   0.00000  Uiso   1.00
O999   O     0.87157   0.89441   0.75000   0.00000  Uiso   1.00
O1000  O     0.77613   0.83333   0.82681   0.00000  Uiso   1.00
O1001  O     0.85258   0.83332   0.82681   0.00000  Uiso   1.00
O1002  O     0.79510   0.77226   0.75000   0.00000  Uiso   1.00
O1003  O     0.87154   0.77225   0.74999   0.00000  Uiso   1.00
O1004  O     0.81409   0.83335   0.67319   0.00000  Uiso   1.00
O1005  O     0.89053   0.83334   0.67319   0.00000  Uiso   1.00
Zn1006 Zn    0.78229   0.83334   0.75000   0.00000  Uiso   1.00
Zn1007 Zn    0.88438   0.83333   0.75000   0.00000  Uiso   1.00
I1008  I     0.81860   0.76305   0.58233   0.00000  Uiso   1.00
loop_
_geom_bond_atom_site_label_1
_geom_bond_atom_site_label_2
_geom_bond_distance
_geom_bond_site_symmetry_2
_ccdc_geom_bond_type
C1     C17     1.418   .     S
C1     O47     1.283   .     A
C1     O46     1.283   .     A
C2     C3      1.405   .     A
C2     C508    1.411   .     S
C2     C532    1.412   .     S
C3     C7      1.412   .     A
C3     C10     1.408   .     A
C4     C8      1.403   .     A
C4     C506    1.411   1_554 S
C4     C509    1.422   1_554 S
C5     C6      1.394   .     A
C5     C508    1.422   .     S
C5     C528    1.401   .     S
C6     C7      1.388   .     A
C6     H37     1.084   .     S
C7     H42     1.082   .     S
C8     C25     1.393   .     A
C8     I56     2.153   .     S
C9     C24     1.391   .     A
C9     H29     1.083   .     S
C9     C25     1.400   .     A
C10    C12     1.460   .     S
C10    C26     1.403   .     A
C11    H43     1.084   .     S
C11    C17     1.397   .     A
C11    C181    1.370   .     S
C12    O48     1.291   .     A
C12    O49     1.294   .     A
C13    C14     1.397   .     A
C13    H30     1.084   .     S
C13    C347    1.370   1_545 S
C14    C22     1.418   .     S
C14    C15     1.397   .     A
C15    H31     1.084   .     S
C15    C352    1.370   1_545 S
C16    H32     1.084   .     S
C16    C17     1.397   .     A
C16    C183    1.370   .     S
C18    H33     1.082   .     S
C18    N45     1.366   .     A
C18    C75     1.417   .     S
C19    N44     1.367   .     A
C19    H34     1.081   .     S
C19    C130    1.417   1_455 S
C20    N44     1.366   .     A
C20    H35     1.082   .     S
C20    C133    1.416   1_455 S
C21    H36     1.081   .     S
C21    N45     1.367   .     A
C21    C76     1.416   .     S
C22    O51     1.283   .     A
C22    O50     1.283   .     A
C23    O52     1.292   .     A
C23    O53     1.288   .     A
C23    C25     1.447   .     S
C24    C509    1.401   1_554 S
C24    H542    1.084   1_554 S
C26    C27     1.392   .     A
C26    H39     1.083   .     S
C27    C532    1.394   .     S
C27    H545    1.083   .     S
C28    H40     1.081   .     S
C28    C531    1.394   1_554 S
C28    C506    1.412   1_554 S
H38    C528    1.084   .     S
H41    C531    1.083   1_554 S
N44    Zn54    2.010   .     S
N45    Zn55    2.010   .     S
O46    Zn54    1.998   .     S
O47    Zn55    1.997   .     S
O48    Zn54    1.953   .     S
O49    Zn55    1.901   .     S
O50    Zn54    1.997   .     S
O51    Zn55    1.998   .     S
O52    Zn54    1.901   .     S
O53    Zn55    1.953   .     S
C57    C73     1.418   .     S
C57    O103    1.283   .     A
C57    O102    1.283   .     A
C58    C59     1.405   .     A
C58    C564    1.411   .     S
C58    C588    1.412   .     S
C59    C63     1.412   .     A
C59    C66     1.408   .     A
C60    C64     1.403   .     A
C60    C562    1.411   1_554 S
C60    C565    1.422   1_554 S
C61    C62     1.394   .     A
C61    C564    1.422   .     S
C61    C584    1.401   .     S
C62    C63     1.388   .     A
C62    H93     1.084   .     S
C63    H98     1.082   .     S
C64    C81     1.393   .     A
C64    I112    2.153   .     S
C65    C80     1.391   .     A
C65    H85     1.083   .     S
C65    C81     1.400   .     A
C66    C68     1.460   .     S
C66    C82     1.403   .     A
C67    H99     1.084   .     S
C67    C73     1.397   .     A
C67    C237    1.370   .     S
C68    O104    1.291   .     A
C68    O105    1.294   .     A
C69    C70     1.397   .     A
C69    H86     1.084   .     S
C69    C403    1.370   1_545 S
C70    C78     1.418   .     S
C70    C71     1.397   .     A
C71    H87     1.084   .     S
C71    C408    1.370   1_545 S
C72    H88     1.084   .     S
C72    C73     1.397   .     A
C72    C239    1.370   .     S
C74    H89     1.082   .     S
C74    N101    1.366   .     A
C74    C131    1.417   .     S
C75    N100    1.367   .     A
C75    H90     1.081   .     S
C76    N100    1.366   .     A
C76    H91     1.082   .     S
C77    H92     1.081   .     S
C77    N101    1.367   .     A
C77    C132    1.416   .     S
C78    O107    1.283   .     A
C78    O106    1.283   .     A
C79    O108    1.292   .     A
C79    O109    1.288   .     A
C79    C81     1.447   .     S
C80    C565    1.401   1_554 S
C80    H598    1.084   1_554 S
C82    C83     1.392   .     A
C82    H95     1.083   .     S
C83    C588    1.394   .     S
C83    H601    1.083   .     S
C84    H96     1.081   .     S
C84    C587    1.394   1_554 S
C84    C562    1.412   1_554 S
H94    C584    1.084   .     S
H97    C587    1.083   1_554 S
N100   Zn110   2.010   .     S
N101   Zn111   2.010   .     S
O102   Zn110   1.998   .     S
O103   Zn111   1.997   .     S
O104   Zn110   1.953   .     S
O105   Zn111   1.901   .     S
O106   Zn110   1.997   .     S
O107   Zn111   1.998   .     S
O108   Zn110   1.901   .     S
O109   Zn111   1.953   .     S
C113   C129    1.418   .     S
C113   O159    1.283   .     A
C113   O158    1.283   .     A
C114   C115    1.405   .     A
C114   C620    1.411   .     S
C114   C644    1.412   .     S
C115   C119    1.412   .     A
C115   C122    1.408   .     A
C116   C120    1.403   .     A
C116   C618    1.411   1_554 S
C116   C621    1.422   1_554 S
C117   C118    1.394   .     A
C117   C620    1.422   .     S
C117   C640    1.401   .     S
C118   C119    1.388   .     A
C118   H149    1.084   .     S
C119   H154    1.082   .     S
C120   C137    1.393   .     A
C120   I168    2.153   .     S
C121   C136    1.391   .     A
C121   H141    1.083   .     S
C121   C137    1.400   .     A
C122   C124    1.460   .     S
C122   C138    1.403   .     A
C123   H155    1.084   .     S
C123   C129    1.397   .     A
C123   C293    1.370   .     S
C124   O160    1.291   .     A
C124   O161    1.294   .     A
C125   C126    1.397   .     A
C125   H142    1.084   .     S
C125   C459    1.370   1_545 S
C126   C134    1.418   .     S
C126   C127    1.397   .     A
C127   H143    1.084   .     S
C127   C464    1.370   1_545 S
C128   H144    1.084   .     S
C128   C129    1.397   .     A
C128   C295    1.370   .     S
C130   H145    1.082   .     S
C130   N157    1.366   .     A
C130   C19     1.417   1_655 S
C131   N156    1.367   .     A
C131   H146    1.081   .     S
C132   N156    1.366   .     A
C132   H147    1.082   .     S
C133   H148    1.081   .     S
C133   N157    1.367   .     A
C133   C20     1.416   1_655 S
C134   O163    1.283   .     A
C134   O162    1.283   .     A
C135   O164    1.292   .     A
C135   O165    1.288   .     A
C135   C137    1.447   .     S
C136   C621    1.401   1_554 S
C136   H654    1.084   1_554 S
C138   C139    1.392   .     A
C138   H151    1.083   .     S
C139   C644    1.394   .     S
C139   H657    1.083   .     S
C140   H152    1.081   .     S
C140   C643    1.394   1_554 S
C140   C618    1.412   1_554 S
H150   C640    1.084   .     S
H153   C643    1.083   1_554 S
N156   Zn166   2.010   .     S
N157   Zn167   2.010   .     S
O158   Zn166   1.998   .     S
O159   Zn167   1.997   .     S
O160   Zn166   1.953   .     S
O161   Zn167   1.901   .     S
O162   Zn166   1.997   .     S
O163   Zn167   1.998   .     S
O164   Zn166   1.901   .     S
O165   Zn167   1.953   .     S
C169   C185    1.418   .     S
C169   O215    1.283   .     A
C169   O214    1.283   .     A
C170   C171    1.405   .     A
C170   C676    1.411   .     S
C170   C700    1.412   .     S
C171   C175    1.412   .     A
C171   C178    1.408   .     A
C172   C176    1.403   .     A
C172   C674    1.411   1_554 S
C172   C677    1.422   1_554 S
C173   C174    1.394   .     A
C173   C676    1.422   .     S
C173   C696    1.401   .     S
C174   C175    1.388   .     A
C174   H205    1.084   .     S
C175   H210    1.082   .     S
C176   C193    1.393   .     A
C176   I224    2.153   .     S
C177   C192    1.391   .     A
C177   H197    1.083   .     S
C177   C193    1.400   .     A
C178   C180    1.460   .     S
C178   C194    1.403   .     A
C179   H211    1.084   .     S
C179   C185    1.397   .     A
C179   C349    1.370   .     S
C180   O216    1.291   .     A
C180   O217    1.294   .     A
C181   C182    1.397   .     A
C181   H198    1.084   .     S
C182   C190    1.418   .     S
C182   C183    1.397   .     A
C183   H199    1.084   .     S
C184   H200    1.084   .     S
C184   C185    1.397   .     A
C184   C351    1.370   .     S
C186   H201    1.082   .     S
C186   N213    1.366   .     A
C186   C243    1.417   .     S
C187   N212    1.367   .     A
C187   H202    1.081   .     S
C187   C298    1.417   1_455 S
C188   N212    1.366   .     A
C188   H203    1.082   .     S
C188   C301    1.416   1_455 S
C189   H204    1.081   .     S
C189   N213    1.367   .     A
C189   C244    1.416   .     S
C190   O219    1.283   .     A
C190   O218    1.283   .     A
C191   O220    1.292   .     A
C191   O221    1.288   .     A
C191   C193    1.447   .     S
C192   C677    1.401   1_554 S
C192   H710    1.084   1_554 S
C194   C195    1.392   .     A
C194   H207    1.083   .     S
C195   C700    1.394   .     S
C195   H713    1.083   .     S
C196   H208    1.081   .     S
C196   C699    1.394   1_554 S
C196   C674    1.412   1_554 S
H206   C696    1.084   .     S
H209   C699    1.083   1_554 S
N212   Zn222   2.010   .     S
N213   Zn223   2.010   .     S
O214   Zn222   1.998   .     S
O215   Zn223   1.997   .     S
O216   Zn222   1.953   .     S
O217   Zn223   1.901   .     S
O218   Zn222   1.997   .     S
O219   Zn223   1.998   .     S
O220   Zn222   1.901   .     S
O221   Zn223   1.953   .     S
C225   C241    1.418   .     S
C225   O271    1.283   .     A
C225   O270    1.283   .     A
C226   C227    1.405   .     A
C226   C732    1.411   .     S
C226   C756    1.412   .     S
C227   C231    1.412   .     A
C227   C234    1.408   .     A
C228   C232    1.403   .     A
C228   C730    1.411   1_554 S
C228   C733    1.422   1_554 S
C229   C230    1.394   .     A
C229   C732    1.422   .     S
C229   C752    1.401   .     S
C230   C231    1.388   .     A
C230   H261    1.084   .     S
C231   H266    1.082   .     S
C232   C249    1.393   .     A
C232   I280    2.153   .     S
C233   C248    1.391   .     A
C233   H253    1.083   .     S
C233   C249    1.400   .     A
C234   C236    1.460   .     S
C234   C250    1.403   .     A
C235   H267    1.084   .     S
C235   C241    1.397   .     A
C235   C405    1.370   .     S
C236   O272    1.291   .     A
C236   O273    1.294   .     A
C237   C238    1.397   .     A
C237   H254    1.084   .     S
C238   C246    1.418   .     S
C238   C239    1.397   .     A
C239   H255    1.084   .     S
C240   H256    1.084   .     S
C240   C241    1.397   .     A
C240   C407    1.370   .     S
C242   H257    1.082   .     S
C242   N269    1.366   .     A
C242   C299    1.417   .     S
C243   N268    1.367   .     A
C243   H258    1.081   .     S
C244   N268    1.366   .     A
C244   H259    1.082   .     S
C245   H260    1.081   .     S
C245   N269    1.367   .     A
C245   C300    1.416   .     S
C246   O275    1.283   .     A
C246   O274    1.283   .     A
C247   O276    1.292   .     A
C247   O277    1.288   .     A
C247   C249    1.447   .     S
C248   C733    1.401   1_554 S
C248   H766    1.084   1_554 S
C250   C251    1.392   .     A
C250   H263    1.083   .     S
C251   C756    1.394   .     S
C251   H769    1.083   .     S
C252   H264    1.081   .     S
C252   C755    1.394   1_554 S
C252   C730    1.412   1_554 S
H262   C752    1.084   .     S
H265   C755    1.083   1_554 S
N268   Zn278   2.010   .     S
N269   Zn279   2.010   .     S
O270   Zn278   1.998   .     S
O271   Zn279   1.997   .     S
O272   Zn278   1.953   .     S
O273   Zn279   1.901   .     S
O274   Zn278   1.997   .     S
O275   Zn279   1.998   .     S
O276   Zn278   1.901   .     S
O277   Zn279   1.953   .     S
C281   C297    1.418   .     S
C281   O327    1.283   .     A
C281   O326    1.283   .     A
C282   C283    1.405   .     A
C282   C788    1.411   .     S
C282   C812    1.412   .     S
C283   C287    1.412   .     A
C283   C290    1.408   .     A
C284   C288    1.403   .     A
C284   C786    1.411   1_554 S
C284   C789    1.422   1_554 S
C285   C286    1.394   .     A
C285   C788    1.422   .     S
C285   C808    1.401   .     S
C286   C287    1.388   .     A
C286   H317    1.084   .     S
C287   H322    1.082   .     S
C288   C305    1.393   .     A
C288   I336    2.153   .     S
C289   C304    1.391   .     A
C289   H309    1.083   .     S
C289   C305    1.400   .     A
C290   C292    1.460   .     S
C290   C306    1.403   .     A
C291   H323    1.084   .     S
C291   C297    1.397   .     A
C291   C461    1.370   .     S
C292   O328    1.291   .     A
C292   O329    1.294   .     A
C293   C294    1.397   .     A
C293   H310    1.084   .     S
C294   C302    1.418   .     S
C294   C295    1.397   .     A
C295   H311    1.084   .     S
C296   H312    1.084   .     S
C296   C297    1.397   .     A
C296   C463    1.370   .     S
C298   H313    1.082   .     S
C298   N325    1.366   .     A
C298   C187    1.417   1_655 S
C299   N324    1.367   .     A
C299   H314    1.081   .     S
C300   N324    1.366   .     A
C300   H315    1.082   .     S
C301   H316    1.081   .     S
C301   N325    1.367   .     A
C301   C188    1.416   1_655 S
C302   O331    1.283   .     A
C302   O330    1.283   .     A
C303   O332    1.292   .     A
C303   O333    1.288   .     A
C303   C305    1.447   .     S
C304   C789    1.401   1_554 S
C304   H822    1.084   1_554 S
C306   C307    1.392   .     A
C306   H319    1.083   .     S
C307   C812    1.394   .     S
C307   H825    1.083   .     S
C308   H320    1.081   .     S
C308   C811    1.394   1_554 S
C308   C786    1.412   1_554 S
H318   C808    1.084   .     S
H321   C811    1.083   1_554 S
N324   Zn334   2.010   .     S
N325   Zn335   2.010   .     S
O326   Zn334   1.998   .     S
O327   Zn335   1.997   .     S
O328   Zn334   1.953   .     S
O329   Zn335   1.901   .     S
O330   Zn334   1.997   .     S
O331   Zn335   1.998   .     S
O332   Zn334   1.901   .     S
O333   Zn335   1.953   .     S
C337   C353    1.418   .     S
C337   O383    1.283   .     A
C337   O382    1.283   .     A
C338   C339    1.405   .     A
C338   C844    1.411   .     S
C338   C868    1.412   .     S
C339   C343    1.412   .     A
C339   C346    1.408   .     A
C340   C344    1.403   .     A
C340   C842    1.411   1_554 S
C340   C845    1.422   1_554 S
C341   C342    1.394   .     A
C341   C844    1.422   .     S
C341   C864    1.401   .     S
C342   C343    1.388   .     A
C342   H373    1.084   .     S
C343   H378    1.082   .     S
C344   C361    1.393   .     A
C344   I392    2.153   .     S
C345   C360    1.391   .     A
C345   H365    1.083   .     S
C345   C361    1.400   .     A
C346   C348    1.460   .     S
C346   C362    1.403   .     A
C347   H379    1.084   .     S
C347   C353    1.397   .     A
C347   C13     1.370   1_565 S
C348   O384    1.291   .     A
C348   O385    1.294   .     A
C349   C350    1.397   .     A
C349   H366    1.084   .     S
C350   C358    1.418   .     S
C350   C351    1.397   .     A
C351   H367    1.084   .     S
C352   H368    1.084   .     S
C352   C353    1.397   .     A
C352   C15     1.370   1_565 S
C354   H369    1.082   .     S
C354   N381    1.366   .     A
C354   C411    1.417   .     S
C355   N380    1.367   .     A
C355   H370    1.081   .     S
C355   C466    1.417   1_455 S
C356   N380    1.366   .     A
C356   H371    1.082   .     S
C356   C469    1.416   1_455 S
C357   H372    1.081   .     S
C357   N381    1.367   .     A
C357   C412    1.416   .     S
C358   O387    1.283   .     A
C358   O386    1.283   .     A
C359   O388    1.292   .     A
C359   O389    1.288   .     A
C359   C361    1.447   .     S
C360   C845    1.401   1_554 S
C360   H878    1.084   1_554 S
C362   C363    1.392   .     A
C362   H375    1.083   .     S
C363   C868    1.394   .     S
C363   H881    1.083   .     S
C364   H376    1.081   .     S
C364   C867    1.394   1_554 S
C364   C842    1.412   1_554 S
H374   C864    1.084   .     S
H377   C867    1.083   1_554 S
N380   Zn390   2.010   .     S
N381   Zn391   2.010   .     S
O382   Zn390   1.998   .     S
O383   Zn391   1.997   .     S
O384   Zn390   1.953   .     S
O385   Zn391   1.901   .     S
O386   Zn390   1.997   .     S
O387   Zn391   1.998   .     S
O388   Zn390   1.901   .     S
O389   Zn391   1.953   .     S
C393   C409    1.418   .     S
C393   O439    1.283   .     A
C393   O438    1.283   .     A
C394   C395    1.405   .     A
C394   C900    1.411   .     S
C394   C924    1.412   .     S
C395   C399    1.412   .     A
C395   C402    1.408   .     A
C396   C400    1.403   .     A
C396   C898    1.411   1_554 S
C396   C901    1.422   1_554 S
C397   C398    1.394   .     A
C397   C900    1.422   .     S
C397   C920    1.401   .     S
C398   C399    1.388   .     A
C398   H429    1.084   .     S
C399   H434    1.082   .     S
C400   C417    1.393   .     A
C400   I448    2.153   .     S
C401   C416    1.391   .     A
C401   H421    1.083   .     S
C401   C417    1.400   .     A
C402   C404    1.460   .     S
C402   C418    1.403   .     A
C403   H435    1.084   .     S
C403   C409    1.397   .     A
C403   C69     1.370   1_565 S
C404   O440    1.291   .     A
C404   O441    1.294   .     A
C405   C406    1.397   .     A
C405   H422    1.084   .     S
C406   C414    1.418   .     S
C406   C407    1.397   .     A
C407   H423    1.084   .     S
C408   H424    1.084   .     S
C408   C409    1.397   .     A
C408   C71     1.370   1_565 S
C410   H425    1.082   .     S
C410   N437    1.366   .     A
C410   C467    1.417   .     S
C411   N436    1.367   .     A
C411   H426    1.081   .     S
C412   N436    1.366   .     A
C412   H427    1.082   .     S
C413   H428    1.081   .     S
C413   N437    1.367   .     A
C413   C468    1.416   .     S
C414   O443    1.283   .     A
C414   O442    1.283   .     A
C415   O444    1.292   .     A
C415   O445    1.288   .     A
C415   C417    1.447   .     S
C416   C901    1.401   1_554 S
C416   H934    1.084   1_554 S
C418   C419    1.392   .     A
C418   H431    1.083   .     S
C419   C924    1.394   .     S
C419   H937    1.083   .     S
C420   H432    1.081   .     S
C420   C923    1.394   1_554 S
C420   C898    1.412   1_554 S
H430   C920    1.084   .     S
H433   C923    1.083   1_554 S
N436   Zn446   2.010   .     S
N437   Zn447   2.010   .     S
O438   Zn446   1.998   .     S
O439   Zn447   1.997   .     S
O440   Zn446   1.953   .     S
O441   Zn447   1.901   .     S
O442   Zn446   1.997   .     S
O443   Zn447   1.998   .     S
O444   Zn446   1.901   .     S
O445   Zn447   1.953   .     S
C449   C465    1.418   .     S
C449   O495    1.283   .     A
C449   O494    1.283   .     A
C450   C451    1.405   .     A
C450   C956    1.411   .     S
C450   C980    1.412   .     S
C451   C455    1.412   .     A
C451   C458    1.408   .     A
C452   C456    1.403   .     A
C452   C954    1.411   1_554 S
C452   C957    1.422   1_554 S
C453   C454    1.394   .     A
C453   C956    1.422   .     S
C453   C976    1.401   .     S
C454   C455    1.388   .     A
C454   H485    1.084   .     S
C455   H490    1.082   .     S
C456   C473    1.393   .     A
C456   I504    2.153   .     S
C457   C472    1.391   .     A
C457   H477    1.083   .     S
C457   C473    1.400   .     A
C458   C460    1.460   .     S
C458   C474    1.403   .     A
C459   H491    1.084   .     S
C459   C465    1.397   .     A
C459   C125    1.370   1_565 S
C460   O496    1.291   .     A
C460   O497    1.294   .     A
C461   C462    1.397   .     A
C461   H478    1.084   .     S
C462   C470    1.418   .     S
C462   C463    1.397   .     A
C463   H479    1.084   .     S
C464   H480    1.084   .     S
C464   C465    1.397   .     A
C464   C127    1.370   1_565 S
C466   H481    1.082   .     S
C466   N493    1.366   .     A
C466   C355    1.417   1_655 S
C467   N492    1.367   .     A
C467   H482    1.081   .     S
C468   N492    1.366   .     A
C468   H483    1.082   .     S
C469   H484    1.081   .     S
C469   N493    1.367   .     A
C469   C356    1.416   1_655 S
C470   O499    1.283   .     A
C470   O498    1.283   .     A
C471   O500    1.292   .     A
C471   O501    1.288   .     A
C471   C473    1.447   .     S
C472   C957    1.401   1_554 S
C472   H990    1.084   1_554 S
C474   C475    1.392   .     A
C474   H487    1.083   .     S
C475   C980    1.394   .     S
C475   H993    1.083   .     S
C476   H488    1.081   .     S
C476   C979    1.394   1_554 S
C476   C954    1.412   1_554 S
H486   C976    1.084   .     S
H489   C979    1.083   1_554 S
N492   Zn502   2.010   .     S
N493   Zn503   2.010   .     S
O494   Zn502   1.998   .     S
O495   Zn503   1.997   .     S
O496   Zn502   1.953   .     S
O497   Zn503   1.901   .     S
O498   Zn502   1.997   .     S
O499   Zn503   1.998   .     S
O500   Zn502   1.901   .     S
O501   Zn503   1.953   .     S
C505   C521    1.418   .     S
C505   O551    1.283   .     A
C505   O550    1.283   .     A
C506   C507    1.405   .     A
C506   C4      1.411   1_556 S
C506   C28     1.412   1_556 S
C507   C511    1.412   .     A
C507   C514    1.408   .     A
C508   C512    1.403   .     A
C509   C510    1.394   .     A
C509   C4      1.422   1_556 S
C509   C24     1.401   1_556 S
C510   C511    1.388   .     A
C510   H541    1.084   .     S
C511   H546    1.082   .     S
C512   C529    1.393   .     A
C512   I560    2.153   .     S
C513   C528    1.391   .     A
C513   H533    1.083   .     S
C513   C529    1.400   .     A
C514   C516    1.460   .     S
C514   C530    1.403   .     A
C515   H547    1.084   .     S
C515   C521    1.397   .     A
C515   C685    1.370   .     S
C516   O552    1.291   .     A
C516   O553    1.294   .     A
C517   C518    1.397   .     A
C517   H534    1.084   .     S
C517   C851    1.370   1_545 S
C518   C526    1.418   .     S
C518   C519    1.397   .     A
C519   H535    1.084   .     S
C519   C856    1.370   1_545 S
C520   H536    1.084   .     S
C520   C521    1.397   .     A
C520   C687    1.370   .     S
C522   H537    1.082   .     S
C522   N549    1.366   .     A
C522   C579    1.417   .     S
C523   N548    1.367   .     A
C523   H538    1.081   .     S
C523   C634    1.417   1_455 S
C524   N548    1.366   .     A
C524   H539    1.082   .     S
C524   C637    1.416   1_455 S
C525   H540    1.081   .     S
C525   N549    1.367   .     A
C525   C580    1.416   .     S
C526   O555    1.283   .     A
C526   O554    1.283   .     A
C527   O556    1.292   .     A
C527   O557    1.288   .     A
C527   C529    1.447   .     S
C530   C531    1.392   .     A
C530   H543    1.083   .     S
C531   C28     1.394   1_556 S
C531   H41     1.083   1_556 S
C532   H544    1.081   .     S
H542   C24     1.084   1_556 S
N548   Zn558   2.010   .     S
N549   Zn559   2.010   .     S
O550   Zn558   1.998   .     S
O551   Zn559   1.997   .     S
O552   Zn558   1.953   .     S
O553   Zn559   1.901   .     S
O554   Zn558   1.997   .     S
O555   Zn559   1.998   .     S
O556   Zn558   1.901   .     S
O557   Zn559   1.953   .     S
C561   C577    1.418   .     S
C561   O607    1.283   .     A
C561   O606    1.283   .     A
C562   C563    1.405   .     A
C562   C60     1.411   1_556 S
C562   C84     1.412   1_556 S
C563   C567    1.412   .     A
C563   C570    1.408   .     A
C564   C568    1.403   .     A
C565   C566    1.394   .     A
C565   C60     1.422   1_556 S
C565   C80     1.401   1_556 S
C566   C567    1.388   .     A
C566   H597    1.084   .     S
C567   H602    1.082   .     S
C568   C585    1.393   .     A
C568   I616    2.153   .     S
C569   C584    1.391   .     A
C569   H589    1.083   .     S
C569   C585    1.400   .     A
C570   C572    1.460   .     S
C570   C586    1.403   .     A
C571   H603    1.084   .     S
C571   C577    1.397   .     A
C571   C741    1.370   .     S
C572   O608    1.291   .     A
C572   O609    1.294   .     A
C573   C574    1.397   .     A
C573   H590    1.084   .     S
C573   C907    1.370   1_545 S
C574   C582    1.418   .     S
C574   C575    1.397   .     A
C575   H591    1.084   .     S
C575   C912    1.370   1_545 S
C576   H592    1.084   .     S
C576   C577    1.397   .     A
C576   C743    1.370   .     S
C578   H593    1.082   .     S
C578   N605    1.366   .     A
C578   C635    1.417   .     S
C579   N604    1.367   .     A
C579   H594    1.081   .     S
C580   N604    1.366   .     A
C580   H595    1.082   .     S
C581   H596    1.081   .     S
C581   N605    1.367   .     A
C581   C636    1.416   .     S
C582   O611    1.283   .     A
C582   O610    1.283   .     A
C583   O612    1.292   .     A
C583   O613    1.288   .     A
C583   C585    1.447   .     S
C586   C587    1.392   .     A
C586   H599    1.083   .     S
C587   C84     1.394   1_556 S
C587   H97     1.083   1_556 S
C588   H600    1.081   .     S
H598   C80     1.084   1_556 S
N604   Zn614   2.010   .     S
N605   Zn615   2.010   .     S
O606   Zn614   1.998   .     S
O607   Zn615   1.997   .     S
O608   Zn614   1.953   .     S
O609   Zn615   1.901   .     S
O610   Zn614   1.997   .     S
O611   Zn615   1.998   .     S
O612   Zn614   1.901   .     S
O613   Zn615   1.953   .     S
C617   C633    1.418   .     S
C617   O663    1.283   .     A
C617   O662    1.283   .     A
C618   C619    1.405   .     A
C618   C116    1.411   1_556 S
C618   C140    1.412   1_556 S
C619   C623    1.412   .     A
C619   C626    1.408   .     A
C620   C624    1.403   .     A
C621   C622    1.394   .     A
C621   C116    1.422   1_556 S
C621   C136    1.401   1_556 S
C622   C623    1.388   .     A
C622   H653    1.084   .     S
C623   H658    1.082   .     S
C624   C641    1.393   .     A
C624   I672    2.153   .     S
C625   C640    1.391   .     A
C625   H645    1.083   .     S
C625   C641    1.400   .     A
C626   C628    1.460   .     S
C626   C642    1.403   .     A
C627   H659    1.084   .     S
C627   C633    1.397   .     A
C627   C797    1.370   .     S
C628   O664    1.291   .     A
C628   O665    1.294   .     A
C629   C630    1.397   .     A
C629   H646    1.084   .     S
C629   C963    1.370   1_545 S
C630   C638    1.418   .     S
C630   C631    1.397   .     A
C631   H647    1.084   .     S
C631   C968    1.370   1_545 S
C632   H648    1.084   .     S
C632   C633    1.397   .     A
C632   C799    1.370   .     S
C634   H649    1.082   .     S
C634   N661    1.366   .     A
C634   C523    1.417   1_655 S
C635   N660    1.367   .     A
C635   H650    1.081   .     S
C636   N660    1.366   .     A
C636   H651    1.082   .     S
C637   H652    1.081   .     S
C637   N661    1.367   .     A
C637   C524    1.416   1_655 S
C638   O667    1.283   .     A
C638   O666    1.283   .     A
C639   O668    1.292   .     A
C639   O669    1.288   .     A
C639   C641    1.447   .     S
C642   C643    1.392   .     A
C642   H655    1.083   .     S
C643   C140    1.394   1_556 S
C643   H153    1.083   1_556 S
C644   H656    1.081   .     S
H654   C136    1.084   1_556 S
N660   Zn670   2.010   .     S
N661   Zn671   2.010   .     S
O662   Zn670   1.998   .     S
O663   Zn671   1.997   .     S
O664   Zn670   1.953   .     S
O665   Zn671   1.901   .     S
O666   Zn670   1.997   .     S
O667   Zn671   1.998   .     S
O668   Zn670   1.901   .     S
O669   Zn671   1.953   .     S
C673   C689    1.418   .     S
C673   O719    1.283   .     A
C673   O718    1.283   .     A
C674   C675    1.405   .     A
C674   C172    1.411   1_556 S
C674   C196    1.412   1_556 S
C675   C679    1.412   .     A
C675   C682    1.408   .     A
C676   C680    1.403   .     A
C677   C678    1.394   .     A
C677   C172    1.422   1_556 S
C677   C192    1.401   1_556 S
C678   C679    1.388   .     A
C678   H709    1.084   .     S
C679   H714    1.082   .     S
C680   C697    1.393   .     A
C680   I728    2.153   .     S
C681   C696    1.391   .     A
C681   H701    1.083   .     S
C681   C697    1.400   .     A
C682   C684    1.460   .     S
C682   C698    1.403   .     A
C683   H715    1.084   .     S
C683   C689    1.397   .     A
C683   C853    1.370   .     S
C684   O720    1.291   .     A
C684   O721    1.294   .     A
C685   C686    1.397   .     A
C685   H702    1.084   .     S
C686   C694    1.418   .     S
C686   C687    1.397   .     A
C687   H703    1.084   .     S
C688   H704    1.084   .     S
C688   C689    1.397   .     A
C688   C855    1.370   .     S
C690   H705    1.082   .     S
C690   N717    1.366   .     A
C690   C747    1.417   .     S
C691   N716    1.367   .     A
C691   H706    1.081   .     S
C691   C802    1.417   1_455 S
C692   N716    1.366   .     A
C692   H707    1.082   .     S
C692   C805    1.416   1_455 S
C693   H708    1.081   .     S
C693   N717    1.367   .     A
C693   C748    1.416   .     S
C694   O723    1.283   .     A
C694   O722    1.283   .     A
C695   O724    1.292   .     A
C695   O725    1.288   .     A
C695   C697    1.447   .     S
C698   C699    1.392   .     A
C698   H711    1.083   .     S
C699   C196    1.394   1_556 S
C699   H209    1.083   1_556 S
C700   H712    1.081   .     S
H710   C192    1.084   1_556 S
N716   Zn726   2.010   .     S
N717   Zn727   2.010   .     S
O718   Zn726   1.998   .     S
O719   Zn727   1.997   .     S
O720   Zn726   1.953   .     S
O721   Zn727   1.901   .     S
O722   Zn726   1.997   .     S
O723   Zn727   1.998   .     S
O724   Zn726   1.901   .     S
O725   Zn727   1.953   .     S
C729   C745    1.418   .     S
C729   O775    1.283   .     A
C729   O774    1.283   .     A
C730   C731    1.405   .     A
C730   C228    1.411   1_556 S
C730   C252    1.412   1_556 S
C731   C735    1.412   .     A
C731   C738    1.408   .     A
C732   C736    1.403   .     A
C733   C734    1.394   .     A
C733   C228    1.422   1_556 S
C733   C248    1.401   1_556 S
C734   C735    1.388   .     A
C734   H765    1.084   .     S
C735   H770    1.082   .     S
C736   C753    1.393   .     A
C736   I784    2.153   .     S
C737   C752    1.391   .     A
C737   H757    1.083   .     S
C737   C753    1.400   .     A
C738   C740    1.460   .     S
C738   C754    1.403   .     A
C739   H771    1.084   .     S
C739   C745    1.397   .     A
C739   C909    1.370   .     S
C740   O776    1.291   .     A
C740   O777    1.294   .     A
C741   C742    1.397   .     A
C741   H758    1.084   .     S
C742   C750    1.418   .     S
C742   C743    1.397   .     A
C743   H759    1.084   .     S
C744   H760    1.084   .     S
C744   C745    1.397   .     A
C744   C911    1.370   .     S
C746   H761    1.082   .     S
C746   N773    1.366   .     A
C746   C803    1.417   .     S
C747   N772    1.367   .     A
C747   H762    1.081   .     S
C748   N772    1.366   .     A
C748   H763    1.082   .     S
C749   H764    1.081   .     S
C749   N773    1.367   .     A
C749   C804    1.416   .     S
C750   O779    1.283   .     A
C750   O778    1.283   .     A
C751   O780    1.292   .     A
C751   O781    1.288   .     A
C751   C753    1.447   .     S
C754   C755    1.392   .     A
C754   H767    1.083   .     S
C755   C252    1.394   1_556 S
C755   H265    1.083   1_556 S
C756   H768    1.081   .     S
H766   C248    1.084   1_556 S
N772   Zn782   2.010   .     S
N773   Zn783   2.010   .     S
O774   Zn782   1.998   .     S
O775   Zn783   1.997   .     S
O776   Zn782   1.953   .     S
O777   Zn783   1.901   .     S
O778   Zn782   1.997   .     S
O779   Zn783   1.998   .     S
O780   Zn782   1.901   .     S
O781   Zn783   1.953   .     S
C785   C801    1.418   .     S
C785   O831    1.283   .     A
C785   O830    1.283   .     A
C786   C787    1.405   .     A
C786   C284    1.411   1_556 S
C786   C308    1.412   1_556 S
C787   C791    1.412   .     A
C787   C794    1.408   .     A
C788   C792    1.403   .     A
C789   C790    1.394   .     A
C789   C284    1.422   1_556 S
C789   C304    1.401   1_556 S
C790   C791    1.388   .     A
C790   H821    1.084   .     S
C791   H826    1.082   .     S
C792   C809    1.393   .     A
C792   I840    2.153   .     S
C793   C808    1.391   .     A
C793   H813    1.083   .     S
C793   C809    1.400   .     A
C794   C796    1.460   .     S
C794   C810    1.403   .     A
C795   H827    1.084   .     S
C795   C801    1.397   .     A
C795   C965    1.370   .     S
C796   O832    1.291   .     A
C796   O833    1.294   .     A
C797   C798    1.397   .     A
C797   H814    1.084   .     S
C798   C806    1.418   .     S
C798   C799    1.397   .     A
C799   H815    1.084   .     S
C800   H816    1.084   .     S
C800   C801    1.397   .     A
C800   C967    1.370   .     S
C802   H817    1.082   .     S
C802   N829    1.366   .     A
C802   C691    1.417   1_655 S
C803   N828    1.367   .     A
C803   H818    1.081   .     S
C804   N828    1.366   .     A
C804   H819    1.082   .     S
C805   H820    1.081   .     S
C805   N829    1.367   .     A
C805   C692    1.416   1_655 S
C806   O835    1.283   .     A
C806   O834    1.283   .     A
C807   O836    1.292   .     A
C807   O837    1.288   .     A
C807   C809    1.447   .     S
C810   C811    1.392   .     A
C810   H823    1.083   .     S
C811   C308    1.394   1_556 S
C811   H321    1.083   1_556 S
C812   H824    1.081   .     S
H822   C304    1.084   1_556 S
N828   Zn838   2.010   .     S
N829   Zn839   2.010   .     S
O830   Zn838   1.998   .     S
O831   Zn839   1.997   .     S
O832   Zn838   1.953   .     S
O833   Zn839   1.901   .     S
O834   Zn838   1.997   .     S
O835   Zn839   1.998   .     S
O836   Zn838   1.901   .     S
O837   Zn839   1.953   .     S
C841   C857    1.418   .     S
C841   O887    1.283   .     A
C841   O886    1.283   .     A
C842   C843    1.405   .     A
C842   C340    1.411   1_556 S
C842   C364    1.412   1_556 S
C843   C847    1.412   .     A
C843   C850    1.408   .     A
C844   C848    1.403   .     A
C845   C846    1.394   .     A
C845   C340    1.422   1_556 S
C845   C360    1.401   1_556 S
C846   C847    1.388   .     A
C846   H877    1.084   .     S
C847   H882    1.082   .     S
C848   C865    1.393   .     A
C848   I896    2.153   .     S
C849   C864    1.391   .     A
C849   H869    1.083   .     S
C849   C865    1.400   .     A
C850   C852    1.460   .     S
C850   C866    1.403   .     A
C851   H883    1.084   .     S
C851   C857    1.397   .     A
C851   C517    1.370   1_565 S
C852   O888    1.291   .     A
C852   O889    1.294   .     A
C853   C854    1.397   .     A
C853   H870    1.084   .     S
C854   C862    1.418   .     S
C854   C855    1.397   .     A
C855   H871    1.084   .     S
C856   H872    1.084   .     S
C856   C857    1.397   .     A
C856   C519    1.370   1_565 S
C858   H873    1.082   .     S
C858   N885    1.366   .     A
C858   C915    1.417   .     S
C859   N884    1.367   .     A
C859   H874    1.081   .     S
C859   C970    1.417   1_455 S
C860   N884    1.366   .     A
C860   H875    1.082   .     S
C860   C973    1.416   1_455 S
C861   H876    1.081   .     S
C861   N885    1.367   .     A
C861   C916    1.416   .     S
C862   O891    1.283   .     A
C862   O890    1.283   .     A
C863   O892    1.292   .     A
C863   O893    1.288   .     A
C863   C865    1.447   .     S
C866   C867    1.392   .     A
C866   H879    1.083   .     S
C867   C364    1.394   1_556 S
C867   H377    1.083   1_556 S
C868   H880    1.081   .     S
H878   C360    1.084   1_556 S
N884   Zn894   2.010   .     S
N885   Zn895   2.010   .     S
O886   Zn894   1.998   .     S
O887   Zn895   1.997   .     S
O888   Zn894   1.953   .     S
O889   Zn895   1.901   .     S
O890   Zn894   1.997   .     S
O891   Zn895   1.998   .     S
O892   Zn894   1.901   .     S
O893   Zn895   1.953   .     S
C897   C913    1.418   .     S
C897   O943    1.283   .     A
C897   O942    1.283   .     A
C898   C899    1.405   .     A
C898   C396    1.411   1_556 S
C898   C420    1.412   1_556 S
C899   C903    1.412   .     A
C899   C906    1.408   .     A
C900   C904    1.403   .     A
C901   C902    1.394   .     A
C901   C396    1.422   1_556 S
C901   C416    1.401   1_556 S
C902   C903    1.388   .     A
C902   H933    1.084   .     S
C903   H938    1.082   .     S
C904   C921    1.393   .     A
C904   I952    2.153   .     S
C905   C920    1.391   .     A
C905   H925    1.083   .     S
C905   C921    1.400   .     A
C906   C908    1.460   .     S
C906   C922    1.403   .     A
C907   H939    1.084   .     S
C907   C913    1.397   .     A
C907   C573    1.370   1_565 S
C908   O944    1.291   .     A
C908   O945    1.294   .     A
C909   C910    1.397   .     A
C909   H926    1.084   .     S
C910   C918    1.418   .     S
C910   C911    1.397   .     A
C911   H927    1.084   .     S
C912   H928    1.084   .     S
C912   C913    1.397   .     A
C912   C575    1.370   1_565 S
C914   H929    1.082   .     S
C914   N941    1.366   .     A
C914   C971    1.417   .     S
C915   N940    1.367   .     A
C915   H930    1.081   .     S
C916   N940    1.366   .     A
C916   H931    1.082   .     S
C917   H932    1.081   .     S
C917   N941    1.367   .     A
C917   C972    1.416   .     S
C918   O947    1.283   .     A
C918   O946    1.283   .     A
C919   O948    1.292   .     A
C919   O949    1.288   .     A
C919   C921    1.447   .     S
C922   C923    1.392   .     A
C922   H935    1.083   .     S
C923   C420    1.394   1_556 S
C923   H433    1.083   1_556 S
C924   H936    1.081   .     S
H934   C416    1.084   1_556 S
N940   Zn950   2.010   .     S
N941   Zn951   2.010   .     S
O942   Zn950   1.998   .     S
O943   Zn951   1.997   .     S
O944   Zn950   1.953   .     S
O945   Zn951   1.901   .     S
O946   Zn950   1.997   .     S
O947   Zn951   1.998   .     S
O948   Zn950   1.901   .     S
O949   Zn951   1.953   .     S
C953   C969    1.418   .     S
C953   O999    1.283   .     A
C953   O998    1.283   .     A
C954   C955    1.405   .     A
C954   C452    1.411   1_556 S
C954   C476    1.412   1_556 S
C955   C959    1.412   .     A
C955   C962    1.408   .     A
C956   C960    1.403   .     A
C957   C958    1.394   .     A
C957   C452    1.422   1_556 S
C957   C472    1.401   1_556 S
C958   C959    1.388   .     A
C958   H989    1.084   .     S
C959   H994    1.082   .     S
C960   C977    1.393   .     A
C960   I1008   2.153   .     S
C961   C976    1.391   .     A
C961   H981    1.083   .     S
C961   C977    1.400   .     A
C962   C964    1.460   .     S
C962   C978    1.403   .     A
C963   H995    1.084   .     S
C963   C969    1.397   .     A
C963   C629    1.370   1_565 S
C964   O1000   1.291   .     A
C964   O1001   1.294   .     A
C965   C966    1.397   .     A
C965   H982    1.084   .     S
C966   C974    1.418   .     S
C966   C967    1.397   .     A
C967   H983    1.084   .     S
C968   H984    1.084   .     S
C968   C969    1.397   .     A
C968   C631    1.370   1_565 S
C970   H985    1.082   .     S
C970   N997    1.366   .     A
C970   C859    1.417   1_655 S
C971   N996    1.367   .     A
C971   H986    1.081   .     S
C972   N996    1.366   .     A
C972   H987    1.082   .     S
C973   H988    1.081   .     S
C973   N997    1.367   .     A
C973   C860    1.416   1_655 S
C974   O1003   1.283   .     A
C974   O1002   1.283   .     A
C975   O1004   1.292   .     A
C975   O1005   1.288   .     A
C975   C977    1.447   .     S
C978   C979    1.392   .     A
C978   H991    1.083   .     S
C979   C476    1.394   1_556 S
C979   H489    1.083   1_556 S
C980   H992    1.081   .     S
H990   C472    1.084   1_556 S
N996   Zn1006  2.010   .     S
N997   Zn1007  2.010   .     S
O998   Zn1006  1.998   .     S
O999   Zn1007  1.997   .     S
O1000  Zn1006  1.953   .     S
O1001  Zn1007  1.901   .     S
O1002  Zn1006  1.997   .     S
O1003  Zn1007  1.998   .     S
O1004  Zn1006  1.901   .     S
O1005  Zn1007  1.953   .     S
