data_str_m3_o2_o10_pcu_sym.234
_audit_creation_date              2020-01-03
_audit_creation_method            'Materials Studio'
_symmetry_space_group_name_H-M    'P1'
_symmetry_Int_Tables_number       1
_symmetry_cell_setting            triclinic
loop_
_symmetry_equiv_pos_as_xyz
  x,y,z
_cell_length_a                    25.7287
_cell_length_b                    29.9272
_cell_length_c                    28.5599
_cell_angle_alpha                 89.2345
_cell_angle_beta                  98.4402
_cell_angle_gamma                 91.6644
loop_
_atom_site_label
_atom_site_type_symbol
_atom_site_fract_x
_atom_site_fract_y
_atom_site_fract_z
_atom_site_U_iso_or_equiv
_atom_site_adp_type
_atom_site_occupancy
O1     O     0.16667   0.18453   0.28974   0.00000  Uiso   1.00
O2     O     0.16666   0.31546   0.21026   0.00000  Uiso   1.00
O3     O     0.16667   0.18453   0.21026   0.00000  Uiso   1.00
O4     O     0.16666   0.31547   0.28974   0.00000  Uiso   1.00
C5     C     0.16707   0.16421   0.25037   0.00000  Uiso   1.00
C6     C     0.16400   0.33598   0.24936   0.00000  Uiso   1.00
O7     O     0.09058   0.25000   0.28045   0.00000  Uiso   1.00
O8     O     0.24275   0.25000   0.21956   0.00000  Uiso   1.00
O9     O     0.09058   0.25000   0.20097   0.00000  Uiso   1.00
O10    O     0.24275   0.25000   0.29904   0.00000  Uiso   1.00
C11    C     0.06712   0.24926   0.23769   0.00000  Uiso   1.00
C12    C     0.26623   0.25049   0.26238   0.00000  Uiso   1.00
Zn13   Zn    0.16667   0.25000   0.30307   0.00000  Uiso   1.00
Zn14   Zn    0.16667   0.24999   0.19693   0.00000  Uiso   1.00
C15    C     0.01208   0.24705   0.23136   0.00000  Uiso   1.00
C16    C     0.32133   0.25156   0.26904   0.00000  Uiso   1.00
H17    H     0.32485   0.24106   0.19596   0.00000  Uiso   1.00
H18    H     0.00856   0.25667   0.30473   0.00000  Uiso   1.00
C19    C     0.11442   0.04887   0.25499   0.00000  Uiso   1.00
C20    C     0.17607   0.45395   0.21041   0.00000  Uiso   1.00
H21    H     0.07734   0.03231   0.25912   0.00000  Uiso   1.00
H22    H     0.19273   0.47215   0.18284   0.00000  Uiso   1.00
C23    C     0.11873   0.09488   0.25748   0.00000  Uiso   1.00
C24    C     0.17809   0.40804   0.21186   0.00000  Uiso   1.00
H25    H     0.08495   0.11372   0.26344   0.00000  Uiso   1.00
H26    H     0.19697   0.39166   0.18562   0.00000  Uiso   1.00
C27    C     0.16596   0.11657   0.25103   0.00000  Uiso   1.00
C28    C     0.15734   0.38382   0.24742   0.00000  Uiso   1.00
C29    C     0.20994   0.09266   0.24269   0.00000  Uiso   1.00
C30    C     0.13111   0.40588   0.28030   0.00000  Uiso   1.00
C31    C     0.20519   0.04640   0.24052   0.00000  Uiso   1.00
C32    C     0.13122   0.45237   0.27955   0.00000  Uiso   1.00
H33    H     0.23904   0.02728   0.23548   0.00000  Uiso   1.00
H34    H     0.11333   0.46990   0.30578   0.00000  Uiso   1.00
C35    C     0.15766   0.02460   0.24650   0.00000  Uiso   1.00
C36    C     0.15421   0.47625   0.24511   0.00000  Uiso   1.00
C37    C     0.12388   0.23026   0.04722   0.00000  Uiso   1.00
C38    C     0.18742   0.28566   0.45024   0.00000  Uiso   1.00
H39    H     0.09027   0.21510   0.02527   0.00000  Uiso   1.00
H40    H     0.20452   0.31418   0.47045   0.00000  Uiso   1.00
C41    C     0.12532   0.23011   0.09693   0.00000  Uiso   1.00
C42    C     0.18902   0.28507   0.40108   0.00000  Uiso   1.00
N43    N     0.16667   0.24999   0.12624   0.00000  Uiso   1.00
N44    N     0.16667   0.25001   0.37377   0.00000  Uiso   1.00
C45    C     0.20753   0.26942   0.10603   0.00000  Uiso   1.00
C46    C     0.14341   0.21493   0.39536   0.00000  Uiso   1.00
C47    C     0.20727   0.26869   0.05658   0.00000  Uiso   1.00
C48    C     0.14283   0.21427   0.44475   0.00000  Uiso   1.00
H49    H     0.24037   0.28348   0.04201   0.00000  Uiso   1.00
H50    H     0.12528   0.18564   0.46067   0.00000  Uiso   1.00
C51    C     0.16515   0.24956   0.02618   0.00000  Uiso   1.00
C52    C     0.16477   0.24990   0.47313   0.00000  Uiso   1.00
N53    N     0.25940   0.11448   0.23751   0.00000  Uiso   1.00
O54    O     0.27646   0.14872   0.26345   0.00000  Uiso   1.00
O55    O     0.29074   0.09663   0.21159   0.00000  Uiso   1.00
N56    N     0.10240   0.38197   0.31275   0.00000  Uiso   1.00
O57    O     0.07117   0.34850   0.29790   0.00000  Uiso   1.00
O58    O     0.09939   0.39864   0.35409   0.00000  Uiso   1.00
N59    N     0.08271   0.20845   0.11594   0.00000  Uiso   1.00
O60    O     0.09049   0.17097   0.13904   0.00000  Uiso   1.00
O61    O     0.03476   0.21895   0.09938   0.00000  Uiso   1.00
N62    N     0.21534   0.32149   0.38062   0.00000  Uiso   1.00
O63    O     0.25756   0.31420   0.36222   0.00000  Uiso   1.00
O64    O     0.20566   0.36230   0.39109   0.00000  Uiso   1.00
N65    N     0.25141   0.29130   0.13413   0.00000  Uiso   1.00
O66    O     0.24348   0.32369   0.16172   0.00000  Uiso   1.00
O67    O     0.29812   0.28801   0.12236   0.00000  Uiso   1.00
N68    N     0.11941   0.17802   0.36837   0.00000  Uiso   1.00
O69    O     0.07497   0.18320   0.34096   0.00000  Uiso   1.00
O70    O     0.13461   0.13773   0.37977   0.00000  Uiso   1.00
O71    O     0.50000   0.18453   0.28974   0.00000  Uiso   1.00
O72    O     0.50000   0.31546   0.21026   0.00000  Uiso   1.00
O73    O     0.50000   0.18453   0.21026   0.00000  Uiso   1.00
O74    O     0.50000   0.31547   0.28974   0.00000  Uiso   1.00
C75    C     0.50040   0.16421   0.25037   0.00000  Uiso   1.00
C76    C     0.49733   0.33598   0.24936   0.00000  Uiso   1.00
O77    O     0.42392   0.25000   0.28045   0.00000  Uiso   1.00
O78    O     0.57608   0.25000   0.21956   0.00000  Uiso   1.00
O79    O     0.42392   0.25000   0.20097   0.00000  Uiso   1.00
O80    O     0.57608   0.25000   0.29904   0.00000  Uiso   1.00
C81    C     0.40045   0.24926   0.23769   0.00000  Uiso   1.00
C82    C     0.59956   0.25049   0.26238   0.00000  Uiso   1.00
Zn83   Zn    0.50000   0.25000   0.30307   0.00000  Uiso   1.00
Zn84   Zn    0.50000   0.24999   0.19693   0.00000  Uiso   1.00
C85    C     0.34542   0.24705   0.23136   0.00000  Uiso   1.00
C86    C     0.65466   0.25156   0.26904   0.00000  Uiso   1.00
H87    H     0.65819   0.24106   0.19596   0.00000  Uiso   1.00
H88    H     0.34189   0.25667   0.30473   0.00000  Uiso   1.00
C89    C     0.44776   0.04887   0.25499   0.00000  Uiso   1.00
C90    C     0.50941   0.45395   0.21041   0.00000  Uiso   1.00
H91    H     0.41068   0.03231   0.25912   0.00000  Uiso   1.00
H92    H     0.52607   0.47215   0.18284   0.00000  Uiso   1.00
C93    C     0.45206   0.09488   0.25748   0.00000  Uiso   1.00
C94    C     0.51143   0.40804   0.21186   0.00000  Uiso   1.00
H95    H     0.41828   0.11372   0.26344   0.00000  Uiso   1.00
H96    H     0.53030   0.39166   0.18562   0.00000  Uiso   1.00
C97    C     0.49929   0.11657   0.25103   0.00000  Uiso   1.00
C98    C     0.49068   0.38382   0.24742   0.00000  Uiso   1.00
C99    C     0.54327   0.09266   0.24269   0.00000  Uiso   1.00
C100   C     0.46444   0.40588   0.28030   0.00000  Uiso   1.00
C101   C     0.53853   0.04640   0.24052   0.00000  Uiso   1.00
C102   C     0.46455   0.45237   0.27955   0.00000  Uiso   1.00
H103   H     0.57237   0.02728   0.23548   0.00000  Uiso   1.00
H104   H     0.44666   0.46990   0.30578   0.00000  Uiso   1.00
C105   C     0.49099   0.02460   0.24650   0.00000  Uiso   1.00
C106   C     0.48754   0.47625   0.24511   0.00000  Uiso   1.00
C107   C     0.45721   0.23026   0.04722   0.00000  Uiso   1.00
C108   C     0.52076   0.28566   0.45024   0.00000  Uiso   1.00
H109   H     0.42360   0.21510   0.02527   0.00000  Uiso   1.00
H110   H     0.53785   0.31418   0.47045   0.00000  Uiso   1.00
C111   C     0.45865   0.23011   0.09693   0.00000  Uiso   1.00
C112   C     0.52236   0.28507   0.40108   0.00000  Uiso   1.00
N113   N     0.50000   0.24999   0.12624   0.00000  Uiso   1.00
N114   N     0.50000   0.25001   0.37377   0.00000  Uiso   1.00
C115   C     0.54086   0.26942   0.10603   0.00000  Uiso   1.00
C116   C     0.47674   0.21493   0.39536   0.00000  Uiso   1.00
C117   C     0.54060   0.26869   0.05658   0.00000  Uiso   1.00
C118   C     0.47616   0.21427   0.44475   0.00000  Uiso   1.00
H119   H     0.57370   0.28348   0.04201   0.00000  Uiso   1.00
H120   H     0.45862   0.18564   0.46067   0.00000  Uiso   1.00
C121   C     0.49848   0.24956   0.02618   0.00000  Uiso   1.00
C122   C     0.49811   0.24990   0.47313   0.00000  Uiso   1.00
N123   N     0.59274   0.11448   0.23751   0.00000  Uiso   1.00
O124   O     0.60979   0.14872   0.26345   0.00000  Uiso   1.00
O125   O     0.62407   0.09663   0.21159   0.00000  Uiso   1.00
N126   N     0.43573   0.38197   0.31275   0.00000  Uiso   1.00
O127   O     0.40451   0.34850   0.29790   0.00000  Uiso   1.00
O128   O     0.43272   0.39864   0.35409   0.00000  Uiso   1.00
N129   N     0.41604   0.20845   0.11594   0.00000  Uiso   1.00
O130   O     0.42383   0.17097   0.13904   0.00000  Uiso   1.00
O131   O     0.36809   0.21895   0.09938   0.00000  Uiso   1.00
N132   N     0.54868   0.32149   0.38062   0.00000  Uiso   1.00
O133   O     0.59089   0.31420   0.36222   0.00000  Uiso   1.00
O134   O     0.53900   0.36230   0.39109   0.00000  Uiso   1.00
N135   N     0.58475   0.29130   0.13413   0.00000  Uiso   1.00
O136   O     0.57682   0.32369   0.16172   0.00000  Uiso   1.00
O137   O     0.63145   0.28801   0.12236   0.00000  Uiso   1.00
N138   N     0.45275   0.17802   0.36837   0.00000  Uiso   1.00
O139   O     0.40830   0.18320   0.34096   0.00000  Uiso   1.00
O140   O     0.46795   0.13773   0.37977   0.00000  Uiso   1.00
O141   O     0.83334   0.18453   0.28974   0.00000  Uiso   1.00
O142   O     0.83333   0.31546   0.21026   0.00000  Uiso   1.00
O143   O     0.83334   0.18453   0.21026   0.00000  Uiso   1.00
O144   O     0.83333   0.31547   0.28974   0.00000  Uiso   1.00
C145   C     0.83373   0.16421   0.25037   0.00000  Uiso   1.00
C146   C     0.83066   0.33598   0.24936   0.00000  Uiso   1.00
O147   O     0.75725   0.25000   0.28045   0.00000  Uiso   1.00
O148   O     0.90942   0.25000   0.21956   0.00000  Uiso   1.00
O149   O     0.75725   0.25000   0.20097   0.00000  Uiso   1.00
O150   O     0.90942   0.25000   0.29904   0.00000  Uiso   1.00
C151   C     0.73379   0.24926   0.23769   0.00000  Uiso   1.00
C152   C     0.93290   0.25049   0.26238   0.00000  Uiso   1.00
Zn153  Zn    0.83333   0.25000   0.30307   0.00000  Uiso   1.00
Zn154  Zn    0.83333   0.24999   0.19693   0.00000  Uiso   1.00
C155   C     0.67875   0.24705   0.23136   0.00000  Uiso   1.00
C156   C     0.98799   0.25156   0.26904   0.00000  Uiso   1.00
H157   H     0.99152   0.24106   0.19596   0.00000  Uiso   1.00
H158   H     0.67523   0.25667   0.30473   0.00000  Uiso   1.00
C159   C     0.78109   0.04887   0.25499   0.00000  Uiso   1.00
C160   C     0.84274   0.45395   0.21041   0.00000  Uiso   1.00
H161   H     0.74401   0.03231   0.25912   0.00000  Uiso   1.00
H162   H     0.85940   0.47215   0.18284   0.00000  Uiso   1.00
C163   C     0.78539   0.09488   0.25748   0.00000  Uiso   1.00
C164   C     0.84476   0.40804   0.21186   0.00000  Uiso   1.00
H165   H     0.75162   0.11372   0.26344   0.00000  Uiso   1.00
H166   H     0.86363   0.39166   0.18562   0.00000  Uiso   1.00
C167   C     0.83262   0.11657   0.25103   0.00000  Uiso   1.00
C168   C     0.82401   0.38382   0.24742   0.00000  Uiso   1.00
C169   C     0.87660   0.09266   0.24269   0.00000  Uiso   1.00
C170   C     0.79777   0.40588   0.28030   0.00000  Uiso   1.00
C171   C     0.87186   0.04640   0.24052   0.00000  Uiso   1.00
C172   C     0.79788   0.45237   0.27955   0.00000  Uiso   1.00
H173   H     0.90571   0.02728   0.23548   0.00000  Uiso   1.00
H174   H     0.77999   0.46990   0.30578   0.00000  Uiso   1.00
C175   C     0.82432   0.02460   0.24650   0.00000  Uiso   1.00
C176   C     0.82087   0.47625   0.24511   0.00000  Uiso   1.00
C177   C     0.79054   0.23026   0.04722   0.00000  Uiso   1.00
C178   C     0.85409   0.28566   0.45024   0.00000  Uiso   1.00
H179   H     0.75693   0.21510   0.02527   0.00000  Uiso   1.00
H180   H     0.87119   0.31418   0.47045   0.00000  Uiso   1.00
C181   C     0.79199   0.23011   0.09693   0.00000  Uiso   1.00
C182   C     0.85569   0.28507   0.40108   0.00000  Uiso   1.00
N183   N     0.83333   0.24999   0.12624   0.00000  Uiso   1.00
N184   N     0.83333   0.25001   0.37377   0.00000  Uiso   1.00
C185   C     0.87420   0.26942   0.10603   0.00000  Uiso   1.00
C186   C     0.81007   0.21493   0.39536   0.00000  Uiso   1.00
C187   C     0.87393   0.26869   0.05658   0.00000  Uiso   1.00
C188   C     0.80950   0.21427   0.44475   0.00000  Uiso   1.00
H189   H     0.90704   0.28348   0.04201   0.00000  Uiso   1.00
H190   H     0.79195   0.18564   0.46067   0.00000  Uiso   1.00
C191   C     0.83181   0.24956   0.02618   0.00000  Uiso   1.00
C192   C     0.83144   0.24990   0.47313   0.00000  Uiso   1.00
N193   N     0.92607   0.11448   0.23751   0.00000  Uiso   1.00
O194   O     0.94312   0.14872   0.26345   0.00000  Uiso   1.00
O195   O     0.95741   0.09663   0.21159   0.00000  Uiso   1.00
N196   N     0.76906   0.38197   0.31275   0.00000  Uiso   1.00
O197   O     0.73784   0.34850   0.29790   0.00000  Uiso   1.00
O198   O     0.76605   0.39864   0.35409   0.00000  Uiso   1.00
N199   N     0.74938   0.20845   0.11594   0.00000  Uiso   1.00
O200   O     0.75716   0.17097   0.13904   0.00000  Uiso   1.00
O201   O     0.70143   0.21895   0.09938   0.00000  Uiso   1.00
N202   N     0.88201   0.32149   0.38062   0.00000  Uiso   1.00
O203   O     0.92422   0.31420   0.36222   0.00000  Uiso   1.00
O204   O     0.87233   0.36230   0.39109   0.00000  Uiso   1.00
N205   N     0.91808   0.29130   0.13413   0.00000  Uiso   1.00
O206   O     0.91015   0.32369   0.16172   0.00000  Uiso   1.00
O207   O     0.96478   0.28801   0.12236   0.00000  Uiso   1.00
N208   N     0.78608   0.17802   0.36837   0.00000  Uiso   1.00
O209   O     0.74163   0.18320   0.34096   0.00000  Uiso   1.00
O210   O     0.80128   0.13773   0.37977   0.00000  Uiso   1.00
O211   O     0.16667   0.68453   0.28974   0.00000  Uiso   1.00
O212   O     0.16666   0.81546   0.21026   0.00000  Uiso   1.00
O213   O     0.16667   0.68453   0.21026   0.00000  Uiso   1.00
O214   O     0.16666   0.81547   0.28974   0.00000  Uiso   1.00
C215   C     0.16707   0.66421   0.25037   0.00000  Uiso   1.00
C216   C     0.16400   0.83598   0.24936   0.00000  Uiso   1.00
O217   O     0.09058   0.75000   0.28045   0.00000  Uiso   1.00
O218   O     0.24275   0.75000   0.21956   0.00000  Uiso   1.00
O219   O     0.09058   0.75000   0.20097   0.00000  Uiso   1.00
O220   O     0.24275   0.75000   0.29904   0.00000  Uiso   1.00
C221   C     0.06712   0.74926   0.23769   0.00000  Uiso   1.00
C222   C     0.26623   0.75049   0.26238   0.00000  Uiso   1.00
Zn223  Zn    0.16667   0.75000   0.30307   0.00000  Uiso   1.00
Zn224  Zn    0.16667   0.74999   0.19693   0.00000  Uiso   1.00
C225   C     0.01208   0.74705   0.23136   0.00000  Uiso   1.00
C226   C     0.32133   0.75156   0.26904   0.00000  Uiso   1.00
H227   H     0.32485   0.74106   0.19596   0.00000  Uiso   1.00
H228   H     0.00856   0.75667   0.30473   0.00000  Uiso   1.00
C229   C     0.11442   0.54887   0.25499   0.00000  Uiso   1.00
C230   C     0.17607   0.95395   0.21041   0.00000  Uiso   1.00
H231   H     0.07734   0.53231   0.25912   0.00000  Uiso   1.00
H232   H     0.19273   0.97215   0.18284   0.00000  Uiso   1.00
C233   C     0.11873   0.59488   0.25748   0.00000  Uiso   1.00
C234   C     0.17809   0.90804   0.21186   0.00000  Uiso   1.00
H235   H     0.08495   0.61372   0.26344   0.00000  Uiso   1.00
H236   H     0.19697   0.89166   0.18562   0.00000  Uiso   1.00
C237   C     0.16596   0.61657   0.25103   0.00000  Uiso   1.00
C238   C     0.15734   0.88382   0.24742   0.00000  Uiso   1.00
C239   C     0.20994   0.59266   0.24269   0.00000  Uiso   1.00
C240   C     0.13111   0.90588   0.28030   0.00000  Uiso   1.00
C241   C     0.20519   0.54640   0.24052   0.00000  Uiso   1.00
C242   C     0.13122   0.95237   0.27955   0.00000  Uiso   1.00
H243   H     0.23904   0.52728   0.23548   0.00000  Uiso   1.00
H244   H     0.11333   0.96990   0.30578   0.00000  Uiso   1.00
C245   C     0.15766   0.52460   0.24650   0.00000  Uiso   1.00
C246   C     0.15421   0.97625   0.24511   0.00000  Uiso   1.00
C247   C     0.12388   0.73026   0.04722   0.00000  Uiso   1.00
C248   C     0.18742   0.78566   0.45024   0.00000  Uiso   1.00
H249   H     0.09027   0.71510   0.02527   0.00000  Uiso   1.00
H250   H     0.20452   0.81418   0.47045   0.00000  Uiso   1.00
C251   C     0.12532   0.73011   0.09693   0.00000  Uiso   1.00
C252   C     0.18902   0.78507   0.40108   0.00000  Uiso   1.00
N253   N     0.16667   0.74999   0.12624   0.00000  Uiso   1.00
N254   N     0.16667   0.75001   0.37377   0.00000  Uiso   1.00
C255   C     0.20753   0.76942   0.10603   0.00000  Uiso   1.00
C256   C     0.14341   0.71493   0.39536   0.00000  Uiso   1.00
C257   C     0.20727   0.76869   0.05658   0.00000  Uiso   1.00
C258   C     0.14283   0.71427   0.44475   0.00000  Uiso   1.00
H259   H     0.24037   0.78348   0.04201   0.00000  Uiso   1.00
H260   H     0.12528   0.68564   0.46067   0.00000  Uiso   1.00
C261   C     0.16515   0.74956   0.02618   0.00000  Uiso   1.00
C262   C     0.16477   0.74990   0.47313   0.00000  Uiso   1.00
N263   N     0.25940   0.61448   0.23751   0.00000  Uiso   1.00
O264   O     0.27646   0.64872   0.26345   0.00000  Uiso   1.00
O265   O     0.29074   0.59663   0.21159   0.00000  Uiso   1.00
N266   N     0.10240   0.88197   0.31275   0.00000  Uiso   1.00
O267   O     0.07117   0.84850   0.29790   0.00000  Uiso   1.00
O268   O     0.09939   0.89864   0.35409   0.00000  Uiso   1.00
N269   N     0.08271   0.70845   0.11594   0.00000  Uiso   1.00
O270   O     0.09049   0.67097   0.13904   0.00000  Uiso   1.00
O271   O     0.03476   0.71895   0.09938   0.00000  Uiso   1.00
N272   N     0.21534   0.82149   0.38062   0.00000  Uiso   1.00
O273   O     0.25756   0.81420   0.36222   0.00000  Uiso   1.00
O274   O     0.20566   0.86230   0.39109   0.00000  Uiso   1.00
N275   N     0.25141   0.79130   0.13413   0.00000  Uiso   1.00
O276   O     0.24348   0.82369   0.16172   0.00000  Uiso   1.00
O277   O     0.29812   0.78801   0.12236   0.00000  Uiso   1.00
N278   N     0.11941   0.67802   0.36837   0.00000  Uiso   1.00
O279   O     0.07497   0.68320   0.34096   0.00000  Uiso   1.00
O280   O     0.13461   0.63773   0.37977   0.00000  Uiso   1.00
O281   O     0.50000   0.68453   0.28974   0.00000  Uiso   1.00
O282   O     0.50000   0.81546   0.21026   0.00000  Uiso   1.00
O283   O     0.50000   0.68453   0.21026   0.00000  Uiso   1.00
O284   O     0.50000   0.81547   0.28974   0.00000  Uiso   1.00
C285   C     0.50040   0.66421   0.25037   0.00000  Uiso   1.00
C286   C     0.49733   0.83598   0.24936   0.00000  Uiso   1.00
O287   O     0.42392   0.75000   0.28045   0.00000  Uiso   1.00
O288   O     0.57608   0.75000   0.21956   0.00000  Uiso   1.00
O289   O     0.42392   0.75000   0.20097   0.00000  Uiso   1.00
O290   O     0.57608   0.75000   0.29904   0.00000  Uiso   1.00
C291   C     0.40045   0.74926   0.23769   0.00000  Uiso   1.00
C292   C     0.59956   0.75049   0.26238   0.00000  Uiso   1.00
Zn293  Zn    0.50000   0.75000   0.30307   0.00000  Uiso   1.00
Zn294  Zn    0.50000   0.74999   0.19693   0.00000  Uiso   1.00
C295   C     0.34542   0.74705   0.23136   0.00000  Uiso   1.00
C296   C     0.65466   0.75156   0.26904   0.00000  Uiso   1.00
H297   H     0.65819   0.74106   0.19596   0.00000  Uiso   1.00
H298   H     0.34189   0.75667   0.30473   0.00000  Uiso   1.00
C299   C     0.44776   0.54887   0.25499   0.00000  Uiso   1.00
C300   C     0.50941   0.95395   0.21041   0.00000  Uiso   1.00
H301   H     0.41068   0.53231   0.25912   0.00000  Uiso   1.00
H302   H     0.52607   0.97215   0.18284   0.00000  Uiso   1.00
C303   C     0.45206   0.59488   0.25748   0.00000  Uiso   1.00
C304   C     0.51143   0.90804   0.21186   0.00000  Uiso   1.00
H305   H     0.41828   0.61372   0.26344   0.00000  Uiso   1.00
H306   H     0.53030   0.89166   0.18562   0.00000  Uiso   1.00
C307   C     0.49929   0.61657   0.25103   0.00000  Uiso   1.00
C308   C     0.49068   0.88382   0.24742   0.00000  Uiso   1.00
C309   C     0.54327   0.59266   0.24269   0.00000  Uiso   1.00
C310   C     0.46444   0.90588   0.28030   0.00000  Uiso   1.00
C311   C     0.53853   0.54640   0.24052   0.00000  Uiso   1.00
C312   C     0.46455   0.95237   0.27955   0.00000  Uiso   1.00
H313   H     0.57237   0.52728   0.23548   0.00000  Uiso   1.00
H314   H     0.44666   0.96990   0.30578   0.00000  Uiso   1.00
C315   C     0.49099   0.52460   0.24650   0.00000  Uiso   1.00
C316   C     0.48754   0.97625   0.24511   0.00000  Uiso   1.00
C317   C     0.45721   0.73026   0.04722   0.00000  Uiso   1.00
C318   C     0.52076   0.78566   0.45024   0.00000  Uiso   1.00
H319   H     0.42360   0.71510   0.02527   0.00000  Uiso   1.00
H320   H     0.53785   0.81418   0.47045   0.00000  Uiso   1.00
C321   C     0.45865   0.73011   0.09693   0.00000  Uiso   1.00
C322   C     0.52236   0.78507   0.40108   0.00000  Uiso   1.00
N323   N     0.50000   0.74999   0.12624   0.00000  Uiso   1.00
N324   N     0.50000   0.75001   0.37377   0.00000  Uiso   1.00
C325   C     0.54086   0.76942   0.10603   0.00000  Uiso   1.00
C326   C     0.47674   0.71493   0.39536   0.00000  Uiso   1.00
C327   C     0.54060   0.76869   0.05658   0.00000  Uiso   1.00
C328   C     0.47616   0.71427   0.44475   0.00000  Uiso   1.00
H329   H     0.57370   0.78348   0.04201   0.00000  Uiso   1.00
H330   H     0.45862   0.68564   0.46067   0.00000  Uiso   1.00
C331   C     0.49848   0.74956   0.02618   0.00000  Uiso   1.00
C332   C     0.49811   0.74990   0.47313   0.00000  Uiso   1.00
N333   N     0.59274   0.61448   0.23751   0.00000  Uiso   1.00
O334   O     0.60979   0.64872   0.26345   0.00000  Uiso   1.00
O335   O     0.62407   0.59663   0.21159   0.00000  Uiso   1.00
N336   N     0.43573   0.88197   0.31275   0.00000  Uiso   1.00
O337   O     0.40451   0.84850   0.29790   0.00000  Uiso   1.00
O338   O     0.43272   0.89864   0.35409   0.00000  Uiso   1.00
N339   N     0.41604   0.70845   0.11594   0.00000  Uiso   1.00
O340   O     0.42383   0.67097   0.13904   0.00000  Uiso   1.00
O341   O     0.36809   0.71895   0.09938   0.00000  Uiso   1.00
N342   N     0.54868   0.82149   0.38062   0.00000  Uiso   1.00
O343   O     0.59089   0.81420   0.36222   0.00000  Uiso   1.00
O344   O     0.53900   0.86230   0.39109   0.00000  Uiso   1.00
N345   N     0.58475   0.79130   0.13413   0.00000  Uiso   1.00
O346   O     0.57682   0.82369   0.16172   0.00000  Uiso   1.00
O347   O     0.63145   0.78801   0.12236   0.00000  Uiso   1.00
N348   N     0.45275   0.67802   0.36837   0.00000  Uiso   1.00
O349   O     0.40830   0.68320   0.34096   0.00000  Uiso   1.00
O350   O     0.46795   0.63773   0.37977   0.00000  Uiso   1.00
O351   O     0.83334   0.68453   0.28974   0.00000  Uiso   1.00
O352   O     0.83333   0.81546   0.21026   0.00000  Uiso   1.00
O353   O     0.83334   0.68453   0.21026   0.00000  Uiso   1.00
O354   O     0.83333   0.81547   0.28974   0.00000  Uiso   1.00
C355   C     0.83373   0.66421   0.25037   0.00000  Uiso   1.00
C356   C     0.83066   0.83598   0.24936   0.00000  Uiso   1.00
O357   O     0.75725   0.75000   0.28045   0.00000  Uiso   1.00
O358   O     0.90942   0.75000   0.21956   0.00000  Uiso   1.00
O359   O     0.75725   0.75000   0.20097   0.00000  Uiso   1.00
O360   O     0.90942   0.75000   0.29904   0.00000  Uiso   1.00
C361   C     0.73379   0.74926   0.23769   0.00000  Uiso   1.00
C362   C     0.93290   0.75049   0.26238   0.00000  Uiso   1.00
Zn363  Zn    0.83333   0.75000   0.30307   0.00000  Uiso   1.00
Zn364  Zn    0.83333   0.74999   0.19693   0.00000  Uiso   1.00
C365   C     0.67875   0.74705   0.23136   0.00000  Uiso   1.00
C366   C     0.98799   0.75156   0.26904   0.00000  Uiso   1.00
H367   H     0.99152   0.74106   0.19596   0.00000  Uiso   1.00
H368   H     0.67523   0.75667   0.30473   0.00000  Uiso   1.00
C369   C     0.78109   0.54887   0.25499   0.00000  Uiso   1.00
C370   C     0.84274   0.95395   0.21041   0.00000  Uiso   1.00
H371   H     0.74401   0.53231   0.25912   0.00000  Uiso   1.00
H372   H     0.85940   0.97215   0.18284   0.00000  Uiso   1.00
C373   C     0.78539   0.59488   0.25748   0.00000  Uiso   1.00
C374   C     0.84476   0.90804   0.21186   0.00000  Uiso   1.00
H375   H     0.75162   0.61372   0.26344   0.00000  Uiso   1.00
H376   H     0.86363   0.89166   0.18562   0.00000  Uiso   1.00
C377   C     0.83262   0.61657   0.25103   0.00000  Uiso   1.00
C378   C     0.82401   0.88382   0.24742   0.00000  Uiso   1.00
C379   C     0.87660   0.59266   0.24269   0.00000  Uiso   1.00
C380   C     0.79777   0.90588   0.28030   0.00000  Uiso   1.00
C381   C     0.87186   0.54640   0.24052   0.00000  Uiso   1.00
C382   C     0.79788   0.95237   0.27955   0.00000  Uiso   1.00
H383   H     0.90571   0.52728   0.23548   0.00000  Uiso   1.00
H384   H     0.77999   0.96990   0.30578   0.00000  Uiso   1.00
C385   C     0.82432   0.52460   0.24650   0.00000  Uiso   1.00
C386   C     0.82087   0.97625   0.24511   0.00000  Uiso   1.00
C387   C     0.79054   0.73026   0.04722   0.00000  Uiso   1.00
C388   C     0.85409   0.78566   0.45024   0.00000  Uiso   1.00
H389   H     0.75693   0.71510   0.02527   0.00000  Uiso   1.00
H390   H     0.87119   0.81418   0.47045   0.00000  Uiso   1.00
C391   C     0.79199   0.73011   0.09693   0.00000  Uiso   1.00
C392   C     0.85569   0.78507   0.40108   0.00000  Uiso   1.00
N393   N     0.83333   0.74999   0.12624   0.00000  Uiso   1.00
N394   N     0.83333   0.75001   0.37377   0.00000  Uiso   1.00
C395   C     0.87420   0.76942   0.10603   0.00000  Uiso   1.00
C396   C     0.81007   0.71493   0.39536   0.00000  Uiso   1.00
C397   C     0.87393   0.76869   0.05658   0.00000  Uiso   1.00
C398   C     0.80950   0.71427   0.44475   0.00000  Uiso   1.00
H399   H     0.90704   0.78348   0.04201   0.00000  Uiso   1.00
H400   H     0.79195   0.68564   0.46067   0.00000  Uiso   1.00
C401   C     0.83181   0.74956   0.02618   0.00000  Uiso   1.00
C402   C     0.83144   0.74990   0.47313   0.00000  Uiso   1.00
N403   N     0.92607   0.61448   0.23751   0.00000  Uiso   1.00
O404   O     0.94312   0.64872   0.26345   0.00000  Uiso   1.00
O405   O     0.95741   0.59663   0.21159   0.00000  Uiso   1.00
N406   N     0.76906   0.88197   0.31275   0.00000  Uiso   1.00
O407   O     0.73784   0.84850   0.29790   0.00000  Uiso   1.00
O408   O     0.76605   0.89864   0.35409   0.00000  Uiso   1.00
N409   N     0.74938   0.70845   0.11594   0.00000  Uiso   1.00
O410   O     0.75716   0.67097   0.13904   0.00000  Uiso   1.00
O411   O     0.70143   0.71895   0.09938   0.00000  Uiso   1.00
N412   N     0.88201   0.82149   0.38062   0.00000  Uiso   1.00
O413   O     0.92422   0.81420   0.36222   0.00000  Uiso   1.00
O414   O     0.87233   0.86230   0.39109   0.00000  Uiso   1.00
N415   N     0.91808   0.79130   0.13413   0.00000  Uiso   1.00
O416   O     0.91015   0.82369   0.16172   0.00000  Uiso   1.00
O417   O     0.96478   0.78801   0.12236   0.00000  Uiso   1.00
N418   N     0.78608   0.67802   0.36837   0.00000  Uiso   1.00
O419   O     0.74163   0.68320   0.34096   0.00000  Uiso   1.00
O420   O     0.80128   0.63773   0.37977   0.00000  Uiso   1.00
O421   O     0.16667   0.18453   0.78974   0.00000  Uiso   1.00
O422   O     0.16666   0.31546   0.71026   0.00000  Uiso   1.00
O423   O     0.16667   0.18453   0.71026   0.00000  Uiso   1.00
O424   O     0.16666   0.31547   0.78974   0.00000  Uiso   1.00
C425   C     0.16707   0.16421   0.75037   0.00000  Uiso   1.00
C426   C     0.16400   0.33598   0.74936   0.00000  Uiso   1.00
O427   O     0.09058   0.25000   0.78045   0.00000  Uiso   1.00
O428   O     0.24275   0.25000   0.71956   0.00000  Uiso   1.00
O429   O     0.09058   0.25000   0.70097   0.00000  Uiso   1.00
O430   O     0.24275   0.25000   0.79904   0.00000  Uiso   1.00
C431   C     0.06712   0.24926   0.73769   0.00000  Uiso   1.00
C432   C     0.26623   0.25049   0.76238   0.00000  Uiso   1.00
Zn433  Zn    0.16667   0.25000   0.80307   0.00000  Uiso   1.00
Zn434  Zn    0.16667   0.24999   0.69693   0.00000  Uiso   1.00
C435   C     0.01208   0.24705   0.73136   0.00000  Uiso   1.00
C436   C     0.32133   0.25156   0.76904   0.00000  Uiso   1.00
H437   H     0.32485   0.24106   0.69596   0.00000  Uiso   1.00
H438   H     0.00856   0.25667   0.80473   0.00000  Uiso   1.00
C439   C     0.11442   0.04887   0.75499   0.00000  Uiso   1.00
C440   C     0.17607   0.45395   0.71041   0.00000  Uiso   1.00
H441   H     0.07734   0.03231   0.75912   0.00000  Uiso   1.00
H442   H     0.19273   0.47215   0.68284   0.00000  Uiso   1.00
C443   C     0.11873   0.09488   0.75748   0.00000  Uiso   1.00
C444   C     0.17809   0.40804   0.71186   0.00000  Uiso   1.00
H445   H     0.08495   0.11372   0.76344   0.00000  Uiso   1.00
H446   H     0.19697   0.39166   0.68562   0.00000  Uiso   1.00
C447   C     0.16596   0.11657   0.75103   0.00000  Uiso   1.00
C448   C     0.15734   0.38382   0.74742   0.00000  Uiso   1.00
C449   C     0.20994   0.09266   0.74269   0.00000  Uiso   1.00
C450   C     0.13111   0.40588   0.78030   0.00000  Uiso   1.00
C451   C     0.20519   0.04640   0.74052   0.00000  Uiso   1.00
C452   C     0.13122   0.45237   0.77955   0.00000  Uiso   1.00
H453   H     0.23904   0.02728   0.73548   0.00000  Uiso   1.00
H454   H     0.11333   0.46990   0.80578   0.00000  Uiso   1.00
C455   C     0.15766   0.02460   0.74650   0.00000  Uiso   1.00
C456   C     0.15421   0.47625   0.74511   0.00000  Uiso   1.00
C457   C     0.12388   0.23026   0.54722   0.00000  Uiso   1.00
C458   C     0.18742   0.28566   0.95024   0.00000  Uiso   1.00
H459   H     0.09027   0.21510   0.52527   0.00000  Uiso   1.00
H460   H     0.20452   0.31418   0.97045   0.00000  Uiso   1.00
C461   C     0.12532   0.23011   0.59693   0.00000  Uiso   1.00
C462   C     0.18902   0.28507   0.90108   0.00000  Uiso   1.00
N463   N     0.16667   0.24999   0.62624   0.00000  Uiso   1.00
N464   N     0.16667   0.25001   0.87377   0.00000  Uiso   1.00
C465   C     0.20753   0.26942   0.60603   0.00000  Uiso   1.00
C466   C     0.14341   0.21493   0.89536   0.00000  Uiso   1.00
C467   C     0.20727   0.26869   0.55658   0.00000  Uiso   1.00
C468   C     0.14283   0.21427   0.94475   0.00000  Uiso   1.00
H469   H     0.24037   0.28348   0.54201   0.00000  Uiso   1.00
H470   H     0.12528   0.18564   0.96067   0.00000  Uiso   1.00
C471   C     0.16515   0.24956   0.52618   0.00000  Uiso   1.00
C472   C     0.16477   0.24990   0.97313   0.00000  Uiso   1.00
N473   N     0.25940   0.11448   0.73751   0.00000  Uiso   1.00
O474   O     0.27646   0.14872   0.76345   0.00000  Uiso   1.00
O475   O     0.29074   0.09663   0.71159   0.00000  Uiso   1.00
N476   N     0.10240   0.38197   0.81275   0.00000  Uiso   1.00
O477   O     0.07117   0.34850   0.79790   0.00000  Uiso   1.00
O478   O     0.09939   0.39864   0.85409   0.00000  Uiso   1.00
N479   N     0.08271   0.20845   0.61594   0.00000  Uiso   1.00
O480   O     0.09049   0.17097   0.63904   0.00000  Uiso   1.00
O481   O     0.03476   0.21895   0.59938   0.00000  Uiso   1.00
N482   N     0.21534   0.32149   0.88062   0.00000  Uiso   1.00
O483   O     0.25756   0.31420   0.86222   0.00000  Uiso   1.00
O484   O     0.20566   0.36230   0.89109   0.00000  Uiso   1.00
N485   N     0.25141   0.29130   0.63413   0.00000  Uiso   1.00
O486   O     0.24348   0.32369   0.66172   0.00000  Uiso   1.00
O487   O     0.29812   0.28801   0.62236   0.00000  Uiso   1.00
N488   N     0.11941   0.17802   0.86837   0.00000  Uiso   1.00
O489   O     0.07497   0.18320   0.84096   0.00000  Uiso   1.00
O490   O     0.13461   0.13773   0.87977   0.00000  Uiso   1.00
O491   O     0.50000   0.18453   0.78974   0.00000  Uiso   1.00
O492   O     0.50000   0.31546   0.71026   0.00000  Uiso   1.00
O493   O     0.50000   0.18453   0.71026   0.00000  Uiso   1.00
O494   O     0.50000   0.31547   0.78974   0.00000  Uiso   1.00
C495   C     0.50040   0.16421   0.75037   0.00000  Uiso   1.00
C496   C     0.49733   0.33598   0.74936   0.00000  Uiso   1.00
O497   O     0.42392   0.25000   0.78045   0.00000  Uiso   1.00
O498   O     0.57608   0.25000   0.71956   0.00000  Uiso   1.00
O499   O     0.42392   0.25000   0.70097   0.00000  Uiso   1.00
O500   O     0.57608   0.25000   0.79904   0.00000  Uiso   1.00
C501   C     0.40045   0.24926   0.73769   0.00000  Uiso   1.00
C502   C     0.59956   0.25049   0.76238   0.00000  Uiso   1.00
Zn503  Zn    0.50000   0.25000   0.80307   0.00000  Uiso   1.00
Zn504  Zn    0.50000   0.24999   0.69693   0.00000  Uiso   1.00
C505   C     0.34542   0.24705   0.73136   0.00000  Uiso   1.00
C506   C     0.65466   0.25156   0.76904   0.00000  Uiso   1.00
H507   H     0.65819   0.24106   0.69596   0.00000  Uiso   1.00
H508   H     0.34189   0.25667   0.80473   0.00000  Uiso   1.00
C509   C     0.44776   0.04887   0.75499   0.00000  Uiso   1.00
C510   C     0.50941   0.45395   0.71041   0.00000  Uiso   1.00
H511   H     0.41068   0.03231   0.75912   0.00000  Uiso   1.00
H512   H     0.52607   0.47215   0.68284   0.00000  Uiso   1.00
C513   C     0.45206   0.09488   0.75748   0.00000  Uiso   1.00
C514   C     0.51143   0.40804   0.71186   0.00000  Uiso   1.00
H515   H     0.41828   0.11372   0.76344   0.00000  Uiso   1.00
H516   H     0.53030   0.39166   0.68562   0.00000  Uiso   1.00
C517   C     0.49929   0.11657   0.75103   0.00000  Uiso   1.00
C518   C     0.49068   0.38382   0.74742   0.00000  Uiso   1.00
C519   C     0.54327   0.09266   0.74269   0.00000  Uiso   1.00
C520   C     0.46444   0.40588   0.78030   0.00000  Uiso   1.00
C521   C     0.53853   0.04640   0.74052   0.00000  Uiso   1.00
C522   C     0.46455   0.45237   0.77955   0.00000  Uiso   1.00
H523   H     0.57237   0.02728   0.73548   0.00000  Uiso   1.00
H524   H     0.44666   0.46990   0.80578   0.00000  Uiso   1.00
C525   C     0.49099   0.02460   0.74650   0.00000  Uiso   1.00
C526   C     0.48754   0.47625   0.74511   0.00000  Uiso   1.00
C527   C     0.45721   0.23026   0.54722   0.00000  Uiso   1.00
C528   C     0.52076   0.28566   0.95024   0.00000  Uiso   1.00
H529   H     0.42360   0.21510   0.52527   0.00000  Uiso   1.00
H530   H     0.53785   0.31418   0.97045   0.00000  Uiso   1.00
C531   C     0.45865   0.23011   0.59693   0.00000  Uiso   1.00
C532   C     0.52236   0.28507   0.90108   0.00000  Uiso   1.00
N533   N     0.50000   0.24999   0.62624   0.00000  Uiso   1.00
N534   N     0.50000   0.25001   0.87377   0.00000  Uiso   1.00
C535   C     0.54086   0.26942   0.60603   0.00000  Uiso   1.00
C536   C     0.47674   0.21493   0.89536   0.00000  Uiso   1.00
C537   C     0.54060   0.26869   0.55658   0.00000  Uiso   1.00
C538   C     0.47616   0.21427   0.94475   0.00000  Uiso   1.00
H539   H     0.57370   0.28348   0.54201   0.00000  Uiso   1.00
H540   H     0.45862   0.18564   0.96067   0.00000  Uiso   1.00
C541   C     0.49848   0.24956   0.52618   0.00000  Uiso   1.00
C542   C     0.49811   0.24990   0.97313   0.00000  Uiso   1.00
N543   N     0.59274   0.11448   0.73751   0.00000  Uiso   1.00
O544   O     0.60979   0.14872   0.76345   0.00000  Uiso   1.00
O545   O     0.62407   0.09663   0.71159   0.00000  Uiso   1.00
N546   N     0.43573   0.38197   0.81275   0.00000  Uiso   1.00
O547   O     0.40451   0.34850   0.79790   0.00000  Uiso   1.00
O548   O     0.43272   0.39864   0.85409   0.00000  Uiso   1.00
N549   N     0.41604   0.20845   0.61594   0.00000  Uiso   1.00
O550   O     0.42383   0.17097   0.63904   0.00000  Uiso   1.00
O551   O     0.36809   0.21895   0.59938   0.00000  Uiso   1.00
N552   N     0.54868   0.32149   0.88062   0.00000  Uiso   1.00
O553   O     0.59089   0.31420   0.86222   0.00000  Uiso   1.00
O554   O     0.53900   0.36230   0.89109   0.00000  Uiso   1.00
N555   N     0.58475   0.29130   0.63413   0.00000  Uiso   1.00
O556   O     0.57682   0.32369   0.66172   0.00000  Uiso   1.00
O557   O     0.63145   0.28801   0.62236   0.00000  Uiso   1.00
N558   N     0.45275   0.17802   0.86837   0.00000  Uiso   1.00
O559   O     0.40830   0.18320   0.84096   0.00000  Uiso   1.00
O560   O     0.46795   0.13773   0.87977   0.00000  Uiso   1.00
O561   O     0.83334   0.18453   0.78974   0.00000  Uiso   1.00
O562   O     0.83333   0.31546   0.71026   0.00000  Uiso   1.00
O563   O     0.83334   0.18453   0.71026   0.00000  Uiso   1.00
O564   O     0.83333   0.31547   0.78974   0.00000  Uiso   1.00
C565   C     0.83373   0.16421   0.75037   0.00000  Uiso   1.00
C566   C     0.83066   0.33598   0.74936   0.00000  Uiso   1.00
O567   O     0.75725   0.25000   0.78045   0.00000  Uiso   1.00
O568   O     0.90942   0.25000   0.71956   0.00000  Uiso   1.00
O569   O     0.75725   0.25000   0.70097   0.00000  Uiso   1.00
O570   O     0.90942   0.25000   0.79904   0.00000  Uiso   1.00
C571   C     0.73379   0.24926   0.73769   0.00000  Uiso   1.00
C572   C     0.93290   0.25049   0.76238   0.00000  Uiso   1.00
Zn573  Zn    0.83333   0.25000   0.80307   0.00000  Uiso   1.00
Zn574  Zn    0.83333   0.24999   0.69693   0.00000  Uiso   1.00
C575   C     0.67875   0.24705   0.73136   0.00000  Uiso   1.00
C576   C     0.98799   0.25156   0.76904   0.00000  Uiso   1.00
H577   H     0.99152   0.24106   0.69596   0.00000  Uiso   1.00
H578   H     0.67523   0.25667   0.80473   0.00000  Uiso   1.00
C579   C     0.78109   0.04887   0.75499   0.00000  Uiso   1.00
C580   C     0.84274   0.45395   0.71041   0.00000  Uiso   1.00
H581   H     0.74401   0.03231   0.75912   0.00000  Uiso   1.00
H582   H     0.85940   0.47215   0.68284   0.00000  Uiso   1.00
C583   C     0.78539   0.09488   0.75748   0.00000  Uiso   1.00
C584   C     0.84476   0.40804   0.71186   0.00000  Uiso   1.00
H585   H     0.75162   0.11372   0.76344   0.00000  Uiso   1.00
H586   H     0.86363   0.39166   0.68562   0.00000  Uiso   1.00
C587   C     0.83262   0.11657   0.75103   0.00000  Uiso   1.00
C588   C     0.82401   0.38382   0.74742   0.00000  Uiso   1.00
C589   C     0.87660   0.09266   0.74269   0.00000  Uiso   1.00
C590   C     0.79777   0.40588   0.78030   0.00000  Uiso   1.00
C591   C     0.87186   0.04640   0.74052   0.00000  Uiso   1.00
C592   C     0.79788   0.45237   0.77955   0.00000  Uiso   1.00
H593   H     0.90571   0.02728   0.73548   0.00000  Uiso   1.00
H594   H     0.77999   0.46990   0.80578   0.00000  Uiso   1.00
C595   C     0.82432   0.02460   0.74650   0.00000  Uiso   1.00
C596   C     0.82087   0.47625   0.74511   0.00000  Uiso   1.00
C597   C     0.79054   0.23026   0.54722   0.00000  Uiso   1.00
C598   C     0.85409   0.28566   0.95024   0.00000  Uiso   1.00
H599   H     0.75693   0.21510   0.52527   0.00000  Uiso   1.00
H600   H     0.87119   0.31418   0.97045   0.00000  Uiso   1.00
C601   C     0.79199   0.23011   0.59693   0.00000  Uiso   1.00
C602   C     0.85569   0.28507   0.90108   0.00000  Uiso   1.00
N603   N     0.83333   0.24999   0.62624   0.00000  Uiso   1.00
N604   N     0.83333   0.25001   0.87377   0.00000  Uiso   1.00
C605   C     0.87420   0.26942   0.60603   0.00000  Uiso   1.00
C606   C     0.81007   0.21493   0.89536   0.00000  Uiso   1.00
C607   C     0.87393   0.26869   0.55658   0.00000  Uiso   1.00
C608   C     0.80950   0.21427   0.94475   0.00000  Uiso   1.00
H609   H     0.90704   0.28348   0.54201   0.00000  Uiso   1.00
H610   H     0.79195   0.18564   0.96067   0.00000  Uiso   1.00
C611   C     0.83181   0.24956   0.52618   0.00000  Uiso   1.00
C612   C     0.83144   0.24990   0.97313   0.00000  Uiso   1.00
N613   N     0.92607   0.11448   0.73751   0.00000  Uiso   1.00
O614   O     0.94312   0.14872   0.76345   0.00000  Uiso   1.00
O615   O     0.95741   0.09663   0.71159   0.00000  Uiso   1.00
N616   N     0.76906   0.38197   0.81275   0.00000  Uiso   1.00
O617   O     0.73784   0.34850   0.79790   0.00000  Uiso   1.00
O618   O     0.76605   0.39864   0.85409   0.00000  Uiso   1.00
N619   N     0.74938   0.20845   0.61594   0.00000  Uiso   1.00
O620   O     0.75716   0.17097   0.63904   0.00000  Uiso   1.00
O621   O     0.70143   0.21895   0.59938   0.00000  Uiso   1.00
N622   N     0.88201   0.32149   0.88062   0.00000  Uiso   1.00
O623   O     0.92422   0.31420   0.86222   0.00000  Uiso   1.00
O624   O     0.87233   0.36230   0.89109   0.00000  Uiso   1.00
N625   N     0.91808   0.29130   0.63413   0.00000  Uiso   1.00
O626   O     0.91015   0.32369   0.66172   0.00000  Uiso   1.00
O627   O     0.96478   0.28801   0.62236   0.00000  Uiso   1.00
N628   N     0.78608   0.17802   0.86837   0.00000  Uiso   1.00
O629   O     0.74163   0.18320   0.84096   0.00000  Uiso   1.00
O630   O     0.80128   0.13773   0.87977   0.00000  Uiso   1.00
O631   O     0.16667   0.68453   0.78974   0.00000  Uiso   1.00
O632   O     0.16666   0.81546   0.71026   0.00000  Uiso   1.00
O633   O     0.16667   0.68453   0.71026   0.00000  Uiso   1.00
O634   O     0.16666   0.81547   0.78974   0.00000  Uiso   1.00
C635   C     0.16707   0.66421   0.75037   0.00000  Uiso   1.00
C636   C     0.16400   0.83598   0.74936   0.00000  Uiso   1.00
O637   O     0.09058   0.75000   0.78045   0.00000  Uiso   1.00
O638   O     0.24275   0.75000   0.71956   0.00000  Uiso   1.00
O639   O     0.09058   0.75000   0.70097   0.00000  Uiso   1.00
O640   O     0.24275   0.75000   0.79904   0.00000  Uiso   1.00
C641   C     0.06712   0.74926   0.73769   0.00000  Uiso   1.00
C642   C     0.26623   0.75049   0.76238   0.00000  Uiso   1.00
Zn643  Zn    0.16667   0.75000   0.80307   0.00000  Uiso   1.00
Zn644  Zn    0.16667   0.74999   0.69693   0.00000  Uiso   1.00
C645   C     0.01208   0.74705   0.73136   0.00000  Uiso   1.00
C646   C     0.32133   0.75156   0.76904   0.00000  Uiso   1.00
H647   H     0.32485   0.74106   0.69596   0.00000  Uiso   1.00
H648   H     0.00856   0.75667   0.80473   0.00000  Uiso   1.00
C649   C     0.11442   0.54887   0.75499   0.00000  Uiso   1.00
C650   C     0.17607   0.95395   0.71041   0.00000  Uiso   1.00
H651   H     0.07734   0.53231   0.75912   0.00000  Uiso   1.00
H652   H     0.19273   0.97215   0.68284   0.00000  Uiso   1.00
C653   C     0.11873   0.59488   0.75748   0.00000  Uiso   1.00
C654   C     0.17809   0.90804   0.71186   0.00000  Uiso   1.00
H655   H     0.08495   0.61372   0.76344   0.00000  Uiso   1.00
H656   H     0.19697   0.89166   0.68562   0.00000  Uiso   1.00
C657   C     0.16596   0.61657   0.75103   0.00000  Uiso   1.00
C658   C     0.15734   0.88382   0.74742   0.00000  Uiso   1.00
C659   C     0.20994   0.59266   0.74269   0.00000  Uiso   1.00
C660   C     0.13111   0.90588   0.78030   0.00000  Uiso   1.00
C661   C     0.20519   0.54640   0.74052   0.00000  Uiso   1.00
C662   C     0.13122   0.95237   0.77955   0.00000  Uiso   1.00
H663   H     0.23904   0.52728   0.73548   0.00000  Uiso   1.00
H664   H     0.11333   0.96990   0.80578   0.00000  Uiso   1.00
C665   C     0.15766   0.52460   0.74650   0.00000  Uiso   1.00
C666   C     0.15421   0.97625   0.74511   0.00000  Uiso   1.00
C667   C     0.12388   0.73026   0.54722   0.00000  Uiso   1.00
C668   C     0.18742   0.78566   0.95024   0.00000  Uiso   1.00
H669   H     0.09027   0.71510   0.52527   0.00000  Uiso   1.00
H670   H     0.20452   0.81418   0.97045   0.00000  Uiso   1.00
C671   C     0.12532   0.73011   0.59693   0.00000  Uiso   1.00
C672   C     0.18902   0.78507   0.90108   0.00000  Uiso   1.00
N673   N     0.16667   0.74999   0.62624   0.00000  Uiso   1.00
N674   N     0.16667   0.75001   0.87377   0.00000  Uiso   1.00
C675   C     0.20753   0.76942   0.60603   0.00000  Uiso   1.00
C676   C     0.14341   0.71493   0.89536   0.00000  Uiso   1.00
C677   C     0.20727   0.76869   0.55658   0.00000  Uiso   1.00
C678   C     0.14283   0.71427   0.94475   0.00000  Uiso   1.00
H679   H     0.24037   0.78348   0.54201   0.00000  Uiso   1.00
H680   H     0.12528   0.68564   0.96067   0.00000  Uiso   1.00
C681   C     0.16515   0.74956   0.52618   0.00000  Uiso   1.00
C682   C     0.16477   0.74990   0.97313   0.00000  Uiso   1.00
N683   N     0.25940   0.61448   0.73751   0.00000  Uiso   1.00
O684   O     0.27646   0.64872   0.76345   0.00000  Uiso   1.00
O685   O     0.29074   0.59663   0.71159   0.00000  Uiso   1.00
N686   N     0.10240   0.88197   0.81275   0.00000  Uiso   1.00
O687   O     0.07117   0.84850   0.79790   0.00000  Uiso   1.00
O688   O     0.09939   0.89864   0.85409   0.00000  Uiso   1.00
N689   N     0.08271   0.70845   0.61594   0.00000  Uiso   1.00
O690   O     0.09049   0.67097   0.63904   0.00000  Uiso   1.00
O691   O     0.03476   0.71895   0.59938   0.00000  Uiso   1.00
N692   N     0.21534   0.82149   0.88062   0.00000  Uiso   1.00
O693   O     0.25756   0.81420   0.86222   0.00000  Uiso   1.00
O694   O     0.20566   0.86230   0.89109   0.00000  Uiso   1.00
N695   N     0.25141   0.79130   0.63413   0.00000  Uiso   1.00
O696   O     0.24348   0.82369   0.66172   0.00000  Uiso   1.00
O697   O     0.29812   0.78801   0.62236   0.00000  Uiso   1.00
N698   N     0.11941   0.67802   0.86837   0.00000  Uiso   1.00
O699   O     0.07497   0.68320   0.84096   0.00000  Uiso   1.00
O700   O     0.13461   0.63773   0.87977   0.00000  Uiso   1.00
O701   O     0.50000   0.68453   0.78974   0.00000  Uiso   1.00
O702   O     0.50000   0.81546   0.71026   0.00000  Uiso   1.00
O703   O     0.50000   0.68453   0.71026   0.00000  Uiso   1.00
O704   O     0.50000   0.81547   0.78974   0.00000  Uiso   1.00
C705   C     0.50040   0.66421   0.75037   0.00000  Uiso   1.00
C706   C     0.49733   0.83598   0.74936   0.00000  Uiso   1.00
O707   O     0.42392   0.75000   0.78045   0.00000  Uiso   1.00
O708   O     0.57608   0.75000   0.71956   0.00000  Uiso   1.00
O709   O     0.42392   0.75000   0.70097   0.00000  Uiso   1.00
O710   O     0.57608   0.75000   0.79904   0.00000  Uiso   1.00
C711   C     0.40045   0.74926   0.73769   0.00000  Uiso   1.00
C712   C     0.59956   0.75049   0.76238   0.00000  Uiso   1.00
Zn713  Zn    0.50000   0.75000   0.80307   0.00000  Uiso   1.00
Zn714  Zn    0.50000   0.74999   0.69693   0.00000  Uiso   1.00
C715   C     0.34542   0.74705   0.73136   0.00000  Uiso   1.00
C716   C     0.65466   0.75156   0.76904   0.00000  Uiso   1.00
H717   H     0.65819   0.74106   0.69596   0.00000  Uiso   1.00
H718   H     0.34189   0.75667   0.80473   0.00000  Uiso   1.00
C719   C     0.44776   0.54887   0.75499   0.00000  Uiso   1.00
C720   C     0.50941   0.95395   0.71041   0.00000  Uiso   1.00
H721   H     0.41068   0.53231   0.75912   0.00000  Uiso   1.00
H722   H     0.52607   0.97215   0.68284   0.00000  Uiso   1.00
C723   C     0.45206   0.59488   0.75748   0.00000  Uiso   1.00
C724   C     0.51143   0.90804   0.71186   0.00000  Uiso   1.00
H725   H     0.41828   0.61372   0.76344   0.00000  Uiso   1.00
H726   H     0.53030   0.89166   0.68562   0.00000  Uiso   1.00
C727   C     0.49929   0.61657   0.75103   0.00000  Uiso   1.00
C728   C     0.49068   0.88382   0.74742   0.00000  Uiso   1.00
C729   C     0.54327   0.59266   0.74269   0.00000  Uiso   1.00
C730   C     0.46444   0.90588   0.78030   0.00000  Uiso   1.00
C731   C     0.53853   0.54640   0.74052   0.00000  Uiso   1.00
C732   C     0.46455   0.95237   0.77955   0.00000  Uiso   1.00
H733   H     0.57237   0.52728   0.73548   0.00000  Uiso   1.00
H734   H     0.44666   0.96990   0.80578   0.00000  Uiso   1.00
C735   C     0.49099   0.52460   0.74650   0.00000  Uiso   1.00
C736   C     0.48754   0.97625   0.74511   0.00000  Uiso   1.00
C737   C     0.45721   0.73026   0.54722   0.00000  Uiso   1.00
C738   C     0.52076   0.78566   0.95024   0.00000  Uiso   1.00
H739   H     0.42360   0.71510   0.52527   0.00000  Uiso   1.00
H740   H     0.53785   0.81418   0.97045   0.00000  Uiso   1.00
C741   C     0.45865   0.73011   0.59693   0.00000  Uiso   1.00
C742   C     0.52236   0.78507   0.90108   0.00000  Uiso   1.00
N743   N     0.50000   0.74999   0.62624   0.00000  Uiso   1.00
N744   N     0.50000   0.75001   0.87377   0.00000  Uiso   1.00
C745   C     0.54086   0.76942   0.60603   0.00000  Uiso   1.00
C746   C     0.47674   0.71493   0.89536   0.00000  Uiso   1.00
C747   C     0.54060   0.76869   0.55658   0.00000  Uiso   1.00
C748   C     0.47616   0.71427   0.94475   0.00000  Uiso   1.00
H749   H     0.57370   0.78348   0.54201   0.00000  Uiso   1.00
H750   H     0.45862   0.68564   0.96067   0.00000  Uiso   1.00
C751   C     0.49848   0.74956   0.52618   0.00000  Uiso   1.00
C752   C     0.49811   0.74990   0.97313   0.00000  Uiso   1.00
N753   N     0.59274   0.61448   0.73751   0.00000  Uiso   1.00
O754   O     0.60979   0.64872   0.76345   0.00000  Uiso   1.00
O755   O     0.62407   0.59663   0.71159   0.00000  Uiso   1.00
N756   N     0.43573   0.88197   0.81275   0.00000  Uiso   1.00
O757   O     0.40451   0.84850   0.79790   0.00000  Uiso   1.00
O758   O     0.43272   0.89864   0.85409   0.00000  Uiso   1.00
N759   N     0.41604   0.70845   0.61594   0.00000  Uiso   1.00
O760   O     0.42383   0.67097   0.63904   0.00000  Uiso   1.00
O761   O     0.36809   0.71895   0.59938   0.00000  Uiso   1.00
N762   N     0.54868   0.82149   0.88062   0.00000  Uiso   1.00
O763   O     0.59089   0.81420   0.86222   0.00000  Uiso   1.00
O764   O     0.53900   0.86230   0.89109   0.00000  Uiso   1.00
N765   N     0.58475   0.79130   0.63413   0.00000  Uiso   1.00
O766   O     0.57682   0.82369   0.66172   0.00000  Uiso   1.00
O767   O     0.63145   0.78801   0.62236   0.00000  Uiso   1.00
N768   N     0.45275   0.67802   0.86837   0.00000  Uiso   1.00
O769   O     0.40830   0.68320   0.84096   0.00000  Uiso   1.00
O770   O     0.46795   0.63773   0.87977   0.00000  Uiso   1.00
O771   O     0.83334   0.68453   0.78974   0.00000  Uiso   1.00
O772   O     0.83333   0.81546   0.71026   0.00000  Uiso   1.00
O773   O     0.83334   0.68453   0.71026   0.00000  Uiso   1.00
O774   O     0.83333   0.81547   0.78974   0.00000  Uiso   1.00
C775   C     0.83373   0.66421   0.75037   0.00000  Uiso   1.00
C776   C     0.83066   0.83598   0.74936   0.00000  Uiso   1.00
O777   O     0.75725   0.75000   0.78045   0.00000  Uiso   1.00
O778   O     0.90942   0.75000   0.71956   0.00000  Uiso   1.00
O779   O     0.75725   0.75000   0.70097   0.00000  Uiso   1.00
O780   O     0.90942   0.75000   0.79904   0.00000  Uiso   1.00
C781   C     0.73379   0.74926   0.73769   0.00000  Uiso   1.00
C782   C     0.93290   0.75049   0.76238   0.00000  Uiso   1.00
Zn783  Zn    0.83333   0.75000   0.80307   0.00000  Uiso   1.00
Zn784  Zn    0.83333   0.74999   0.69693   0.00000  Uiso   1.00
C785   C     0.67875   0.74705   0.73136   0.00000  Uiso   1.00
C786   C     0.98799   0.75156   0.76904   0.00000  Uiso   1.00
H787   H     0.99152   0.74106   0.69596   0.00000  Uiso   1.00
H788   H     0.67523   0.75667   0.80473   0.00000  Uiso   1.00
C789   C     0.78109   0.54887   0.75499   0.00000  Uiso   1.00
C790   C     0.84274   0.95395   0.71041   0.00000  Uiso   1.00
H791   H     0.74401   0.53231   0.75912   0.00000  Uiso   1.00
H792   H     0.85940   0.97215   0.68284   0.00000  Uiso   1.00
C793   C     0.78539   0.59488   0.75748   0.00000  Uiso   1.00
C794   C     0.84476   0.90804   0.71186   0.00000  Uiso   1.00
H795   H     0.75162   0.61372   0.76344   0.00000  Uiso   1.00
H796   H     0.86363   0.89166   0.68562   0.00000  Uiso   1.00
C797   C     0.83262   0.61657   0.75103   0.00000  Uiso   1.00
C798   C     0.82401   0.88382   0.74742   0.00000  Uiso   1.00
C799   C     0.87660   0.59266   0.74269   0.00000  Uiso   1.00
C800   C     0.79777   0.90588   0.78030   0.00000  Uiso   1.00
C801   C     0.87186   0.54640   0.74052   0.00000  Uiso   1.00
C802   C     0.79788   0.95237   0.77955   0.00000  Uiso   1.00
H803   H     0.90571   0.52728   0.73548   0.00000  Uiso   1.00
H804   H     0.77999   0.96990   0.80578   0.00000  Uiso   1.00
C805   C     0.82432   0.52460   0.74650   0.00000  Uiso   1.00
C806   C     0.82087   0.97625   0.74511   0.00000  Uiso   1.00
C807   C     0.79054   0.73026   0.54722   0.00000  Uiso   1.00
C808   C     0.85409   0.78566   0.95024   0.00000  Uiso   1.00
H809   H     0.75693   0.71510   0.52527   0.00000  Uiso   1.00
H810   H     0.87119   0.81418   0.97045   0.00000  Uiso   1.00
C811   C     0.79199   0.73011   0.59693   0.00000  Uiso   1.00
C812   C     0.85569   0.78507   0.90108   0.00000  Uiso   1.00
N813   N     0.83333   0.74999   0.62624   0.00000  Uiso   1.00
N814   N     0.83333   0.75001   0.87377   0.00000  Uiso   1.00
C815   C     0.87420   0.76942   0.60603   0.00000  Uiso   1.00
C816   C     0.81007   0.71493   0.89536   0.00000  Uiso   1.00
C817   C     0.87393   0.76869   0.55658   0.00000  Uiso   1.00
C818   C     0.80950   0.71427   0.94475   0.00000  Uiso   1.00
H819   H     0.90704   0.78348   0.54201   0.00000  Uiso   1.00
H820   H     0.79195   0.68564   0.96067   0.00000  Uiso   1.00
C821   C     0.83181   0.74956   0.52618   0.00000  Uiso   1.00
C822   C     0.83144   0.74990   0.97313   0.00000  Uiso   1.00
N823   N     0.92607   0.61448   0.73751   0.00000  Uiso   1.00
O824   O     0.94312   0.64872   0.76345   0.00000  Uiso   1.00
O825   O     0.95741   0.59663   0.71159   0.00000  Uiso   1.00
N826   N     0.76906   0.88197   0.81275   0.00000  Uiso   1.00
O827   O     0.73784   0.84850   0.79790   0.00000  Uiso   1.00
O828   O     0.76605   0.89864   0.85409   0.00000  Uiso   1.00
N829   N     0.74938   0.70845   0.61594   0.00000  Uiso   1.00
O830   O     0.75716   0.67097   0.63904   0.00000  Uiso   1.00
O831   O     0.70143   0.71895   0.59938   0.00000  Uiso   1.00
N832   N     0.88201   0.82149   0.88062   0.00000  Uiso   1.00
O833   O     0.92422   0.81420   0.86222   0.00000  Uiso   1.00
O834   O     0.87233   0.86230   0.89109   0.00000  Uiso   1.00
N835   N     0.91808   0.79130   0.63413   0.00000  Uiso   1.00
O836   O     0.91015   0.82369   0.66172   0.00000  Uiso   1.00
O837   O     0.96478   0.78801   0.62236   0.00000  Uiso   1.00
N838   N     0.78608   0.67802   0.86837   0.00000  Uiso   1.00
O839   O     0.74163   0.68320   0.84096   0.00000  Uiso   1.00
O840   O     0.80128   0.63773   0.87977   0.00000  Uiso   1.00
loop_
_geom_bond_atom_site_label_1
_geom_bond_atom_site_label_2
_geom_bond_distance
_geom_bond_site_symmetry_2
_ccdc_geom_bond_type
O1     C5      1.287   .     A
O1     Zn13    2.001   .     S
O2     Zn14    2.001   .     S
O2     C6      1.293   .     A
O3     Zn14    1.991   .     S
O3     C5      1.289   .     A
O4     C6      1.293   .     A
O4     Zn13    1.991   .     S
C5     C27     1.425   .     S
C6     C28     1.446   .     S
O7     C11     1.281   .     A
O7     Zn13    1.969   .     S
O8     C12     1.282   .     A
O8     Zn14    1.969   .     S
O9     Zn14    1.978   .     S
O9     C11     1.284   .     A
O10    C12     1.283   .     A
O10    Zn13    1.978   .     S
C11    C15     1.401   .     S
C12    C16     1.402   .     S
Zn13   N44     2.019   .     S
Zn14   N43     2.019   .     S
C15    C156    1.328   1_455 S
C15    H157    1.085   1_455 S
C16    C85     1.328   .     S
C16    H88     1.088   .     S
H17    C85     1.085   .     S
H18    C156    1.088   1_455 S
C19    C23     1.380   .     A
C19    C35     1.398   .     A
C19    H21     1.083   .     S
C20    C36     1.395   .     A
C20    C24     1.376   .     A
C20    H22     1.084   .     S
C23    C27     1.396   .     A
C23    H25     1.085   .     S
C24    H26     1.081   .     S
C24    C28     1.400   .     A
C27    C29     1.407   .     A
C28    C30     1.415   .     A
C29    C31     1.388   .     A
C29    N53     1.439   .     S
C30    C32     1.391   .     A
C30    N56     1.439   .     S
C31    H33     1.084   .     S
C31    C35     1.401   .     A
C32    C36     1.399   .     A
C32    H34     1.083   .     S
C35    C246    1.448   1_545 S
C36    C245    1.448   .     S
C37    H39     1.083   .     S
C37    C41     1.414   .     A
C37    C51     1.402   .     A
C38    H40     1.083   .     S
C38    C42     1.411   .     A
C38    C52     1.403   .     A
C41    N43     1.379   .     A
C41    N59     1.429   .     S
C42    N62     1.430   .     S
C42    N44     1.377   .     A
N43    C45     1.382   .     A
N44    C46     1.377   .     A
C45    C47     1.412   .     A
C45    N65     1.433   .     S
C46    N68     1.428   .     S
C46    C48     1.412   .     A
C47    H49     1.082   .     S
C47    C51     1.399   .     A
C48    C52     1.402   .     A
C48    H50     1.083   .     S
C51    C472    1.514   1_554 S
C52    C471    1.514   .     S
N53    O55     1.302   .     A
N53    O54     1.300   .     A
N56    O58     1.301   .     A
N56    O57     1.301   .     A
N59    O60     1.299   .     A
N59    O61     1.301   .     A
N62    O63     1.299   .     A
N62    O64     1.301   .     A
N65    O67     1.301   .     A
N65    O66     1.297   .     A
N68    O70     1.301   .     A
N68    O69     1.299   .     A
O71    C75     1.287   .     A
O71    Zn83    2.001   .     S
O72    Zn84    2.001   .     S
O72    C76     1.293   .     A
O73    Zn84    1.991   .     S
O73    C75     1.289   .     A
O74    C76     1.293   .     A
O74    Zn83    1.991   .     S
C75    C97     1.425   .     S
C76    C98     1.446   .     S
O77    C81     1.281   .     A
O77    Zn83    1.969   .     S
O78    C82     1.282   .     A
O78    Zn84    1.969   .     S
O79    Zn84    1.978   .     S
O79    C81     1.284   .     A
O80    C82     1.283   .     A
O80    Zn83    1.978   .     S
C81    C85     1.401   .     S
C82    C86     1.402   .     S
Zn83   N114    2.019   .     S
Zn84   N113    2.019   .     S
C86    C155    1.328   .     S
C86    H158    1.088   .     S
H87    C155    1.085   .     S
C89    C93     1.380   .     A
C89    C105    1.398   .     A
C89    H91     1.083   .     S
C90    C106    1.395   .     A
C90    C94     1.376   .     A
C90    H92     1.084   .     S
C93    C97     1.396   .     A
C93    H95     1.085   .     S
C94    H96     1.081   .     S
C94    C98     1.400   .     A
C97    C99     1.407   .     A
C98    C100    1.415   .     A
C99    C101    1.388   .     A
C99    N123    1.439   .     S
C100   C102    1.391   .     A
C100   N126    1.439   .     S
C101   H103    1.084   .     S
C101   C105    1.401   .     A
C102   C106    1.399   .     A
C102   H104    1.083   .     S
C105   C316    1.448   1_545 S
C106   C315    1.448   .     S
C107   H109    1.083   .     S
C107   C111    1.414   .     A
C107   C121    1.402   .     A
C108   H110    1.083   .     S
C108   C112    1.411   .     A
C108   C122    1.403   .     A
C111   N113    1.379   .     A
C111   N129    1.429   .     S
C112   N132    1.430   .     S
C112   N114    1.377   .     A
N113   C115    1.382   .     A
N114   C116    1.377   .     A
C115   C117    1.412   .     A
C115   N135    1.433   .     S
C116   N138    1.428   .     S
C116   C118    1.412   .     A
C117   H119    1.082   .     S
C117   C121    1.399   .     A
C118   C122    1.402   .     A
C118   H120    1.083   .     S
C121   C542    1.514   1_554 S
C122   C541    1.514   .     S
N123   O125    1.302   .     A
N123   O124    1.300   .     A
N126   O128    1.301   .     A
N126   O127    1.301   .     A
N129   O130    1.299   .     A
N129   O131    1.301   .     A
N132   O133    1.299   .     A
N132   O134    1.301   .     A
N135   O137    1.301   .     A
N135   O136    1.297   .     A
N138   O140    1.301   .     A
N138   O139    1.299   .     A
O141   C145    1.287   .     A
O141   Zn153   2.001   .     S
O142   Zn154   2.001   .     S
O142   C146    1.293   .     A
O143   Zn154   1.991   .     S
O143   C145    1.289   .     A
O144   C146    1.293   .     A
O144   Zn153   1.991   .     S
C145   C167    1.425   .     S
C146   C168    1.446   .     S
O147   C151    1.281   .     A
O147   Zn153   1.969   .     S
O148   C152    1.282   .     A
O148   Zn154   1.969   .     S
O149   Zn154   1.978   .     S
O149   C151    1.284   .     A
O150   C152    1.283   .     A
O150   Zn153   1.978   .     S
C151   C155    1.401   .     S
C152   C156    1.402   .     S
Zn153  N184    2.019   .     S
Zn154  N183    2.019   .     S
C156   C15     1.328   1_655 S
C156   H18     1.088   1_655 S
H157   C15     1.085   1_655 S
C159   C163    1.380   .     A
C159   C175    1.398   .     A
C159   H161    1.083   .     S
C160   C176    1.395   .     A
C160   C164    1.376   .     A
C160   H162    1.084   .     S
C163   C167    1.396   .     A
C163   H165    1.085   .     S
C164   H166    1.081   .     S
C164   C168    1.400   .     A
C167   C169    1.407   .     A
C168   C170    1.415   .     A
C169   C171    1.388   .     A
C169   N193    1.439   .     S
C170   C172    1.391   .     A
C170   N196    1.439   .     S
C171   H173    1.084   .     S
C171   C175    1.401   .     A
C172   C176    1.399   .     A
C172   H174    1.083   .     S
C175   C386    1.448   1_545 S
C176   C385    1.448   .     S
C177   H179    1.083   .     S
C177   C181    1.414   .     A
C177   C191    1.402   .     A
C178   H180    1.083   .     S
C178   C182    1.411   .     A
C178   C192    1.403   .     A
C181   N183    1.379   .     A
C181   N199    1.429   .     S
C182   N202    1.430   .     S
C182   N184    1.377   .     A
N183   C185    1.382   .     A
N184   C186    1.377   .     A
C185   C187    1.412   .     A
C185   N205    1.433   .     S
C186   N208    1.428   .     S
C186   C188    1.412   .     A
C187   H189    1.082   .     S
C187   C191    1.399   .     A
C188   C192    1.402   .     A
C188   H190    1.083   .     S
C191   C612    1.514   1_554 S
C192   C611    1.514   .     S
N193   O195    1.302   .     A
N193   O194    1.300   .     A
N196   O198    1.301   .     A
N196   O197    1.301   .     A
N199   O200    1.299   .     A
N199   O201    1.301   .     A
N202   O203    1.299   .     A
N202   O204    1.301   .     A
N205   O207    1.301   .     A
N205   O206    1.297   .     A
N208   O210    1.301   .     A
N208   O209    1.299   .     A
O211   C215    1.287   .     A
O211   Zn223   2.001   .     S
O212   Zn224   2.001   .     S
O212   C216    1.293   .     A
O213   Zn224   1.991   .     S
O213   C215    1.289   .     A
O214   C216    1.293   .     A
O214   Zn223   1.991   .     S
C215   C237    1.425   .     S
C216   C238    1.446   .     S
O217   C221    1.281   .     A
O217   Zn223   1.969   .     S
O218   C222    1.282   .     A
O218   Zn224   1.969   .     S
O219   Zn224   1.978   .     S
O219   C221    1.284   .     A
O220   C222    1.283   .     A
O220   Zn223   1.978   .     S
C221   C225    1.401   .     S
C222   C226    1.402   .     S
Zn223  N254    2.019   .     S
Zn224  N253    2.019   .     S
C225   C366    1.328   1_455 S
C225   H367    1.085   1_455 S
C226   C295    1.328   .     S
C226   H298    1.088   .     S
H227   C295    1.085   .     S
H228   C366    1.088   1_455 S
C229   C233    1.380   .     A
C229   C245    1.398   .     A
C229   H231    1.083   .     S
C230   C246    1.395   .     A
C230   C234    1.376   .     A
C230   H232    1.084   .     S
C233   C237    1.396   .     A
C233   H235    1.085   .     S
C234   H236    1.081   .     S
C234   C238    1.400   .     A
C237   C239    1.407   .     A
C238   C240    1.415   .     A
C239   C241    1.388   .     A
C239   N263    1.439   .     S
C240   C242    1.391   .     A
C240   N266    1.439   .     S
C241   H243    1.084   .     S
C241   C245    1.401   .     A
C242   C246    1.399   .     A
C242   H244    1.083   .     S
C246   C35     1.448   1_565 S
C247   H249    1.083   .     S
C247   C251    1.414   .     A
C247   C261    1.402   .     A
C248   H250    1.083   .     S
C248   C252    1.411   .     A
C248   C262    1.403   .     A
C251   N253    1.379   .     A
C251   N269    1.429   .     S
C252   N272    1.430   .     S
C252   N254    1.377   .     A
N253   C255    1.382   .     A
N254   C256    1.377   .     A
C255   C257    1.412   .     A
C255   N275    1.433   .     S
C256   N278    1.428   .     S
C256   C258    1.412   .     A
C257   H259    1.082   .     S
C257   C261    1.399   .     A
C258   C262    1.402   .     A
C258   H260    1.083   .     S
C261   C682    1.514   1_554 S
C262   C681    1.514   .     S
N263   O265    1.302   .     A
N263   O264    1.300   .     A
N266   O268    1.301   .     A
N266   O267    1.301   .     A
N269   O270    1.299   .     A
N269   O271    1.301   .     A
N272   O273    1.299   .     A
N272   O274    1.301   .     A
N275   O277    1.301   .     A
N275   O276    1.297   .     A
N278   O280    1.301   .     A
N278   O279    1.299   .     A
O281   C285    1.287   .     A
O281   Zn293   2.001   .     S
O282   Zn294   2.001   .     S
O282   C286    1.293   .     A
O283   Zn294   1.991   .     S
O283   C285    1.289   .     A
O284   C286    1.293   .     A
O284   Zn293   1.991   .     S
C285   C307    1.425   .     S
C286   C308    1.446   .     S
O287   C291    1.281   .     A
O287   Zn293   1.969   .     S
O288   C292    1.282   .     A
O288   Zn294   1.969   .     S
O289   Zn294   1.978   .     S
O289   C291    1.284   .     A
O290   C292    1.283   .     A
O290   Zn293   1.978   .     S
C291   C295    1.401   .     S
C292   C296    1.402   .     S
Zn293  N324    2.019   .     S
Zn294  N323    2.019   .     S
C296   C365    1.328   .     S
C296   H368    1.088   .     S
H297   C365    1.085   .     S
C299   C303    1.380   .     A
C299   C315    1.398   .     A
C299   H301    1.083   .     S
C300   C316    1.395   .     A
C300   C304    1.376   .     A
C300   H302    1.084   .     S
C303   C307    1.396   .     A
C303   H305    1.085   .     S
C304   H306    1.081   .     S
C304   C308    1.400   .     A
C307   C309    1.407   .     A
C308   C310    1.415   .     A
C309   C311    1.388   .     A
C309   N333    1.439   .     S
C310   C312    1.391   .     A
C310   N336    1.439   .     S
C311   H313    1.084   .     S
C311   C315    1.401   .     A
C312   C316    1.399   .     A
C312   H314    1.083   .     S
C316   C105    1.448   1_565 S
C317   H319    1.083   .     S
C317   C321    1.414   .     A
C317   C331    1.402   .     A
C318   H320    1.083   .     S
C318   C322    1.411   .     A
C318   C332    1.403   .     A
C321   N323    1.379   .     A
C321   N339    1.429   .     S
C322   N342    1.430   .     S
C322   N324    1.377   .     A
N323   C325    1.382   .     A
N324   C326    1.377   .     A
C325   C327    1.412   .     A
C325   N345    1.433   .     S
C326   N348    1.428   .     S
C326   C328    1.412   .     A
C327   H329    1.082   .     S
C327   C331    1.399   .     A
C328   C332    1.402   .     A
C328   H330    1.083   .     S
C331   C752    1.514   1_554 S
C332   C751    1.514   .     S
N333   O335    1.302   .     A
N333   O334    1.300   .     A
N336   O338    1.301   .     A
N336   O337    1.301   .     A
N339   O340    1.299   .     A
N339   O341    1.301   .     A
N342   O343    1.299   .     A
N342   O344    1.301   .     A
N345   O347    1.301   .     A
N345   O346    1.297   .     A
N348   O350    1.301   .     A
N348   O349    1.299   .     A
O351   C355    1.287   .     A
O351   Zn363   2.001   .     S
O352   Zn364   2.001   .     S
O352   C356    1.293   .     A
O353   Zn364   1.991   .     S
O353   C355    1.289   .     A
O354   C356    1.293   .     A
O354   Zn363   1.991   .     S
C355   C377    1.425   .     S
C356   C378    1.446   .     S
O357   C361    1.281   .     A
O357   Zn363   1.969   .     S
O358   C362    1.282   .     A
O358   Zn364   1.969   .     S
O359   Zn364   1.978   .     S
O359   C361    1.284   .     A
O360   C362    1.283   .     A
O360   Zn363   1.978   .     S
C361   C365    1.401   .     S
C362   C366    1.402   .     S
Zn363  N394    2.019   .     S
Zn364  N393    2.019   .     S
C366   C225    1.328   1_655 S
C366   H228    1.088   1_655 S
H367   C225    1.085   1_655 S
C369   C373    1.380   .     A
C369   C385    1.398   .     A
C369   H371    1.083   .     S
C370   C386    1.395   .     A
C370   C374    1.376   .     A
C370   H372    1.084   .     S
C373   C377    1.396   .     A
C373   H375    1.085   .     S
C374   H376    1.081   .     S
C374   C378    1.400   .     A
C377   C379    1.407   .     A
C378   C380    1.415   .     A
C379   C381    1.388   .     A
C379   N403    1.439   .     S
C380   C382    1.391   .     A
C380   N406    1.439   .     S
C381   H383    1.084   .     S
C381   C385    1.401   .     A
C382   C386    1.399   .     A
C382   H384    1.083   .     S
C386   C175    1.448   1_565 S
C387   H389    1.083   .     S
C387   C391    1.414   .     A
C387   C401    1.402   .     A
C388   H390    1.083   .     S
C388   C392    1.411   .     A
C388   C402    1.403   .     A
C391   N393    1.379   .     A
C391   N409    1.429   .     S
C392   N412    1.430   .     S
C392   N394    1.377   .     A
N393   C395    1.382   .     A
N394   C396    1.377   .     A
C395   C397    1.412   .     A
C395   N415    1.433   .     S
C396   N418    1.428   .     S
C396   C398    1.412   .     A
C397   H399    1.082   .     S
C397   C401    1.399   .     A
C398   C402    1.402   .     A
C398   H400    1.083   .     S
C401   C822    1.514   1_554 S
C402   C821    1.514   .     S
N403   O405    1.302   .     A
N403   O404    1.300   .     A
N406   O408    1.301   .     A
N406   O407    1.301   .     A
N409   O410    1.299   .     A
N409   O411    1.301   .     A
N412   O413    1.299   .     A
N412   O414    1.301   .     A
N415   O417    1.301   .     A
N415   O416    1.297   .     A
N418   O420    1.301   .     A
N418   O419    1.299   .     A
O421   C425    1.287   .     A
O421   Zn433   2.001   .     S
O422   Zn434   2.001   .     S
O422   C426    1.293   .     A
O423   Zn434   1.991   .     S
O423   C425    1.289   .     A
O424   C426    1.293   .     A
O424   Zn433   1.991   .     S
C425   C447    1.425   .     S
C426   C448    1.446   .     S
O427   C431    1.281   .     A
O427   Zn433   1.969   .     S
O428   C432    1.282   .     A
O428   Zn434   1.969   .     S
O429   Zn434   1.978   .     S
O429   C431    1.284   .     A
O430   C432    1.283   .     A
O430   Zn433   1.978   .     S
C431   C435    1.401   .     S
C432   C436    1.402   .     S
Zn433  N464    2.019   .     S
Zn434  N463    2.019   .     S
C435   C576    1.328   1_455 S
C435   H577    1.085   1_455 S
C436   C505    1.328   .     S
C436   H508    1.088   .     S
H437   C505    1.085   .     S
H438   C576    1.088   1_455 S
C439   C443    1.380   .     A
C439   C455    1.398   .     A
C439   H441    1.083   .     S
C440   C456    1.395   .     A
C440   C444    1.376   .     A
C440   H442    1.084   .     S
C443   C447    1.396   .     A
C443   H445    1.085   .     S
C444   H446    1.081   .     S
C444   C448    1.400   .     A
C447   C449    1.407   .     A
C448   C450    1.415   .     A
C449   C451    1.388   .     A
C449   N473    1.439   .     S
C450   C452    1.391   .     A
C450   N476    1.439   .     S
C451   H453    1.084   .     S
C451   C455    1.401   .     A
C452   C456    1.399   .     A
C452   H454    1.083   .     S
C455   C666    1.448   1_545 S
C456   C665    1.448   .     S
C457   H459    1.083   .     S
C457   C461    1.414   .     A
C457   C471    1.402   .     A
C458   H460    1.083   .     S
C458   C462    1.411   .     A
C458   C472    1.403   .     A
C461   N463    1.379   .     A
C461   N479    1.429   .     S
C462   N482    1.430   .     S
C462   N464    1.377   .     A
N463   C465    1.382   .     A
N464   C466    1.377   .     A
C465   C467    1.412   .     A
C465   N485    1.433   .     S
C466   N488    1.428   .     S
C466   C468    1.412   .     A
C467   H469    1.082   .     S
C467   C471    1.399   .     A
C468   C472    1.402   .     A
C468   H470    1.083   .     S
C472   C51     1.514   1_556 S
N473   O475    1.302   .     A
N473   O474    1.300   .     A
N476   O478    1.301   .     A
N476   O477    1.301   .     A
N479   O480    1.299   .     A
N479   O481    1.301   .     A
N482   O483    1.299   .     A
N482   O484    1.301   .     A
N485   O487    1.301   .     A
N485   O486    1.297   .     A
N488   O490    1.301   .     A
N488   O489    1.299   .     A
O491   C495    1.287   .     A
O491   Zn503   2.001   .     S
O492   Zn504   2.001   .     S
O492   C496    1.293   .     A
O493   Zn504   1.991   .     S
O493   C495    1.289   .     A
O494   C496    1.293   .     A
O494   Zn503   1.991   .     S
C495   C517    1.425   .     S
C496   C518    1.446   .     S
O497   C501    1.281   .     A
O497   Zn503   1.969   .     S
O498   C502    1.282   .     A
O498   Zn504   1.969   .     S
O499   Zn504   1.978   .     S
O499   C501    1.284   .     A
O500   C502    1.283   .     A
O500   Zn503   1.978   .     S
C501   C505    1.401   .     S
C502   C506    1.402   .     S
Zn503  N534    2.019   .     S
Zn504  N533    2.019   .     S
C506   C575    1.328   .     S
C506   H578    1.088   .     S
H507   C575    1.085   .     S
C509   C513    1.380   .     A
C509   C525    1.398   .     A
C509   H511    1.083   .     S
C510   C526    1.395   .     A
C510   C514    1.376   .     A
C510   H512    1.084   .     S
C513   C517    1.396   .     A
C513   H515    1.085   .     S
C514   H516    1.081   .     S
C514   C518    1.400   .     A
C517   C519    1.407   .     A
C518   C520    1.415   .     A
C519   C521    1.388   .     A
C519   N543    1.439   .     S
C520   C522    1.391   .     A
C520   N546    1.439   .     S
C521   H523    1.084   .     S
C521   C525    1.401   .     A
C522   C526    1.399   .     A
C522   H524    1.083   .     S
C525   C736    1.448   1_545 S
C526   C735    1.448   .     S
C527   H529    1.083   .     S
C527   C531    1.414   .     A
C527   C541    1.402   .     A
C528   H530    1.083   .     S
C528   C532    1.411   .     A
C528   C542    1.403   .     A
C531   N533    1.379   .     A
C531   N549    1.429   .     S
C532   N552    1.430   .     S
C532   N534    1.377   .     A
N533   C535    1.382   .     A
N534   C536    1.377   .     A
C535   C537    1.412   .     A
C535   N555    1.433   .     S
C536   N558    1.428   .     S
C536   C538    1.412   .     A
C537   H539    1.082   .     S
C537   C541    1.399   .     A
C538   C542    1.402   .     A
C538   H540    1.083   .     S
C542   C121    1.514   1_556 S
N543   O545    1.302   .     A
N543   O544    1.300   .     A
N546   O548    1.301   .     A
N546   O547    1.301   .     A
N549   O550    1.299   .     A
N549   O551    1.301   .     A
N552   O553    1.299   .     A
N552   O554    1.301   .     A
N555   O557    1.301   .     A
N555   O556    1.297   .     A
N558   O560    1.301   .     A
N558   O559    1.299   .     A
O561   C565    1.287   .     A
O561   Zn573   2.001   .     S
O562   Zn574   2.001   .     S
O562   C566    1.293   .     A
O563   Zn574   1.991   .     S
O563   C565    1.289   .     A
O564   C566    1.293   .     A
O564   Zn573   1.991   .     S
C565   C587    1.425   .     S
C566   C588    1.446   .     S
O567   C571    1.281   .     A
O567   Zn573   1.969   .     S
O568   C572    1.282   .     A
O568   Zn574   1.969   .     S
O569   Zn574   1.978   .     S
O569   C571    1.284   .     A
O570   C572    1.283   .     A
O570   Zn573   1.978   .     S
C571   C575    1.401   .     S
C572   C576    1.402   .     S
Zn573  N604    2.019   .     S
Zn574  N603    2.019   .     S
C576   C435    1.328   1_655 S
C576   H438    1.088   1_655 S
H577   C435    1.085   1_655 S
C579   C583    1.380   .     A
C579   C595    1.398   .     A
C579   H581    1.083   .     S
C580   C596    1.395   .     A
C580   C584    1.376   .     A
C580   H582    1.084   .     S
C583   C587    1.396   .     A
C583   H585    1.085   .     S
C584   H586    1.081   .     S
C584   C588    1.400   .     A
C587   C589    1.407   .     A
C588   C590    1.415   .     A
C589   C591    1.388   .     A
C589   N613    1.439   .     S
C590   C592    1.391   .     A
C590   N616    1.439   .     S
C591   H593    1.084   .     S
C591   C595    1.401   .     A
C592   C596    1.399   .     A
C592   H594    1.083   .     S
C595   C806    1.448   1_545 S
C596   C805    1.448   .     S
C597   H599    1.083   .     S
C597   C601    1.414   .     A
C597   C611    1.402   .     A
C598   H600    1.083   .     S
C598   C602    1.411   .     A
C598   C612    1.403   .     A
C601   N603    1.379   .     A
C601   N619    1.429   .     S
C602   N622    1.430   .     S
C602   N604    1.377   .     A
N603   C605    1.382   .     A
N604   C606    1.377   .     A
C605   C607    1.412   .     A
C605   N625    1.433   .     S
C606   N628    1.428   .     S
C606   C608    1.412   .     A
C607   H609    1.082   .     S
C607   C611    1.399   .     A
C608   C612    1.402   .     A
C608   H610    1.083   .     S
C612   C191    1.514   1_556 S
N613   O615    1.302   .     A
N613   O614    1.300   .     A
N616   O618    1.301   .     A
N616   O617    1.301   .     A
N619   O620    1.299   .     A
N619   O621    1.301   .     A
N622   O623    1.299   .     A
N622   O624    1.301   .     A
N625   O627    1.301   .     A
N625   O626    1.297   .     A
N628   O630    1.301   .     A
N628   O629    1.299   .     A
O631   C635    1.287   .     A
O631   Zn643   2.001   .     S
O632   Zn644   2.001   .     S
O632   C636    1.293   .     A
O633   Zn644   1.991   .     S
O633   C635    1.289   .     A
O634   C636    1.293   .     A
O634   Zn643   1.991   .     S
C635   C657    1.425   .     S
C636   C658    1.446   .     S
O637   C641    1.281   .     A
O637   Zn643   1.969   .     S
O638   C642    1.282   .     A
O638   Zn644   1.969   .     S
O639   Zn644   1.978   .     S
O639   C641    1.284   .     A
O640   C642    1.283   .     A
O640   Zn643   1.978   .     S
C641   C645    1.401   .     S
C642   C646    1.402   .     S
Zn643  N674    2.019   .     S
Zn644  N673    2.019   .     S
C645   C786    1.328   1_455 S
C645   H787    1.085   1_455 S
C646   C715    1.328   .     S
C646   H718    1.088   .     S
H647   C715    1.085   .     S
H648   C786    1.088   1_455 S
C649   C653    1.380   .     A
C649   C665    1.398   .     A
C649   H651    1.083   .     S
C650   C666    1.395   .     A
C650   C654    1.376   .     A
C650   H652    1.084   .     S
C653   C657    1.396   .     A
C653   H655    1.085   .     S
C654   H656    1.081   .     S
C654   C658    1.400   .     A
C657   C659    1.407   .     A
C658   C660    1.415   .     A
C659   C661    1.388   .     A
C659   N683    1.439   .     S
C660   C662    1.391   .     A
C660   N686    1.439   .     S
C661   H663    1.084   .     S
C661   C665    1.401   .     A
C662   C666    1.399   .     A
C662   H664    1.083   .     S
C666   C455    1.448   1_565 S
C667   H669    1.083   .     S
C667   C671    1.414   .     A
C667   C681    1.402   .     A
C668   H670    1.083   .     S
C668   C672    1.411   .     A
C668   C682    1.403   .     A
C671   N673    1.379   .     A
C671   N689    1.429   .     S
C672   N692    1.430   .     S
C672   N674    1.377   .     A
N673   C675    1.382   .     A
N674   C676    1.377   .     A
C675   C677    1.412   .     A
C675   N695    1.433   .     S
C676   N698    1.428   .     S
C676   C678    1.412   .     A
C677   H679    1.082   .     S
C677   C681    1.399   .     A
C678   C682    1.402   .     A
C678   H680    1.083   .     S
C682   C261    1.514   1_556 S
N683   O685    1.302   .     A
N683   O684    1.300   .     A
N686   O688    1.301   .     A
N686   O687    1.301   .     A
N689   O690    1.299   .     A
N689   O691    1.301   .     A
N692   O693    1.299   .     A
N692   O694    1.301   .     A
N695   O697    1.301   .     A
N695   O696    1.297   .     A
N698   O700    1.301   .     A
N698   O699    1.299   .     A
O701   C705    1.287   .     A
O701   Zn713   2.001   .     S
O702   Zn714   2.001   .     S
O702   C706    1.293   .     A
O703   Zn714   1.991   .     S
O703   C705    1.289   .     A
O704   C706    1.293   .     A
O704   Zn713   1.991   .     S
C705   C727    1.425   .     S
C706   C728    1.446   .     S
O707   C711    1.281   .     A
O707   Zn713   1.969   .     S
O708   C712    1.282   .     A
O708   Zn714   1.969   .     S
O709   Zn714   1.978   .     S
O709   C711    1.284   .     A
O710   C712    1.283   .     A
O710   Zn713   1.978   .     S
C711   C715    1.401   .     S
C712   C716    1.402   .     S
Zn713  N744    2.019   .     S
Zn714  N743    2.019   .     S
C716   C785    1.328   .     S
C716   H788    1.088   .     S
H717   C785    1.085   .     S
C719   C723    1.380   .     A
C719   C735    1.398   .     A
C719   H721    1.083   .     S
C720   C736    1.395   .     A
C720   C724    1.376   .     A
C720   H722    1.084   .     S
C723   C727    1.396   .     A
C723   H725    1.085   .     S
C724   H726    1.081   .     S
C724   C728    1.400   .     A
C727   C729    1.407   .     A
C728   C730    1.415   .     A
C729   C731    1.388   .     A
C729   N753    1.439   .     S
C730   C732    1.391   .     A
C730   N756    1.439   .     S
C731   H733    1.084   .     S
C731   C735    1.401   .     A
C732   C736    1.399   .     A
C732   H734    1.083   .     S
C736   C525    1.448   1_565 S
C737   H739    1.083   .     S
C737   C741    1.414   .     A
C737   C751    1.402   .     A
C738   H740    1.083   .     S
C738   C742    1.411   .     A
C738   C752    1.403   .     A
C741   N743    1.379   .     A
C741   N759    1.429   .     S
C742   N762    1.430   .     S
C742   N744    1.377   .     A
N743   C745    1.382   .     A
N744   C746    1.377   .     A
C745   C747    1.412   .     A
C745   N765    1.433   .     S
C746   N768    1.428   .     S
C746   C748    1.412   .     A
C747   H749    1.082   .     S
C747   C751    1.399   .     A
C748   C752    1.402   .     A
C748   H750    1.083   .     S
C752   C331    1.514   1_556 S
N753   O755    1.302   .     A
N753   O754    1.300   .     A
N756   O758    1.301   .     A
N756   O757    1.301   .     A
N759   O760    1.299   .     A
N759   O761    1.301   .     A
N762   O763    1.299   .     A
N762   O764    1.301   .     A
N765   O767    1.301   .     A
N765   O766    1.297   .     A
N768   O770    1.301   .     A
N768   O769    1.299   .     A
O771   C775    1.287   .     A
O771   Zn783   2.001   .     S
O772   Zn784   2.001   .     S
O772   C776    1.293   .     A
O773   Zn784   1.991   .     S
O773   C775    1.289   .     A
O774   C776    1.293   .     A
O774   Zn783   1.991   .     S
C775   C797    1.425   .     S
C776   C798    1.446   .     S
O777   C781    1.281   .     A
O777   Zn783   1.969   .     S
O778   C782    1.282   .     A
O778   Zn784   1.969   .     S
O779   Zn784   1.978   .     S
O779   C781    1.284   .     A
O780   C782    1.283   .     A
O780   Zn783   1.978   .     S
C781   C785    1.401   .     S
C782   C786    1.402   .     S
Zn783  N814    2.019   .     S
Zn784  N813    2.019   .     S
C786   C645    1.328   1_655 S
C786   H648    1.088   1_655 S
H787   C645    1.085   1_655 S
C789   C793    1.380   .     A
C789   C805    1.398   .     A
C789   H791    1.083   .     S
C790   C806    1.395   .     A
C790   C794    1.376   .     A
C790   H792    1.084   .     S
C793   C797    1.396   .     A
C793   H795    1.085   .     S
C794   H796    1.081   .     S
C794   C798    1.400   .     A
C797   C799    1.407   .     A
C798   C800    1.415   .     A
C799   C801    1.388   .     A
C799   N823    1.439   .     S
C800   C802    1.391   .     A
C800   N826    1.439   .     S
C801   H803    1.084   .     S
C801   C805    1.401   .     A
C802   C806    1.399   .     A
C802   H804    1.083   .     S
C806   C595    1.448   1_565 S
C807   H809    1.083   .     S
C807   C811    1.414   .     A
C807   C821    1.402   .     A
C808   H810    1.083   .     S
C808   C812    1.411   .     A
C808   C822    1.403   .     A
C811   N813    1.379   .     A
C811   N829    1.429   .     S
C812   N832    1.430   .     S
C812   N814    1.377   .     A
N813   C815    1.382   .     A
N814   C816    1.377   .     A
C815   C817    1.412   .     A
C815   N835    1.433   .     S
C816   N838    1.428   .     S
C816   C818    1.412   .     A
C817   H819    1.082   .     S
C817   C821    1.399   .     A
C818   C822    1.402   .     A
C818   H820    1.083   .     S
C822   C401    1.514   1_556 S
N823   O825    1.302   .     A
N823   O824    1.300   .     A
N826   O828    1.301   .     A
N826   O827    1.301   .     A
N829   O830    1.299   .     A
N829   O831    1.301   .     A
N832   O833    1.299   .     A
N832   O834    1.301   .     A
N835   O837    1.301   .     A
N835   O836    1.297   .     A
N838   O840    1.301   .     A
N838   O839    1.299   .     A
