data_str_m3_o2_o5_pcu_sym.125
_audit_creation_date              2020-01-03
_audit_creation_method            'Materials Studio'
_symmetry_space_group_name_H-M    'P1'
_symmetry_Int_Tables_number       1
_symmetry_cell_setting            triclinic
loop_
_symmetry_equiv_pos_as_xyz
  x,y,z
_cell_length_a                    30.0185
_cell_length_b                    28.4368
_cell_length_c                    26.6140
_cell_angle_alpha                 89.9981
_cell_angle_beta                  90.3356
_cell_angle_gamma                 89.9993
loop_
_atom_site_label
_atom_site_type_symbol
_atom_site_fract_x
_atom_site_fract_y
_atom_site_fract_z
_atom_site_U_iso_or_equiv
_atom_site_adp_type
_atom_site_occupancy
C1     C     0.16393   0.25003   0.16668   0.00000  Uiso   1.00
C2     C     0.33607   0.25003   0.16665   0.00000  Uiso   1.00
C3     C     0.23422   0.10204   0.12566   0.00000  Uiso   1.00
C4     C     0.28134   0.39762   0.19408   0.00000  Uiso   1.00
C5     C     0.26578   0.10204   0.20768   0.00000  Uiso   1.00
C6     C     0.21866   0.39763   0.13926   0.00000  Uiso   1.00
C7     C     0.23523   0.05222   0.12476   0.00000  Uiso   1.00
C8     C     0.28244   0.44739   0.19329   0.00000  Uiso   1.00
C9     C     0.26477   0.05221   0.20857   0.00000  Uiso   1.00
C10    C     0.21756   0.44739   0.14005   0.00000  Uiso   1.00
C11    C     0.25007   0.24999   0.07290   0.00000  Uiso   1.00
C12    C     0.24992   0.24999   0.26043   0.00000  Uiso   1.00
C13    C     0.25000   0.02644   0.16667   0.00000  Uiso   1.00
C14    C     0.25000   0.47318   0.16667   0.00000  Uiso   1.00
C15    C     0.25004   0.24996   0.02182   0.00000  Uiso   1.00
C16    C     0.24996   0.24996   0.31151   0.00000  Uiso   1.00
C17    C     0.04728   0.29021   0.18352   0.00000  Uiso   1.00
C18    C     0.45307   0.21071   0.18365   0.00000  Uiso   1.00
C19    C     0.45272   0.29020   0.14977   0.00000  Uiso   1.00
C20    C     0.04693   0.21071   0.14968   0.00000  Uiso   1.00
C21    C     0.09326   0.29020   0.18319   0.00000  Uiso   1.00
C22    C     0.40712   0.21038   0.18305   0.00000  Uiso   1.00
C23    C     0.40673   0.29019   0.15010   0.00000  Uiso   1.00
C24    C     0.09288   0.21038   0.15029   0.00000  Uiso   1.00
C25    C     0.11605   0.25019   0.16674   0.00000  Uiso   1.00
C26    C     0.38395   0.25019   0.16658   0.00000  Uiso   1.00
C27    C     0.02407   0.25052   0.16658   0.00000  Uiso   1.00
C28    C     0.47593   0.25052   0.16673   0.00000  Uiso   1.00
H29    H     0.02988   0.32091   0.19740   0.00000  Uiso   1.00
H30    H     0.47073   0.18010   0.19758   0.00000  Uiso   1.00
H31    H     0.47011   0.32089   0.13587   0.00000  Uiso   1.00
H32    H     0.02928   0.18009   0.13577   0.00000  Uiso   1.00
N33    N     0.25000   0.12624   0.16667   0.00000  Uiso   1.00
N34    N     0.25000   0.37377   0.16667   0.00000  Uiso   1.00
O35    O     0.18453   0.28974   0.16667   0.00000  Uiso   1.00
O36    O     0.31547   0.21026   0.16666   0.00000  Uiso   1.00
O37    O     0.31547   0.28974   0.16666   0.00000  Uiso   1.00
O38    O     0.18453   0.21026   0.16667   0.00000  Uiso   1.00
O39    O     0.25000   0.28973   0.09511   0.00000  Uiso   1.00
O40    O     0.25000   0.21027   0.23822   0.00000  Uiso   1.00
O41    O     0.25000   0.28973   0.23822   0.00000  Uiso   1.00
O42    O     0.25000   0.21027   0.09511   0.00000  Uiso   1.00
Zn43   Zn    0.25000   0.30307   0.16667   0.00000  Uiso   1.00
Zn44   Zn    0.25000   0.19693   0.16667   0.00000  Uiso   1.00
O45    O     0.22118   0.12689   0.08343   0.00000  Uiso   1.00
C46    C     0.17653   0.11656   0.07054   0.00000  Uiso   1.00
H47    H     0.15488   0.11451   0.10441   0.00000  Uiso   1.00
H48    H     0.17490   0.08266   0.04976   0.00000  Uiso   1.00
C49    C     0.15892   0.15562   0.03627   0.00000  Uiso   1.00
H50    H     0.15998   0.18971   0.05669   0.00000  Uiso   1.00
H51    H     0.18055   0.15856   0.00264   0.00000  Uiso   1.00
C52    C     0.11117   0.14597   0.01921   0.00000  Uiso   1.00
H53    H     0.10955   0.11269   0.33076   0.00000  Uiso   1.00
H54    H     0.09942   0.17519   0.32817   0.00000  Uiso   1.00
H55    H     0.08875   0.14335   0.05215   0.00000  Uiso   1.00
O56    O     0.31409   0.37244   0.21899   0.00000  Uiso   1.00
C57    C     0.31025   0.37936   0.27135   0.00000  Uiso   1.00
H58    H     0.27540   0.37322   0.28409   0.00000  Uiso   1.00
H59    H     0.32062   0.41565   0.28178   0.00000  Uiso   1.00
C60    C     0.34094   0.34456   0.29842   0.00000  Uiso   1.00
H61    H     0.33191   0.30807   0.28744   0.00000  Uiso   1.00
H62    H     0.37596   0.35098   0.28694   0.00000  Uiso   1.00
C63    C     0.33751   0.34934   0.02205   0.00000  Uiso   1.00
H64    H     0.34818   0.38502   0.03412   0.00000  Uiso   1.00
H65    H     0.35939   0.32291   0.04048   0.00000  Uiso   1.00
H66    H     0.30274   0.34322   0.03432   0.00000  Uiso   1.00
O67    O     0.27881   0.12688   0.24991   0.00000  Uiso   1.00
C68    C     0.32346   0.11656   0.26280   0.00000  Uiso   1.00
H69    H     0.34512   0.11456   0.22893   0.00000  Uiso   1.00
H70    H     0.32511   0.08264   0.28353   0.00000  Uiso   1.00
C71    C     0.34105   0.15558   0.29713   0.00000  Uiso   1.00
H72    H     0.33996   0.18970   0.27676   0.00000  Uiso   1.00
H73    H     0.31942   0.15845   0.33076   0.00000  Uiso   1.00
C74    C     0.38881   0.14595   0.31417   0.00000  Uiso   1.00
H75    H     0.39046   0.11260   0.00251   0.00000  Uiso   1.00
H76    H     0.40051   0.17511   0.00531   0.00000  Uiso   1.00
H77    H     0.41123   0.14346   0.28123   0.00000  Uiso   1.00
O78    O     0.18591   0.37245   0.11434   0.00000  Uiso   1.00
C79    C     0.18977   0.37936   0.06198   0.00000  Uiso   1.00
H80    H     0.22463   0.37318   0.04925   0.00000  Uiso   1.00
H81    H     0.17946   0.41567   0.05154   0.00000  Uiso   1.00
C82    C     0.15905   0.34461   0.03490   0.00000  Uiso   1.00
H83    H     0.16802   0.30811   0.04590   0.00000  Uiso   1.00
H84    H     0.12403   0.35109   0.04635   0.00000  Uiso   1.00
C85    C     0.16252   0.34938   0.31127   0.00000  Uiso   1.00
H86    H     0.15197   0.38509   0.29918   0.00000  Uiso   1.00
H87    H     0.14057   0.32302   0.29282   0.00000  Uiso   1.00
H88    H     0.19728   0.34313   0.29902   0.00000  Uiso   1.00
H89    H     0.11093   0.32108   0.19644   0.00000  Uiso   1.00
H90    H     0.38980   0.17934   0.19595   0.00000  Uiso   1.00
H91    H     0.38907   0.32106   0.13685   0.00000  Uiso   1.00
H92    H     0.11021   0.17933   0.13741   0.00000  Uiso   1.00
H93    H     0.22533   0.03389   0.09088   0.00000  Uiso   1.00
H94    H     0.30909   0.46559   0.21273   0.00000  Uiso   1.00
H95    H     0.27466   0.03388   0.24246   0.00000  Uiso   1.00
H96    H     0.19091   0.46559   0.12061   0.00000  Uiso   1.00
C97    C     0.66393   0.25003   0.16668   0.00000  Uiso   1.00
C98    C     0.83607   0.25003   0.16665   0.00000  Uiso   1.00
C99    C     0.73422   0.10204   0.12566   0.00000  Uiso   1.00
C100   C     0.78134   0.39762   0.19408   0.00000  Uiso   1.00
C101   C     0.76578   0.10204   0.20768   0.00000  Uiso   1.00
C102   C     0.71866   0.39763   0.13926   0.00000  Uiso   1.00
C103   C     0.73523   0.05222   0.12476   0.00000  Uiso   1.00
C104   C     0.78244   0.44739   0.19329   0.00000  Uiso   1.00
C105   C     0.76477   0.05221   0.20857   0.00000  Uiso   1.00
C106   C     0.71756   0.44739   0.14005   0.00000  Uiso   1.00
C107   C     0.75007   0.24999   0.07290   0.00000  Uiso   1.00
C108   C     0.74992   0.24999   0.26043   0.00000  Uiso   1.00
C109   C     0.75000   0.02644   0.16667   0.00000  Uiso   1.00
C110   C     0.75000   0.47318   0.16667   0.00000  Uiso   1.00
C111   C     0.75004   0.24996   0.02182   0.00000  Uiso   1.00
C112   C     0.74996   0.24996   0.31151   0.00000  Uiso   1.00
C113   C     0.54728   0.29021   0.18352   0.00000  Uiso   1.00
C114   C     0.95307   0.21071   0.18365   0.00000  Uiso   1.00
C115   C     0.95272   0.29020   0.14977   0.00000  Uiso   1.00
C116   C     0.54693   0.21071   0.14968   0.00000  Uiso   1.00
C117   C     0.59326   0.29020   0.18319   0.00000  Uiso   1.00
C118   C     0.90712   0.21038   0.18305   0.00000  Uiso   1.00
C119   C     0.90673   0.29019   0.15010   0.00000  Uiso   1.00
C120   C     0.59288   0.21038   0.15029   0.00000  Uiso   1.00
C121   C     0.61605   0.25019   0.16674   0.00000  Uiso   1.00
C122   C     0.88395   0.25019   0.16658   0.00000  Uiso   1.00
C123   C     0.52407   0.25052   0.16658   0.00000  Uiso   1.00
C124   C     0.97593   0.25052   0.16673   0.00000  Uiso   1.00
H125   H     0.52988   0.32091   0.19740   0.00000  Uiso   1.00
H126   H     0.97073   0.18010   0.19758   0.00000  Uiso   1.00
H127   H     0.97011   0.32089   0.13587   0.00000  Uiso   1.00
H128   H     0.52928   0.18009   0.13577   0.00000  Uiso   1.00
N129   N     0.75000   0.12624   0.16667   0.00000  Uiso   1.00
N130   N     0.75000   0.37377   0.16667   0.00000  Uiso   1.00
O131   O     0.68453   0.28974   0.16667   0.00000  Uiso   1.00
O132   O     0.81547   0.21026   0.16666   0.00000  Uiso   1.00
O133   O     0.81547   0.28974   0.16666   0.00000  Uiso   1.00
O134   O     0.68453   0.21026   0.16667   0.00000  Uiso   1.00
O135   O     0.75000   0.28973   0.09511   0.00000  Uiso   1.00
O136   O     0.75000   0.21027   0.23822   0.00000  Uiso   1.00
O137   O     0.75000   0.28973   0.23822   0.00000  Uiso   1.00
O138   O     0.75000   0.21027   0.09511   0.00000  Uiso   1.00
Zn139  Zn    0.75000   0.30307   0.16667   0.00000  Uiso   1.00
Zn140  Zn    0.75000   0.19693   0.16667   0.00000  Uiso   1.00
O141   O     0.72118   0.12689   0.08343   0.00000  Uiso   1.00
C142   C     0.67653   0.11656   0.07054   0.00000  Uiso   1.00
H143   H     0.65488   0.11451   0.10441   0.00000  Uiso   1.00
H144   H     0.67490   0.08266   0.04976   0.00000  Uiso   1.00
C145   C     0.65892   0.15562   0.03627   0.00000  Uiso   1.00
H146   H     0.65998   0.18971   0.05669   0.00000  Uiso   1.00
H147   H     0.68055   0.15856   0.00264   0.00000  Uiso   1.00
C148   C     0.61117   0.14597   0.01921   0.00000  Uiso   1.00
H149   H     0.60955   0.11269   0.33076   0.00000  Uiso   1.00
H150   H     0.59942   0.17519   0.32817   0.00000  Uiso   1.00
H151   H     0.58875   0.14335   0.05215   0.00000  Uiso   1.00
O152   O     0.81409   0.37244   0.21899   0.00000  Uiso   1.00
C153   C     0.81025   0.37936   0.27135   0.00000  Uiso   1.00
H154   H     0.77540   0.37322   0.28409   0.00000  Uiso   1.00
H155   H     0.82062   0.41565   0.28178   0.00000  Uiso   1.00
C156   C     0.84094   0.34456   0.29842   0.00000  Uiso   1.00
H157   H     0.83191   0.30807   0.28744   0.00000  Uiso   1.00
H158   H     0.87596   0.35098   0.28694   0.00000  Uiso   1.00
C159   C     0.83751   0.34934   0.02205   0.00000  Uiso   1.00
H160   H     0.84818   0.38502   0.03412   0.00000  Uiso   1.00
H161   H     0.85939   0.32291   0.04048   0.00000  Uiso   1.00
H162   H     0.80274   0.34322   0.03432   0.00000  Uiso   1.00
O163   O     0.77881   0.12688   0.24991   0.00000  Uiso   1.00
C164   C     0.82346   0.11656   0.26280   0.00000  Uiso   1.00
H165   H     0.84512   0.11456   0.22893   0.00000  Uiso   1.00
H166   H     0.82511   0.08264   0.28353   0.00000  Uiso   1.00
C167   C     0.84105   0.15558   0.29713   0.00000  Uiso   1.00
H168   H     0.83996   0.18970   0.27676   0.00000  Uiso   1.00
H169   H     0.81942   0.15845   0.33076   0.00000  Uiso   1.00
C170   C     0.88881   0.14595   0.31417   0.00000  Uiso   1.00
H171   H     0.89046   0.11260   0.00251   0.00000  Uiso   1.00
H172   H     0.90051   0.17511   0.00531   0.00000  Uiso   1.00
H173   H     0.91123   0.14346   0.28123   0.00000  Uiso   1.00
O174   O     0.68591   0.37245   0.11434   0.00000  Uiso   1.00
C175   C     0.68977   0.37936   0.06198   0.00000  Uiso   1.00
H176   H     0.72463   0.37318   0.04925   0.00000  Uiso   1.00
H177   H     0.67946   0.41567   0.05154   0.00000  Uiso   1.00
C178   C     0.65905   0.34461   0.03490   0.00000  Uiso   1.00
H179   H     0.66802   0.30811   0.04590   0.00000  Uiso   1.00
H180   H     0.62403   0.35109   0.04635   0.00000  Uiso   1.00
C181   C     0.66252   0.34938   0.31127   0.00000  Uiso   1.00
H182   H     0.65197   0.38509   0.29918   0.00000  Uiso   1.00
H183   H     0.64057   0.32302   0.29282   0.00000  Uiso   1.00
H184   H     0.69728   0.34313   0.29902   0.00000  Uiso   1.00
H185   H     0.61093   0.32108   0.19644   0.00000  Uiso   1.00
H186   H     0.88980   0.17934   0.19595   0.00000  Uiso   1.00
H187   H     0.88907   0.32106   0.13685   0.00000  Uiso   1.00
H188   H     0.61021   0.17933   0.13741   0.00000  Uiso   1.00
H189   H     0.72533   0.03389   0.09088   0.00000  Uiso   1.00
H190   H     0.80909   0.46559   0.21273   0.00000  Uiso   1.00
H191   H     0.77466   0.03388   0.24246   0.00000  Uiso   1.00
H192   H     0.69091   0.46559   0.12061   0.00000  Uiso   1.00
C193   C     0.16393   0.75003   0.16668   0.00000  Uiso   1.00
C194   C     0.33607   0.75003   0.16665   0.00000  Uiso   1.00
C195   C     0.23422   0.60204   0.12566   0.00000  Uiso   1.00
C196   C     0.28134   0.89762   0.19408   0.00000  Uiso   1.00
C197   C     0.26578   0.60204   0.20768   0.00000  Uiso   1.00
C198   C     0.21866   0.89763   0.13926   0.00000  Uiso   1.00
C199   C     0.23523   0.55222   0.12476   0.00000  Uiso   1.00
C200   C     0.28244   0.94739   0.19329   0.00000  Uiso   1.00
C201   C     0.26477   0.55221   0.20857   0.00000  Uiso   1.00
C202   C     0.21756   0.94739   0.14005   0.00000  Uiso   1.00
C203   C     0.25007   0.74999   0.07290   0.00000  Uiso   1.00
C204   C     0.24992   0.74999   0.26043   0.00000  Uiso   1.00
C205   C     0.25000   0.52644   0.16667   0.00000  Uiso   1.00
C206   C     0.25000   0.97318   0.16667   0.00000  Uiso   1.00
C207   C     0.25004   0.74996   0.02182   0.00000  Uiso   1.00
C208   C     0.24996   0.74996   0.31151   0.00000  Uiso   1.00
C209   C     0.04728   0.79021   0.18352   0.00000  Uiso   1.00
C210   C     0.45307   0.71071   0.18365   0.00000  Uiso   1.00
C211   C     0.45272   0.79020   0.14977   0.00000  Uiso   1.00
C212   C     0.04693   0.71071   0.14968   0.00000  Uiso   1.00
C213   C     0.09326   0.79020   0.18319   0.00000  Uiso   1.00
C214   C     0.40712   0.71038   0.18305   0.00000  Uiso   1.00
C215   C     0.40673   0.79019   0.15010   0.00000  Uiso   1.00
C216   C     0.09288   0.71038   0.15029   0.00000  Uiso   1.00
C217   C     0.11605   0.75019   0.16674   0.00000  Uiso   1.00
C218   C     0.38395   0.75019   0.16658   0.00000  Uiso   1.00
C219   C     0.02407   0.75052   0.16658   0.00000  Uiso   1.00
C220   C     0.47593   0.75052   0.16673   0.00000  Uiso   1.00
H221   H     0.02988   0.82091   0.19740   0.00000  Uiso   1.00
H222   H     0.47073   0.68010   0.19758   0.00000  Uiso   1.00
H223   H     0.47011   0.82089   0.13587   0.00000  Uiso   1.00
H224   H     0.02928   0.68009   0.13577   0.00000  Uiso   1.00
N225   N     0.25000   0.62624   0.16667   0.00000  Uiso   1.00
N226   N     0.25000   0.87377   0.16667   0.00000  Uiso   1.00
O227   O     0.18453   0.78974   0.16667   0.00000  Uiso   1.00
O228   O     0.31547   0.71026   0.16666   0.00000  Uiso   1.00
O229   O     0.31547   0.78974   0.16666   0.00000  Uiso   1.00
O230   O     0.18453   0.71026   0.16667   0.00000  Uiso   1.00
O231   O     0.25000   0.78973   0.09511   0.00000  Uiso   1.00
O232   O     0.25000   0.71027   0.23822   0.00000  Uiso   1.00
O233   O     0.25000   0.78973   0.23822   0.00000  Uiso   1.00
O234   O     0.25000   0.71027   0.09511   0.00000  Uiso   1.00
Zn235  Zn    0.25000   0.80307   0.16667   0.00000  Uiso   1.00
Zn236  Zn    0.25000   0.69693   0.16667   0.00000  Uiso   1.00
O237   O     0.22118   0.62689   0.08343   0.00000  Uiso   1.00
C238   C     0.17653   0.61656   0.07054   0.00000  Uiso   1.00
H239   H     0.15488   0.61451   0.10441   0.00000  Uiso   1.00
H240   H     0.17490   0.58266   0.04976   0.00000  Uiso   1.00
C241   C     0.15892   0.65562   0.03627   0.00000  Uiso   1.00
H242   H     0.15998   0.68971   0.05669   0.00000  Uiso   1.00
H243   H     0.18055   0.65856   0.00264   0.00000  Uiso   1.00
C244   C     0.11117   0.64597   0.01921   0.00000  Uiso   1.00
H245   H     0.10955   0.61269   0.33076   0.00000  Uiso   1.00
H246   H     0.09942   0.67519   0.32817   0.00000  Uiso   1.00
H247   H     0.08875   0.64335   0.05215   0.00000  Uiso   1.00
O248   O     0.31409   0.87244   0.21899   0.00000  Uiso   1.00
C249   C     0.31025   0.87936   0.27135   0.00000  Uiso   1.00
H250   H     0.27540   0.87322   0.28409   0.00000  Uiso   1.00
H251   H     0.32062   0.91565   0.28178   0.00000  Uiso   1.00
C252   C     0.34094   0.84456   0.29842   0.00000  Uiso   1.00
H253   H     0.33191   0.80807   0.28744   0.00000  Uiso   1.00
H254   H     0.37596   0.85098   0.28694   0.00000  Uiso   1.00
C255   C     0.33751   0.84934   0.02205   0.00000  Uiso   1.00
H256   H     0.34818   0.88502   0.03412   0.00000  Uiso   1.00
H257   H     0.35939   0.82291   0.04048   0.00000  Uiso   1.00
H258   H     0.30274   0.84322   0.03432   0.00000  Uiso   1.00
O259   O     0.27881   0.62688   0.24991   0.00000  Uiso   1.00
C260   C     0.32346   0.61656   0.26280   0.00000  Uiso   1.00
H261   H     0.34512   0.61456   0.22893   0.00000  Uiso   1.00
H262   H     0.32511   0.58264   0.28353   0.00000  Uiso   1.00
C263   C     0.34105   0.65558   0.29713   0.00000  Uiso   1.00
H264   H     0.33996   0.68970   0.27676   0.00000  Uiso   1.00
H265   H     0.31942   0.65845   0.33076   0.00000  Uiso   1.00
C266   C     0.38881   0.64595   0.31417   0.00000  Uiso   1.00
H267   H     0.39046   0.61260   0.00251   0.00000  Uiso   1.00
H268   H     0.40051   0.67511   0.00531   0.00000  Uiso   1.00
H269   H     0.41123   0.64346   0.28123   0.00000  Uiso   1.00
O270   O     0.18591   0.87245   0.11434   0.00000  Uiso   1.00
C271   C     0.18977   0.87936   0.06198   0.00000  Uiso   1.00
H272   H     0.22463   0.87318   0.04925   0.00000  Uiso   1.00
H273   H     0.17946   0.91567   0.05154   0.00000  Uiso   1.00
C274   C     0.15905   0.84461   0.03490   0.00000  Uiso   1.00
H275   H     0.16802   0.80811   0.04590   0.00000  Uiso   1.00
H276   H     0.12403   0.85109   0.04635   0.00000  Uiso   1.00
C277   C     0.16252   0.84938   0.31127   0.00000  Uiso   1.00
H278   H     0.15197   0.88509   0.29918   0.00000  Uiso   1.00
H279   H     0.14057   0.82302   0.29282   0.00000  Uiso   1.00
H280   H     0.19728   0.84313   0.29902   0.00000  Uiso   1.00
H281   H     0.11093   0.82108   0.19644   0.00000  Uiso   1.00
H282   H     0.38980   0.67934   0.19595   0.00000  Uiso   1.00
H283   H     0.38907   0.82106   0.13685   0.00000  Uiso   1.00
H284   H     0.11021   0.67933   0.13741   0.00000  Uiso   1.00
H285   H     0.22533   0.53389   0.09088   0.00000  Uiso   1.00
H286   H     0.30909   0.96559   0.21273   0.00000  Uiso   1.00
H287   H     0.27466   0.53388   0.24246   0.00000  Uiso   1.00
H288   H     0.19091   0.96559   0.12061   0.00000  Uiso   1.00
C289   C     0.66393   0.75003   0.16668   0.00000  Uiso   1.00
C290   C     0.83607   0.75003   0.16665   0.00000  Uiso   1.00
C291   C     0.73422   0.60204   0.12566   0.00000  Uiso   1.00
C292   C     0.78134   0.89762   0.19408   0.00000  Uiso   1.00
C293   C     0.76578   0.60204   0.20768   0.00000  Uiso   1.00
C294   C     0.71866   0.89763   0.13926   0.00000  Uiso   1.00
C295   C     0.73523   0.55222   0.12476   0.00000  Uiso   1.00
C296   C     0.78244   0.94739   0.19329   0.00000  Uiso   1.00
C297   C     0.76477   0.55221   0.20857   0.00000  Uiso   1.00
C298   C     0.71756   0.94739   0.14005   0.00000  Uiso   1.00
C299   C     0.75007   0.74999   0.07290   0.00000  Uiso   1.00
C300   C     0.74992   0.74999   0.26043   0.00000  Uiso   1.00
C301   C     0.75000   0.52644   0.16667   0.00000  Uiso   1.00
C302   C     0.75000   0.97318   0.16667   0.00000  Uiso   1.00
C303   C     0.75004   0.74996   0.02182   0.00000  Uiso   1.00
C304   C     0.74996   0.74996   0.31151   0.00000  Uiso   1.00
C305   C     0.54728   0.79021   0.18352   0.00000  Uiso   1.00
C306   C     0.95307   0.71071   0.18365   0.00000  Uiso   1.00
C307   C     0.95272   0.79020   0.14977   0.00000  Uiso   1.00
C308   C     0.54693   0.71071   0.14968   0.00000  Uiso   1.00
C309   C     0.59326   0.79020   0.18319   0.00000  Uiso   1.00
C310   C     0.90712   0.71038   0.18305   0.00000  Uiso   1.00
C311   C     0.90673   0.79019   0.15010   0.00000  Uiso   1.00
C312   C     0.59288   0.71038   0.15029   0.00000  Uiso   1.00
C313   C     0.61605   0.75019   0.16674   0.00000  Uiso   1.00
C314   C     0.88395   0.75019   0.16658   0.00000  Uiso   1.00
C315   C     0.52407   0.75052   0.16658   0.00000  Uiso   1.00
C316   C     0.97593   0.75052   0.16673   0.00000  Uiso   1.00
H317   H     0.52988   0.82091   0.19740   0.00000  Uiso   1.00
H318   H     0.97073   0.68010   0.19758   0.00000  Uiso   1.00
H319   H     0.97011   0.82089   0.13587   0.00000  Uiso   1.00
H320   H     0.52928   0.68009   0.13577   0.00000  Uiso   1.00
N321   N     0.75000   0.62624   0.16667   0.00000  Uiso   1.00
N322   N     0.75000   0.87377   0.16667   0.00000  Uiso   1.00
O323   O     0.68453   0.78974   0.16667   0.00000  Uiso   1.00
O324   O     0.81547   0.71026   0.16666   0.00000  Uiso   1.00
O325   O     0.81547   0.78974   0.16666   0.00000  Uiso   1.00
O326   O     0.68453   0.71026   0.16667   0.00000  Uiso   1.00
O327   O     0.75000   0.78973   0.09511   0.00000  Uiso   1.00
O328   O     0.75000   0.71027   0.23822   0.00000  Uiso   1.00
O329   O     0.75000   0.78973   0.23822   0.00000  Uiso   1.00
O330   O     0.75000   0.71027   0.09511   0.00000  Uiso   1.00
Zn331  Zn    0.75000   0.80307   0.16667   0.00000  Uiso   1.00
Zn332  Zn    0.75000   0.69693   0.16667   0.00000  Uiso   1.00
O333   O     0.72118   0.62689   0.08343   0.00000  Uiso   1.00
C334   C     0.67653   0.61656   0.07054   0.00000  Uiso   1.00
H335   H     0.65488   0.61451   0.10441   0.00000  Uiso   1.00
H336   H     0.67490   0.58266   0.04976   0.00000  Uiso   1.00
C337   C     0.65892   0.65562   0.03627   0.00000  Uiso   1.00
H338   H     0.65998   0.68971   0.05669   0.00000  Uiso   1.00
H339   H     0.68055   0.65856   0.00264   0.00000  Uiso   1.00
C340   C     0.61117   0.64597   0.01921   0.00000  Uiso   1.00
H341   H     0.60955   0.61269   0.33076   0.00000  Uiso   1.00
H342   H     0.59942   0.67519   0.32817   0.00000  Uiso   1.00
H343   H     0.58875   0.64335   0.05215   0.00000  Uiso   1.00
O344   O     0.81409   0.87244   0.21899   0.00000  Uiso   1.00
C345   C     0.81025   0.87936   0.27135   0.00000  Uiso   1.00
H346   H     0.77540   0.87322   0.28409   0.00000  Uiso   1.00
H347   H     0.82062   0.91565   0.28178   0.00000  Uiso   1.00
C348   C     0.84094   0.84456   0.29842   0.00000  Uiso   1.00
H349   H     0.83191   0.80807   0.28744   0.00000  Uiso   1.00
H350   H     0.87596   0.85098   0.28694   0.00000  Uiso   1.00
C351   C     0.83751   0.84934   0.02205   0.00000  Uiso   1.00
H352   H     0.84818   0.88502   0.03412   0.00000  Uiso   1.00
H353   H     0.85939   0.82291   0.04048   0.00000  Uiso   1.00
H354   H     0.80274   0.84322   0.03432   0.00000  Uiso   1.00
O355   O     0.77881   0.62688   0.24991   0.00000  Uiso   1.00
C356   C     0.82346   0.61656   0.26280   0.00000  Uiso   1.00
H357   H     0.84512   0.61456   0.22893   0.00000  Uiso   1.00
H358   H     0.82511   0.58264   0.28353   0.00000  Uiso   1.00
C359   C     0.84105   0.65558   0.29713   0.00000  Uiso   1.00
H360   H     0.83996   0.68970   0.27676   0.00000  Uiso   1.00
H361   H     0.81942   0.65845   0.33076   0.00000  Uiso   1.00
C362   C     0.88881   0.64595   0.31417   0.00000  Uiso   1.00
H363   H     0.89046   0.61260   0.00251   0.00000  Uiso   1.00
H364   H     0.90051   0.67511   0.00531   0.00000  Uiso   1.00
H365   H     0.91123   0.64346   0.28123   0.00000  Uiso   1.00
O366   O     0.68591   0.87245   0.11434   0.00000  Uiso   1.00
C367   C     0.68977   0.87936   0.06198   0.00000  Uiso   1.00
H368   H     0.72463   0.87318   0.04925   0.00000  Uiso   1.00
H369   H     0.67946   0.91567   0.05154   0.00000  Uiso   1.00
C370   C     0.65905   0.84461   0.03490   0.00000  Uiso   1.00
H371   H     0.66802   0.80811   0.04590   0.00000  Uiso   1.00
H372   H     0.62403   0.85109   0.04635   0.00000  Uiso   1.00
C373   C     0.66252   0.84938   0.31127   0.00000  Uiso   1.00
H374   H     0.65197   0.88509   0.29918   0.00000  Uiso   1.00
H375   H     0.64057   0.82302   0.29282   0.00000  Uiso   1.00
H376   H     0.69728   0.84313   0.29902   0.00000  Uiso   1.00
H377   H     0.61093   0.82108   0.19644   0.00000  Uiso   1.00
H378   H     0.88980   0.67934   0.19595   0.00000  Uiso   1.00
H379   H     0.88907   0.82106   0.13685   0.00000  Uiso   1.00
H380   H     0.61021   0.67933   0.13741   0.00000  Uiso   1.00
H381   H     0.72533   0.53389   0.09088   0.00000  Uiso   1.00
H382   H     0.80909   0.96559   0.21273   0.00000  Uiso   1.00
H383   H     0.77466   0.53388   0.24246   0.00000  Uiso   1.00
H384   H     0.69091   0.96559   0.12061   0.00000  Uiso   1.00
C385   C     0.16393   0.25003   0.50002   0.00000  Uiso   1.00
C386   C     0.33607   0.25003   0.49998   0.00000  Uiso   1.00
C387   C     0.23422   0.10204   0.45899   0.00000  Uiso   1.00
C388   C     0.28134   0.39762   0.52741   0.00000  Uiso   1.00
C389   C     0.26578   0.10204   0.54101   0.00000  Uiso   1.00
C390   C     0.21866   0.39763   0.47259   0.00000  Uiso   1.00
C391   C     0.23523   0.05222   0.45809   0.00000  Uiso   1.00
C392   C     0.28244   0.44739   0.52662   0.00000  Uiso   1.00
C393   C     0.26477   0.05221   0.54191   0.00000  Uiso   1.00
C394   C     0.21756   0.44739   0.47338   0.00000  Uiso   1.00
C395   C     0.25007   0.24999   0.40624   0.00000  Uiso   1.00
C396   C     0.24992   0.24999   0.59376   0.00000  Uiso   1.00
C397   C     0.25000   0.02644   0.50000   0.00000  Uiso   1.00
C398   C     0.25000   0.47318   0.50000   0.00000  Uiso   1.00
C399   C     0.25004   0.24996   0.35515   0.00000  Uiso   1.00
C400   C     0.24996   0.24996   0.64485   0.00000  Uiso   1.00
C401   C     0.04728   0.29021   0.51685   0.00000  Uiso   1.00
C402   C     0.45307   0.21071   0.51698   0.00000  Uiso   1.00
C403   C     0.45272   0.29020   0.48310   0.00000  Uiso   1.00
C404   C     0.04693   0.21071   0.48302   0.00000  Uiso   1.00
C405   C     0.09326   0.29020   0.51653   0.00000  Uiso   1.00
C406   C     0.40712   0.21038   0.51638   0.00000  Uiso   1.00
C407   C     0.40673   0.29019   0.48344   0.00000  Uiso   1.00
C408   C     0.09288   0.21038   0.48362   0.00000  Uiso   1.00
C409   C     0.11605   0.25019   0.50008   0.00000  Uiso   1.00
C410   C     0.38395   0.25019   0.49991   0.00000  Uiso   1.00
C411   C     0.02407   0.25052   0.49991   0.00000  Uiso   1.00
C412   C     0.47593   0.25052   0.50006   0.00000  Uiso   1.00
H413   H     0.02988   0.32091   0.53074   0.00000  Uiso   1.00
H414   H     0.47073   0.18010   0.53091   0.00000  Uiso   1.00
H415   H     0.47011   0.32089   0.46920   0.00000  Uiso   1.00
H416   H     0.02928   0.18009   0.46910   0.00000  Uiso   1.00
N417   N     0.25000   0.12624   0.50000   0.00000  Uiso   1.00
N418   N     0.25000   0.37377   0.50000   0.00000  Uiso   1.00
O419   O     0.18453   0.28974   0.50000   0.00000  Uiso   1.00
O420   O     0.31547   0.21026   0.50000   0.00000  Uiso   1.00
O421   O     0.31547   0.28974   0.50000   0.00000  Uiso   1.00
O422   O     0.18453   0.21026   0.50000   0.00000  Uiso   1.00
O423   O     0.25000   0.28973   0.42845   0.00000  Uiso   1.00
O424   O     0.25000   0.21027   0.57155   0.00000  Uiso   1.00
O425   O     0.25000   0.28973   0.57155   0.00000  Uiso   1.00
O426   O     0.25000   0.21027   0.42845   0.00000  Uiso   1.00
Zn427  Zn    0.25000   0.30307   0.50000   0.00000  Uiso   1.00
Zn428  Zn    0.25000   0.19693   0.50000   0.00000  Uiso   1.00
O429   O     0.22118   0.12689   0.41676   0.00000  Uiso   1.00
C430   C     0.17653   0.11656   0.40387   0.00000  Uiso   1.00
H431   H     0.15488   0.11451   0.43775   0.00000  Uiso   1.00
H432   H     0.17490   0.08266   0.38310   0.00000  Uiso   1.00
C433   C     0.15892   0.15562   0.36961   0.00000  Uiso   1.00
H434   H     0.15998   0.18971   0.39002   0.00000  Uiso   1.00
H435   H     0.18055   0.15856   0.33598   0.00000  Uiso   1.00
C436   C     0.11117   0.14597   0.35255   0.00000  Uiso   1.00
H437   H     0.10955   0.11269   0.66410   0.00000  Uiso   1.00
H438   H     0.09942   0.17519   0.66151   0.00000  Uiso   1.00
H439   H     0.08875   0.14335   0.38548   0.00000  Uiso   1.00
O440   O     0.31409   0.37244   0.55232   0.00000  Uiso   1.00
C441   C     0.31025   0.37936   0.60469   0.00000  Uiso   1.00
H442   H     0.27540   0.37322   0.61742   0.00000  Uiso   1.00
H443   H     0.32062   0.41565   0.61511   0.00000  Uiso   1.00
C444   C     0.34094   0.34456   0.63175   0.00000  Uiso   1.00
H445   H     0.33191   0.30807   0.62077   0.00000  Uiso   1.00
H446   H     0.37596   0.35098   0.62027   0.00000  Uiso   1.00
C447   C     0.33751   0.34934   0.35538   0.00000  Uiso   1.00
H448   H     0.34818   0.38502   0.36746   0.00000  Uiso   1.00
H449   H     0.35939   0.32291   0.37382   0.00000  Uiso   1.00
H450   H     0.30274   0.34322   0.36765   0.00000  Uiso   1.00
O451   O     0.27881   0.12688   0.58324   0.00000  Uiso   1.00
C452   C     0.32346   0.11656   0.59613   0.00000  Uiso   1.00
H453   H     0.34512   0.11456   0.56226   0.00000  Uiso   1.00
H454   H     0.32511   0.08264   0.61686   0.00000  Uiso   1.00
C455   C     0.34105   0.15558   0.63046   0.00000  Uiso   1.00
H456   H     0.33996   0.18970   0.61010   0.00000  Uiso   1.00
H457   H     0.31942   0.15845   0.66410   0.00000  Uiso   1.00
C458   C     0.38881   0.14595   0.64750   0.00000  Uiso   1.00
H459   H     0.39046   0.11260   0.33584   0.00000  Uiso   1.00
H460   H     0.40051   0.17511   0.33865   0.00000  Uiso   1.00
H461   H     0.41123   0.14346   0.61456   0.00000  Uiso   1.00
O462   O     0.18591   0.37245   0.44767   0.00000  Uiso   1.00
C463   C     0.18977   0.37936   0.39531   0.00000  Uiso   1.00
H464   H     0.22463   0.37318   0.38259   0.00000  Uiso   1.00
H465   H     0.17946   0.41567   0.38488   0.00000  Uiso   1.00
C466   C     0.15905   0.34461   0.36823   0.00000  Uiso   1.00
H467   H     0.16802   0.30811   0.37923   0.00000  Uiso   1.00
H468   H     0.12403   0.35109   0.37969   0.00000  Uiso   1.00
C469   C     0.16252   0.34938   0.64460   0.00000  Uiso   1.00
H470   H     0.15197   0.38509   0.63252   0.00000  Uiso   1.00
H471   H     0.14057   0.32302   0.62616   0.00000  Uiso   1.00
H472   H     0.19728   0.34313   0.63236   0.00000  Uiso   1.00
H473   H     0.11093   0.32108   0.52977   0.00000  Uiso   1.00
H474   H     0.38980   0.17934   0.52929   0.00000  Uiso   1.00
H475   H     0.38907   0.32106   0.47018   0.00000  Uiso   1.00
H476   H     0.11021   0.17933   0.47074   0.00000  Uiso   1.00
H477   H     0.22533   0.03389   0.42421   0.00000  Uiso   1.00
H478   H     0.30909   0.46559   0.54606   0.00000  Uiso   1.00
H479   H     0.27466   0.03388   0.57579   0.00000  Uiso   1.00
H480   H     0.19091   0.46559   0.45395   0.00000  Uiso   1.00
C481   C     0.66393   0.25003   0.50002   0.00000  Uiso   1.00
C482   C     0.83607   0.25003   0.49998   0.00000  Uiso   1.00
C483   C     0.73422   0.10204   0.45899   0.00000  Uiso   1.00
C484   C     0.78134   0.39762   0.52741   0.00000  Uiso   1.00
C485   C     0.76578   0.10204   0.54101   0.00000  Uiso   1.00
C486   C     0.71866   0.39763   0.47259   0.00000  Uiso   1.00
C487   C     0.73523   0.05222   0.45809   0.00000  Uiso   1.00
C488   C     0.78244   0.44739   0.52662   0.00000  Uiso   1.00
C489   C     0.76477   0.05221   0.54191   0.00000  Uiso   1.00
C490   C     0.71756   0.44739   0.47338   0.00000  Uiso   1.00
C491   C     0.75007   0.24999   0.40624   0.00000  Uiso   1.00
C492   C     0.74992   0.24999   0.59376   0.00000  Uiso   1.00
C493   C     0.75000   0.02644   0.50000   0.00000  Uiso   1.00
C494   C     0.75000   0.47318   0.50000   0.00000  Uiso   1.00
C495   C     0.75004   0.24996   0.35515   0.00000  Uiso   1.00
C496   C     0.74996   0.24996   0.64485   0.00000  Uiso   1.00
C497   C     0.54728   0.29021   0.51685   0.00000  Uiso   1.00
C498   C     0.95307   0.21071   0.51698   0.00000  Uiso   1.00
C499   C     0.95272   0.29020   0.48310   0.00000  Uiso   1.00
C500   C     0.54693   0.21071   0.48302   0.00000  Uiso   1.00
C501   C     0.59326   0.29020   0.51653   0.00000  Uiso   1.00
C502   C     0.90712   0.21038   0.51638   0.00000  Uiso   1.00
C503   C     0.90673   0.29019   0.48344   0.00000  Uiso   1.00
C504   C     0.59288   0.21038   0.48362   0.00000  Uiso   1.00
C505   C     0.61605   0.25019   0.50008   0.00000  Uiso   1.00
C506   C     0.88395   0.25019   0.49991   0.00000  Uiso   1.00
C507   C     0.52407   0.25052   0.49991   0.00000  Uiso   1.00
C508   C     0.97593   0.25052   0.50006   0.00000  Uiso   1.00
H509   H     0.52988   0.32091   0.53074   0.00000  Uiso   1.00
H510   H     0.97073   0.18010   0.53091   0.00000  Uiso   1.00
H511   H     0.97011   0.32089   0.46920   0.00000  Uiso   1.00
H512   H     0.52928   0.18009   0.46910   0.00000  Uiso   1.00
N513   N     0.75000   0.12624   0.50000   0.00000  Uiso   1.00
N514   N     0.75000   0.37377   0.50000   0.00000  Uiso   1.00
O515   O     0.68453   0.28974   0.50000   0.00000  Uiso   1.00
O516   O     0.81547   0.21026   0.50000   0.00000  Uiso   1.00
O517   O     0.81547   0.28974   0.50000   0.00000  Uiso   1.00
O518   O     0.68453   0.21026   0.50000   0.00000  Uiso   1.00
O519   O     0.75000   0.28973   0.42845   0.00000  Uiso   1.00
O520   O     0.75000   0.21027   0.57155   0.00000  Uiso   1.00
O521   O     0.75000   0.28973   0.57155   0.00000  Uiso   1.00
O522   O     0.75000   0.21027   0.42845   0.00000  Uiso   1.00
Zn523  Zn    0.75000   0.30307   0.50000   0.00000  Uiso   1.00
Zn524  Zn    0.75000   0.19693   0.50000   0.00000  Uiso   1.00
O525   O     0.72118   0.12689   0.41676   0.00000  Uiso   1.00
C526   C     0.67653   0.11656   0.40387   0.00000  Uiso   1.00
H527   H     0.65488   0.11451   0.43775   0.00000  Uiso   1.00
H528   H     0.67490   0.08266   0.38310   0.00000  Uiso   1.00
C529   C     0.65892   0.15562   0.36961   0.00000  Uiso   1.00
H530   H     0.65998   0.18971   0.39002   0.00000  Uiso   1.00
H531   H     0.68055   0.15856   0.33598   0.00000  Uiso   1.00
C532   C     0.61117   0.14597   0.35255   0.00000  Uiso   1.00
H533   H     0.60955   0.11269   0.66410   0.00000  Uiso   1.00
H534   H     0.59942   0.17519   0.66151   0.00000  Uiso   1.00
H535   H     0.58875   0.14335   0.38548   0.00000  Uiso   1.00
O536   O     0.81409   0.37244   0.55232   0.00000  Uiso   1.00
C537   C     0.81025   0.37936   0.60469   0.00000  Uiso   1.00
H538   H     0.77540   0.37322   0.61742   0.00000  Uiso   1.00
H539   H     0.82062   0.41565   0.61511   0.00000  Uiso   1.00
C540   C     0.84094   0.34456   0.63175   0.00000  Uiso   1.00
H541   H     0.83191   0.30807   0.62077   0.00000  Uiso   1.00
H542   H     0.87596   0.35098   0.62027   0.00000  Uiso   1.00
C543   C     0.83751   0.34934   0.35538   0.00000  Uiso   1.00
H544   H     0.84818   0.38502   0.36746   0.00000  Uiso   1.00
H545   H     0.85939   0.32291   0.37382   0.00000  Uiso   1.00
H546   H     0.80274   0.34322   0.36765   0.00000  Uiso   1.00
O547   O     0.77881   0.12688   0.58324   0.00000  Uiso   1.00
C548   C     0.82346   0.11656   0.59613   0.00000  Uiso   1.00
H549   H     0.84512   0.11456   0.56226   0.00000  Uiso   1.00
H550   H     0.82511   0.08264   0.61686   0.00000  Uiso   1.00
C551   C     0.84105   0.15558   0.63046   0.00000  Uiso   1.00
H552   H     0.83996   0.18970   0.61010   0.00000  Uiso   1.00
H553   H     0.81942   0.15845   0.66410   0.00000  Uiso   1.00
C554   C     0.88881   0.14595   0.64750   0.00000  Uiso   1.00
H555   H     0.89046   0.11260   0.33584   0.00000  Uiso   1.00
H556   H     0.90051   0.17511   0.33865   0.00000  Uiso   1.00
H557   H     0.91123   0.14346   0.61456   0.00000  Uiso   1.00
O558   O     0.68591   0.37245   0.44767   0.00000  Uiso   1.00
C559   C     0.68977   0.37936   0.39531   0.00000  Uiso   1.00
H560   H     0.72463   0.37318   0.38259   0.00000  Uiso   1.00
H561   H     0.67946   0.41567   0.38488   0.00000  Uiso   1.00
C562   C     0.65905   0.34461   0.36823   0.00000  Uiso   1.00
H563   H     0.66802   0.30811   0.37923   0.00000  Uiso   1.00
H564   H     0.62403   0.35109   0.37969   0.00000  Uiso   1.00
C565   C     0.66252   0.34938   0.64460   0.00000  Uiso   1.00
H566   H     0.65197   0.38509   0.63252   0.00000  Uiso   1.00
H567   H     0.64057   0.32302   0.62616   0.00000  Uiso   1.00
H568   H     0.69728   0.34313   0.63236   0.00000  Uiso   1.00
H569   H     0.61093   0.32108   0.52977   0.00000  Uiso   1.00
H570   H     0.88980   0.17934   0.52929   0.00000  Uiso   1.00
H571   H     0.88907   0.32106   0.47018   0.00000  Uiso   1.00
H572   H     0.61021   0.17933   0.47074   0.00000  Uiso   1.00
H573   H     0.72533   0.03389   0.42421   0.00000  Uiso   1.00
H574   H     0.80909   0.46559   0.54606   0.00000  Uiso   1.00
H575   H     0.77466   0.03388   0.57579   0.00000  Uiso   1.00
H576   H     0.69091   0.46559   0.45395   0.00000  Uiso   1.00
C577   C     0.16393   0.75003   0.50002   0.00000  Uiso   1.00
C578   C     0.33607   0.75003   0.49998   0.00000  Uiso   1.00
C579   C     0.23422   0.60204   0.45899   0.00000  Uiso   1.00
C580   C     0.28134   0.89762   0.52741   0.00000  Uiso   1.00
C581   C     0.26578   0.60204   0.54101   0.00000  Uiso   1.00
C582   C     0.21866   0.89763   0.47259   0.00000  Uiso   1.00
C583   C     0.23523   0.55222   0.45809   0.00000  Uiso   1.00
C584   C     0.28244   0.94739   0.52662   0.00000  Uiso   1.00
C585   C     0.26477   0.55221   0.54191   0.00000  Uiso   1.00
C586   C     0.21756   0.94739   0.47338   0.00000  Uiso   1.00
C587   C     0.25007   0.74999   0.40624   0.00000  Uiso   1.00
C588   C     0.24992   0.74999   0.59376   0.00000  Uiso   1.00
C589   C     0.25000   0.52644   0.50000   0.00000  Uiso   1.00
C590   C     0.25000   0.97318   0.50000   0.00000  Uiso   1.00
C591   C     0.25004   0.74996   0.35515   0.00000  Uiso   1.00
C592   C     0.24996   0.74996   0.64485   0.00000  Uiso   1.00
C593   C     0.04728   0.79021   0.51685   0.00000  Uiso   1.00
C594   C     0.45307   0.71071   0.51698   0.00000  Uiso   1.00
C595   C     0.45272   0.79020   0.48310   0.00000  Uiso   1.00
C596   C     0.04693   0.71071   0.48302   0.00000  Uiso   1.00
C597   C     0.09326   0.79020   0.51653   0.00000  Uiso   1.00
C598   C     0.40712   0.71038   0.51638   0.00000  Uiso   1.00
C599   C     0.40673   0.79019   0.48344   0.00000  Uiso   1.00
C600   C     0.09288   0.71038   0.48362   0.00000  Uiso   1.00
C601   C     0.11605   0.75019   0.50008   0.00000  Uiso   1.00
C602   C     0.38395   0.75019   0.49991   0.00000  Uiso   1.00
C603   C     0.02407   0.75052   0.49991   0.00000  Uiso   1.00
C604   C     0.47593   0.75052   0.50006   0.00000  Uiso   1.00
H605   H     0.02988   0.82091   0.53074   0.00000  Uiso   1.00
H606   H     0.47073   0.68010   0.53091   0.00000  Uiso   1.00
H607   H     0.47011   0.82089   0.46920   0.00000  Uiso   1.00
H608   H     0.02928   0.68009   0.46910   0.00000  Uiso   1.00
N609   N     0.25000   0.62624   0.50000   0.00000  Uiso   1.00
N610   N     0.25000   0.87377   0.50000   0.00000  Uiso   1.00
O611   O     0.18453   0.78974   0.50000   0.00000  Uiso   1.00
O612   O     0.31547   0.71026   0.50000   0.00000  Uiso   1.00
O613   O     0.31547   0.78974   0.50000   0.00000  Uiso   1.00
O614   O     0.18453   0.71026   0.50000   0.00000  Uiso   1.00
O615   O     0.25000   0.78973   0.42845   0.00000  Uiso   1.00
O616   O     0.25000   0.71027   0.57155   0.00000  Uiso   1.00
O617   O     0.25000   0.78973   0.57155   0.00000  Uiso   1.00
O618   O     0.25000   0.71027   0.42845   0.00000  Uiso   1.00
Zn619  Zn    0.25000   0.80307   0.50000   0.00000  Uiso   1.00
Zn620  Zn    0.25000   0.69693   0.50000   0.00000  Uiso   1.00
O621   O     0.22118   0.62689   0.41676   0.00000  Uiso   1.00
C622   C     0.17653   0.61656   0.40387   0.00000  Uiso   1.00
H623   H     0.15488   0.61451   0.43775   0.00000  Uiso   1.00
H624   H     0.17490   0.58266   0.38310   0.00000  Uiso   1.00
C625   C     0.15892   0.65562   0.36961   0.00000  Uiso   1.00
H626   H     0.15998   0.68971   0.39002   0.00000  Uiso   1.00
H627   H     0.18055   0.65856   0.33598   0.00000  Uiso   1.00
C628   C     0.11117   0.64597   0.35255   0.00000  Uiso   1.00
H629   H     0.10955   0.61269   0.66410   0.00000  Uiso   1.00
H630   H     0.09942   0.67519   0.66151   0.00000  Uiso   1.00
H631   H     0.08875   0.64335   0.38548   0.00000  Uiso   1.00
O632   O     0.31409   0.87244   0.55232   0.00000  Uiso   1.00
C633   C     0.31025   0.87936   0.60469   0.00000  Uiso   1.00
H634   H     0.27540   0.87322   0.61742   0.00000  Uiso   1.00
H635   H     0.32062   0.91565   0.61511   0.00000  Uiso   1.00
C636   C     0.34094   0.84456   0.63175   0.00000  Uiso   1.00
H637   H     0.33191   0.80807   0.62077   0.00000  Uiso   1.00
H638   H     0.37596   0.85098   0.62027   0.00000  Uiso   1.00
C639   C     0.33751   0.84934   0.35538   0.00000  Uiso   1.00
H640   H     0.34818   0.88502   0.36746   0.00000  Uiso   1.00
H641   H     0.35939   0.82291   0.37382   0.00000  Uiso   1.00
H642   H     0.30274   0.84322   0.36765   0.00000  Uiso   1.00
O643   O     0.27881   0.62688   0.58324   0.00000  Uiso   1.00
C644   C     0.32346   0.61656   0.59613   0.00000  Uiso   1.00
H645   H     0.34512   0.61456   0.56226   0.00000  Uiso   1.00
H646   H     0.32511   0.58264   0.61686   0.00000  Uiso   1.00
C647   C     0.34105   0.65558   0.63046   0.00000  Uiso   1.00
H648   H     0.33996   0.68970   0.61010   0.00000  Uiso   1.00
H649   H     0.31942   0.65845   0.66410   0.00000  Uiso   1.00
C650   C     0.38881   0.64595   0.64750   0.00000  Uiso   1.00
H651   H     0.39046   0.61260   0.33584   0.00000  Uiso   1.00
H652   H     0.40051   0.67511   0.33865   0.00000  Uiso   1.00
H653   H     0.41123   0.64346   0.61456   0.00000  Uiso   1.00
O654   O     0.18591   0.87245   0.44767   0.00000  Uiso   1.00
C655   C     0.18977   0.87936   0.39531   0.00000  Uiso   1.00
H656   H     0.22463   0.87318   0.38259   0.00000  Uiso   1.00
H657   H     0.17946   0.91567   0.38488   0.00000  Uiso   1.00
C658   C     0.15905   0.84461   0.36823   0.00000  Uiso   1.00
H659   H     0.16802   0.80811   0.37923   0.00000  Uiso   1.00
H660   H     0.12403   0.85109   0.37969   0.00000  Uiso   1.00
C661   C     0.16252   0.84938   0.64460   0.00000  Uiso   1.00
H662   H     0.15197   0.88509   0.63252   0.00000  Uiso   1.00
H663   H     0.14057   0.82302   0.62616   0.00000  Uiso   1.00
H664   H     0.19728   0.84313   0.63236   0.00000  Uiso   1.00
H665   H     0.11093   0.82108   0.52977   0.00000  Uiso   1.00
H666   H     0.38980   0.67934   0.52929   0.00000  Uiso   1.00
H667   H     0.38907   0.82106   0.47018   0.00000  Uiso   1.00
H668   H     0.11021   0.67933   0.47074   0.00000  Uiso   1.00
H669   H     0.22533   0.53389   0.42421   0.00000  Uiso   1.00
H670   H     0.30909   0.96559   0.54606   0.00000  Uiso   1.00
H671   H     0.27466   0.53388   0.57579   0.00000  Uiso   1.00
H672   H     0.19091   0.96559   0.45395   0.00000  Uiso   1.00
C673   C     0.66393   0.75003   0.50002   0.00000  Uiso   1.00
C674   C     0.83607   0.75003   0.49998   0.00000  Uiso   1.00
C675   C     0.73422   0.60204   0.45899   0.00000  Uiso   1.00
C676   C     0.78134   0.89762   0.52741   0.00000  Uiso   1.00
C677   C     0.76578   0.60204   0.54101   0.00000  Uiso   1.00
C678   C     0.71866   0.89763   0.47259   0.00000  Uiso   1.00
C679   C     0.73523   0.55222   0.45809   0.00000  Uiso   1.00
C680   C     0.78244   0.94739   0.52662   0.00000  Uiso   1.00
C681   C     0.76477   0.55221   0.54191   0.00000  Uiso   1.00
C682   C     0.71756   0.94739   0.47338   0.00000  Uiso   1.00
C683   C     0.75007   0.74999   0.40624   0.00000  Uiso   1.00
C684   C     0.74992   0.74999   0.59376   0.00000  Uiso   1.00
C685   C     0.75000   0.52644   0.50000   0.00000  Uiso   1.00
C686   C     0.75000   0.97318   0.50000   0.00000  Uiso   1.00
C687   C     0.75004   0.74996   0.35515   0.00000  Uiso   1.00
C688   C     0.74996   0.74996   0.64485   0.00000  Uiso   1.00
C689   C     0.54728   0.79021   0.51685   0.00000  Uiso   1.00
C690   C     0.95307   0.71071   0.51698   0.00000  Uiso   1.00
C691   C     0.95272   0.79020   0.48310   0.00000  Uiso   1.00
C692   C     0.54693   0.71071   0.48302   0.00000  Uiso   1.00
C693   C     0.59326   0.79020   0.51653   0.00000  Uiso   1.00
C694   C     0.90712   0.71038   0.51638   0.00000  Uiso   1.00
C695   C     0.90673   0.79019   0.48344   0.00000  Uiso   1.00
C696   C     0.59288   0.71038   0.48362   0.00000  Uiso   1.00
C697   C     0.61605   0.75019   0.50008   0.00000  Uiso   1.00
C698   C     0.88395   0.75019   0.49991   0.00000  Uiso   1.00
C699   C     0.52407   0.75052   0.49991   0.00000  Uiso   1.00
C700   C     0.97593   0.75052   0.50006   0.00000  Uiso   1.00
H701   H     0.52988   0.82091   0.53074   0.00000  Uiso   1.00
H702   H     0.97073   0.68010   0.53091   0.00000  Uiso   1.00
H703   H     0.97011   0.82089   0.46920   0.00000  Uiso   1.00
H704   H     0.52928   0.68009   0.46910   0.00000  Uiso   1.00
N705   N     0.75000   0.62624   0.50000   0.00000  Uiso   1.00
N706   N     0.75000   0.87377   0.50000   0.00000  Uiso   1.00
O707   O     0.68453   0.78974   0.50000   0.00000  Uiso   1.00
O708   O     0.81547   0.71026   0.50000   0.00000  Uiso   1.00
O709   O     0.81547   0.78974   0.50000   0.00000  Uiso   1.00
O710   O     0.68453   0.71026   0.50000   0.00000  Uiso   1.00
O711   O     0.75000   0.78973   0.42845   0.00000  Uiso   1.00
O712   O     0.75000   0.71027   0.57155   0.00000  Uiso   1.00
O713   O     0.75000   0.78973   0.57155   0.00000  Uiso   1.00
O714   O     0.75000   0.71027   0.42845   0.00000  Uiso   1.00
Zn715  Zn    0.75000   0.80307   0.50000   0.00000  Uiso   1.00
Zn716  Zn    0.75000   0.69693   0.50000   0.00000  Uiso   1.00
O717   O     0.72118   0.62689   0.41676   0.00000  Uiso   1.00
C718   C     0.67653   0.61656   0.40387   0.00000  Uiso   1.00
H719   H     0.65488   0.61451   0.43775   0.00000  Uiso   1.00
H720   H     0.67490   0.58266   0.38310   0.00000  Uiso   1.00
C721   C     0.65892   0.65562   0.36961   0.00000  Uiso   1.00
H722   H     0.65998   0.68971   0.39002   0.00000  Uiso   1.00
H723   H     0.68055   0.65856   0.33598   0.00000  Uiso   1.00
C724   C     0.61117   0.64597   0.35255   0.00000  Uiso   1.00
H725   H     0.60955   0.61269   0.66410   0.00000  Uiso   1.00
H726   H     0.59942   0.67519   0.66151   0.00000  Uiso   1.00
H727   H     0.58875   0.64335   0.38548   0.00000  Uiso   1.00
O728   O     0.81409   0.87244   0.55232   0.00000  Uiso   1.00
C729   C     0.81025   0.87936   0.60469   0.00000  Uiso   1.00
H730   H     0.77540   0.87322   0.61742   0.00000  Uiso   1.00
H731   H     0.82062   0.91565   0.61511   0.00000  Uiso   1.00
C732   C     0.84094   0.84456   0.63175   0.00000  Uiso   1.00
H733   H     0.83191   0.80807   0.62077   0.00000  Uiso   1.00
H734   H     0.87596   0.85098   0.62027   0.00000  Uiso   1.00
C735   C     0.83751   0.84934   0.35538   0.00000  Uiso   1.00
H736   H     0.84818   0.88502   0.36746   0.00000  Uiso   1.00
H737   H     0.85939   0.82291   0.37382   0.00000  Uiso   1.00
H738   H     0.80274   0.84322   0.36765   0.00000  Uiso   1.00
O739   O     0.77881   0.62688   0.58324   0.00000  Uiso   1.00
C740   C     0.82346   0.61656   0.59613   0.00000  Uiso   1.00
H741   H     0.84512   0.61456   0.56226   0.00000  Uiso   1.00
H742   H     0.82511   0.58264   0.61686   0.00000  Uiso   1.00
C743   C     0.84105   0.65558   0.63046   0.00000  Uiso   1.00
H744   H     0.83996   0.68970   0.61010   0.00000  Uiso   1.00
H745   H     0.81942   0.65845   0.66410   0.00000  Uiso   1.00
C746   C     0.88881   0.64595   0.64750   0.00000  Uiso   1.00
H747   H     0.89046   0.61260   0.33584   0.00000  Uiso   1.00
H748   H     0.90051   0.67511   0.33865   0.00000  Uiso   1.00
H749   H     0.91123   0.64346   0.61456   0.00000  Uiso   1.00
O750   O     0.68591   0.87245   0.44767   0.00000  Uiso   1.00
C751   C     0.68977   0.87936   0.39531   0.00000  Uiso   1.00
H752   H     0.72463   0.87318   0.38259   0.00000  Uiso   1.00
H753   H     0.67946   0.91567   0.38488   0.00000  Uiso   1.00
C754   C     0.65905   0.84461   0.36823   0.00000  Uiso   1.00
H755   H     0.66802   0.80811   0.37923   0.00000  Uiso   1.00
H756   H     0.62403   0.85109   0.37969   0.00000  Uiso   1.00
C757   C     0.66252   0.84938   0.64460   0.00000  Uiso   1.00
H758   H     0.65197   0.88509   0.63252   0.00000  Uiso   1.00
H759   H     0.64057   0.82302   0.62616   0.00000  Uiso   1.00
H760   H     0.69728   0.84313   0.63236   0.00000  Uiso   1.00
H761   H     0.61093   0.82108   0.52977   0.00000  Uiso   1.00
H762   H     0.88980   0.67934   0.52929   0.00000  Uiso   1.00
H763   H     0.88907   0.82106   0.47018   0.00000  Uiso   1.00
H764   H     0.61021   0.67933   0.47074   0.00000  Uiso   1.00
H765   H     0.72533   0.53389   0.42421   0.00000  Uiso   1.00
H766   H     0.80909   0.96559   0.54606   0.00000  Uiso   1.00
H767   H     0.77466   0.53388   0.57579   0.00000  Uiso   1.00
H768   H     0.69091   0.96559   0.45395   0.00000  Uiso   1.00
C769   C     0.16393   0.25003   0.83335   0.00000  Uiso   1.00
C770   C     0.33607   0.25003   0.83331   0.00000  Uiso   1.00
C771   C     0.23422   0.10204   0.79232   0.00000  Uiso   1.00
C772   C     0.28134   0.39762   0.86075   0.00000  Uiso   1.00
C773   C     0.26578   0.10204   0.87434   0.00000  Uiso   1.00
C774   C     0.21866   0.39763   0.80592   0.00000  Uiso   1.00
C775   C     0.23523   0.05222   0.79143   0.00000  Uiso   1.00
C776   C     0.28244   0.44739   0.85996   0.00000  Uiso   1.00
C777   C     0.26477   0.05221   0.87524   0.00000  Uiso   1.00
C778   C     0.21756   0.44739   0.80671   0.00000  Uiso   1.00
C779   C     0.25007   0.24999   0.73957   0.00000  Uiso   1.00
C780   C     0.24992   0.24999   0.92710   0.00000  Uiso   1.00
C781   C     0.25000   0.02644   0.83333   0.00000  Uiso   1.00
C782   C     0.25000   0.47318   0.83334   0.00000  Uiso   1.00
C783   C     0.25004   0.24996   0.68849   0.00000  Uiso   1.00
C784   C     0.24996   0.24996   0.97818   0.00000  Uiso   1.00
C785   C     0.04728   0.29021   0.85018   0.00000  Uiso   1.00
C786   C     0.45307   0.21071   0.85032   0.00000  Uiso   1.00
C787   C     0.45272   0.29020   0.81644   0.00000  Uiso   1.00
C788   C     0.04693   0.21071   0.81635   0.00000  Uiso   1.00
C789   C     0.09326   0.29020   0.84986   0.00000  Uiso   1.00
C790   C     0.40712   0.21038   0.84972   0.00000  Uiso   1.00
C791   C     0.40673   0.29019   0.81677   0.00000  Uiso   1.00
C792   C     0.09288   0.21038   0.81696   0.00000  Uiso   1.00
C793   C     0.11605   0.25019   0.83341   0.00000  Uiso   1.00
C794   C     0.38395   0.25019   0.83325   0.00000  Uiso   1.00
C795   C     0.02407   0.25052   0.83325   0.00000  Uiso   1.00
C796   C     0.47593   0.25052   0.83339   0.00000  Uiso   1.00
H797   H     0.02988   0.32091   0.86407   0.00000  Uiso   1.00
H798   H     0.47073   0.18010   0.86425   0.00000  Uiso   1.00
H799   H     0.47011   0.32089   0.80253   0.00000  Uiso   1.00
H800   H     0.02928   0.18009   0.80243   0.00000  Uiso   1.00
N801   N     0.25000   0.12624   0.83333   0.00000  Uiso   1.00
N802   N     0.25000   0.37377   0.83333   0.00000  Uiso   1.00
O803   O     0.18453   0.28974   0.83334   0.00000  Uiso   1.00
O804   O     0.31547   0.21026   0.83333   0.00000  Uiso   1.00
O805   O     0.31547   0.28974   0.83333   0.00000  Uiso   1.00
O806   O     0.18453   0.21026   0.83334   0.00000  Uiso   1.00
O807   O     0.25000   0.28973   0.76178   0.00000  Uiso   1.00
O808   O     0.25000   0.21027   0.90489   0.00000  Uiso   1.00
O809   O     0.25000   0.28973   0.90489   0.00000  Uiso   1.00
O810   O     0.25000   0.21027   0.76178   0.00000  Uiso   1.00
Zn811  Zn    0.25000   0.30307   0.83333   0.00000  Uiso   1.00
Zn812  Zn    0.25000   0.19693   0.83333   0.00000  Uiso   1.00
O813   O     0.22118   0.12689   0.75010   0.00000  Uiso   1.00
C814   C     0.17653   0.11656   0.73721   0.00000  Uiso   1.00
H815   H     0.15488   0.11451   0.77108   0.00000  Uiso   1.00
H816   H     0.17490   0.08266   0.71643   0.00000  Uiso   1.00
C817   C     0.15892   0.15562   0.70294   0.00000  Uiso   1.00
H818   H     0.15998   0.18971   0.72336   0.00000  Uiso   1.00
H819   H     0.18055   0.15856   0.66931   0.00000  Uiso   1.00
C820   C     0.11117   0.14597   0.68588   0.00000  Uiso   1.00
H821   H     0.10955   0.11269   0.99743   0.00000  Uiso   1.00
H822   H     0.09942   0.17519   0.99484   0.00000  Uiso   1.00
H823   H     0.08875   0.14335   0.71881   0.00000  Uiso   1.00
O824   O     0.31409   0.37244   0.88566   0.00000  Uiso   1.00
C825   C     0.31025   0.37936   0.93802   0.00000  Uiso   1.00
H826   H     0.27540   0.37322   0.95076   0.00000  Uiso   1.00
H827   H     0.32062   0.41565   0.94844   0.00000  Uiso   1.00
C828   C     0.34094   0.34456   0.96508   0.00000  Uiso   1.00
H829   H     0.33191   0.30807   0.95410   0.00000  Uiso   1.00
H830   H     0.37596   0.35098   0.95360   0.00000  Uiso   1.00
C831   C     0.33751   0.34934   0.68872   0.00000  Uiso   1.00
H832   H     0.34818   0.38502   0.70079   0.00000  Uiso   1.00
H833   H     0.35939   0.32291   0.70715   0.00000  Uiso   1.00
H834   H     0.30274   0.34322   0.70099   0.00000  Uiso   1.00
O835   O     0.27881   0.12688   0.91657   0.00000  Uiso   1.00
C836   C     0.32346   0.11656   0.92947   0.00000  Uiso   1.00
H837   H     0.34512   0.11456   0.89559   0.00000  Uiso   1.00
H838   H     0.32511   0.08264   0.95020   0.00000  Uiso   1.00
C839   C     0.34105   0.15558   0.96379   0.00000  Uiso   1.00
H840   H     0.33996   0.18970   0.94343   0.00000  Uiso   1.00
H841   H     0.31942   0.15845   0.99743   0.00000  Uiso   1.00
C842   C     0.38881   0.14595   0.98083   0.00000  Uiso   1.00
H843   H     0.39046   0.11260   0.66917   0.00000  Uiso   1.00
H844   H     0.40051   0.17511   0.67198   0.00000  Uiso   1.00
H845   H     0.41123   0.14346   0.94789   0.00000  Uiso   1.00
O846   O     0.18591   0.37245   0.78100   0.00000  Uiso   1.00
C847   C     0.18977   0.37936   0.72864   0.00000  Uiso   1.00
H848   H     0.22463   0.37318   0.71592   0.00000  Uiso   1.00
H849   H     0.17946   0.41567   0.71821   0.00000  Uiso   1.00
C850   C     0.15905   0.34461   0.70157   0.00000  Uiso   1.00
H851   H     0.16802   0.30811   0.71256   0.00000  Uiso   1.00
H852   H     0.12403   0.35109   0.71302   0.00000  Uiso   1.00
C853   C     0.16252   0.34938   0.97793   0.00000  Uiso   1.00
H854   H     0.15197   0.38509   0.96585   0.00000  Uiso   1.00
H855   H     0.14057   0.32302   0.95949   0.00000  Uiso   1.00
H856   H     0.19728   0.34313   0.96569   0.00000  Uiso   1.00
H857   H     0.11093   0.32108   0.86310   0.00000  Uiso   1.00
H858   H     0.38980   0.17934   0.86262   0.00000  Uiso   1.00
H859   H     0.38907   0.32106   0.80351   0.00000  Uiso   1.00
H860   H     0.11021   0.17933   0.80408   0.00000  Uiso   1.00
H861   H     0.22533   0.03389   0.75755   0.00000  Uiso   1.00
H862   H     0.30909   0.46559   0.87939   0.00000  Uiso   1.00
H863   H     0.27466   0.03388   0.90912   0.00000  Uiso   1.00
H864   H     0.19091   0.46559   0.78728   0.00000  Uiso   1.00
C865   C     0.66393   0.25003   0.83335   0.00000  Uiso   1.00
C866   C     0.83607   0.25003   0.83331   0.00000  Uiso   1.00
C867   C     0.73422   0.10204   0.79232   0.00000  Uiso   1.00
C868   C     0.78134   0.39762   0.86075   0.00000  Uiso   1.00
C869   C     0.76578   0.10204   0.87434   0.00000  Uiso   1.00
C870   C     0.71866   0.39763   0.80592   0.00000  Uiso   1.00
C871   C     0.73523   0.05222   0.79143   0.00000  Uiso   1.00
C872   C     0.78244   0.44739   0.85996   0.00000  Uiso   1.00
C873   C     0.76477   0.05221   0.87524   0.00000  Uiso   1.00
C874   C     0.71756   0.44739   0.80671   0.00000  Uiso   1.00
C875   C     0.75007   0.24999   0.73957   0.00000  Uiso   1.00
C876   C     0.74992   0.24999   0.92710   0.00000  Uiso   1.00
C877   C     0.75000   0.02644   0.83333   0.00000  Uiso   1.00
C878   C     0.75000   0.47318   0.83334   0.00000  Uiso   1.00
C879   C     0.75004   0.24996   0.68849   0.00000  Uiso   1.00
C880   C     0.74996   0.24996   0.97818   0.00000  Uiso   1.00
C881   C     0.54728   0.29021   0.85018   0.00000  Uiso   1.00
C882   C     0.95307   0.21071   0.85032   0.00000  Uiso   1.00
C883   C     0.95272   0.29020   0.81644   0.00000  Uiso   1.00
C884   C     0.54693   0.21071   0.81635   0.00000  Uiso   1.00
C885   C     0.59326   0.29020   0.84986   0.00000  Uiso   1.00
C886   C     0.90712   0.21038   0.84972   0.00000  Uiso   1.00
C887   C     0.90673   0.29019   0.81677   0.00000  Uiso   1.00
C888   C     0.59288   0.21038   0.81696   0.00000  Uiso   1.00
C889   C     0.61605   0.25019   0.83341   0.00000  Uiso   1.00
C890   C     0.88395   0.25019   0.83325   0.00000  Uiso   1.00
C891   C     0.52407   0.25052   0.83325   0.00000  Uiso   1.00
C892   C     0.97593   0.25052   0.83339   0.00000  Uiso   1.00
H893   H     0.52988   0.32091   0.86407   0.00000  Uiso   1.00
H894   H     0.97073   0.18010   0.86425   0.00000  Uiso   1.00
H895   H     0.97011   0.32089   0.80253   0.00000  Uiso   1.00
H896   H     0.52928   0.18009   0.80243   0.00000  Uiso   1.00
N897   N     0.75000   0.12624   0.83333   0.00000  Uiso   1.00
N898   N     0.75000   0.37377   0.83333   0.00000  Uiso   1.00
O899   O     0.68453   0.28974   0.83334   0.00000  Uiso   1.00
O900   O     0.81547   0.21026   0.83333   0.00000  Uiso   1.00
O901   O     0.81547   0.28974   0.83333   0.00000  Uiso   1.00
O902   O     0.68453   0.21026   0.83334   0.00000  Uiso   1.00
O903   O     0.75000   0.28973   0.76178   0.00000  Uiso   1.00
O904   O     0.75000   0.21027   0.90489   0.00000  Uiso   1.00
O905   O     0.75000   0.28973   0.90489   0.00000  Uiso   1.00
O906   O     0.75000   0.21027   0.76178   0.00000  Uiso   1.00
Zn907  Zn    0.75000   0.30307   0.83333   0.00000  Uiso   1.00
Zn908  Zn    0.75000   0.19693   0.83333   0.00000  Uiso   1.00
O909   O     0.72118   0.12689   0.75010   0.00000  Uiso   1.00
C910   C     0.67653   0.11656   0.73721   0.00000  Uiso   1.00
H911   H     0.65488   0.11451   0.77108   0.00000  Uiso   1.00
H912   H     0.67490   0.08266   0.71643   0.00000  Uiso   1.00
C913   C     0.65892   0.15562   0.70294   0.00000  Uiso   1.00
H914   H     0.65998   0.18971   0.72336   0.00000  Uiso   1.00
H915   H     0.68055   0.15856   0.66931   0.00000  Uiso   1.00
C916   C     0.61117   0.14597   0.68588   0.00000  Uiso   1.00
H917   H     0.60955   0.11269   0.99743   0.00000  Uiso   1.00
H918   H     0.59942   0.17519   0.99484   0.00000  Uiso   1.00
H919   H     0.58875   0.14335   0.71881   0.00000  Uiso   1.00
O920   O     0.81409   0.37244   0.88566   0.00000  Uiso   1.00
C921   C     0.81025   0.37936   0.93802   0.00000  Uiso   1.00
H922   H     0.77540   0.37322   0.95076   0.00000  Uiso   1.00
H923   H     0.82062   0.41565   0.94844   0.00000  Uiso   1.00
C924   C     0.84094   0.34456   0.96508   0.00000  Uiso   1.00
H925   H     0.83191   0.30807   0.95410   0.00000  Uiso   1.00
H926   H     0.87596   0.35098   0.95360   0.00000  Uiso   1.00
C927   C     0.83751   0.34934   0.68872   0.00000  Uiso   1.00
H928   H     0.84818   0.38502   0.70079   0.00000  Uiso   1.00
H929   H     0.85939   0.32291   0.70715   0.00000  Uiso   1.00
H930   H     0.80274   0.34322   0.70099   0.00000  Uiso   1.00
O931   O     0.77881   0.12688   0.91657   0.00000  Uiso   1.00
C932   C     0.82346   0.11656   0.92947   0.00000  Uiso   1.00
H933   H     0.84512   0.11456   0.89559   0.00000  Uiso   1.00
H934   H     0.82511   0.08264   0.95020   0.00000  Uiso   1.00
C935   C     0.84105   0.15558   0.96379   0.00000  Uiso   1.00
H936   H     0.83996   0.18970   0.94343   0.00000  Uiso   1.00
H937   H     0.81942   0.15845   0.99743   0.00000  Uiso   1.00
C938   C     0.88881   0.14595   0.98083   0.00000  Uiso   1.00
H939   H     0.89046   0.11260   0.66917   0.00000  Uiso   1.00
H940   H     0.90051   0.17511   0.67198   0.00000  Uiso   1.00
H941   H     0.91123   0.14346   0.94789   0.00000  Uiso   1.00
O942   O     0.68591   0.37245   0.78100   0.00000  Uiso   1.00
C943   C     0.68977   0.37936   0.72864   0.00000  Uiso   1.00
H944   H     0.72463   0.37318   0.71592   0.00000  Uiso   1.00
H945   H     0.67946   0.41567   0.71821   0.00000  Uiso   1.00
C946   C     0.65905   0.34461   0.70157   0.00000  Uiso   1.00
H947   H     0.66802   0.30811   0.71256   0.00000  Uiso   1.00
H948   H     0.62403   0.35109   0.71302   0.00000  Uiso   1.00
C949   C     0.66252   0.34938   0.97793   0.00000  Uiso   1.00
H950   H     0.65197   0.38509   0.96585   0.00000  Uiso   1.00
H951   H     0.64057   0.32302   0.95949   0.00000  Uiso   1.00
H952   H     0.69728   0.34313   0.96569   0.00000  Uiso   1.00
H953   H     0.61093   0.32108   0.86310   0.00000  Uiso   1.00
H954   H     0.88980   0.17934   0.86262   0.00000  Uiso   1.00
H955   H     0.88907   0.32106   0.80351   0.00000  Uiso   1.00
H956   H     0.61021   0.17933   0.80408   0.00000  Uiso   1.00
H957   H     0.72533   0.03389   0.75755   0.00000  Uiso   1.00
H958   H     0.80909   0.46559   0.87939   0.00000  Uiso   1.00
H959   H     0.77466   0.03388   0.90912   0.00000  Uiso   1.00
H960   H     0.69091   0.46559   0.78728   0.00000  Uiso   1.00
C961   C     0.16393   0.75003   0.83335   0.00000  Uiso   1.00
C962   C     0.33607   0.75003   0.83331   0.00000  Uiso   1.00
C963   C     0.23422   0.60204   0.79232   0.00000  Uiso   1.00
C964   C     0.28134   0.89762   0.86075   0.00000  Uiso   1.00
C965   C     0.26578   0.60204   0.87434   0.00000  Uiso   1.00
C966   C     0.21866   0.89763   0.80592   0.00000  Uiso   1.00
C967   C     0.23523   0.55222   0.79143   0.00000  Uiso   1.00
C968   C     0.28244   0.94739   0.85996   0.00000  Uiso   1.00
C969   C     0.26477   0.55221   0.87524   0.00000  Uiso   1.00
C970   C     0.21756   0.94739   0.80671   0.00000  Uiso   1.00
C971   C     0.25007   0.74999   0.73957   0.00000  Uiso   1.00
C972   C     0.24992   0.74999   0.92710   0.00000  Uiso   1.00
C973   C     0.25000   0.52644   0.83333   0.00000  Uiso   1.00
C974   C     0.25000   0.97318   0.83334   0.00000  Uiso   1.00
C975   C     0.25004   0.74996   0.68849   0.00000  Uiso   1.00
C976   C     0.24996   0.74996   0.97818   0.00000  Uiso   1.00
C977   C     0.04728   0.79021   0.85018   0.00000  Uiso   1.00
C978   C     0.45307   0.71071   0.85032   0.00000  Uiso   1.00
C979   C     0.45272   0.79020   0.81644   0.00000  Uiso   1.00
C980   C     0.04693   0.71071   0.81635   0.00000  Uiso   1.00
C981   C     0.09326   0.79020   0.84986   0.00000  Uiso   1.00
C982   C     0.40712   0.71038   0.84972   0.00000  Uiso   1.00
C983   C     0.40673   0.79019   0.81677   0.00000  Uiso   1.00
C984   C     0.09288   0.71038   0.81696   0.00000  Uiso   1.00
C985   C     0.11605   0.75019   0.83341   0.00000  Uiso   1.00
C986   C     0.38395   0.75019   0.83325   0.00000  Uiso   1.00
C987   C     0.02407   0.75052   0.83325   0.00000  Uiso   1.00
C988   C     0.47593   0.75052   0.83339   0.00000  Uiso   1.00
H989   H     0.02988   0.82091   0.86407   0.00000  Uiso   1.00
H990   H     0.47073   0.68010   0.86425   0.00000  Uiso   1.00
H991   H     0.47011   0.82089   0.80253   0.00000  Uiso   1.00
H992   H     0.02928   0.68009   0.80243   0.00000  Uiso   1.00
N993   N     0.25000   0.62624   0.83333   0.00000  Uiso   1.00
N994   N     0.25000   0.87377   0.83333   0.00000  Uiso   1.00
O995   O     0.18453   0.78974   0.83334   0.00000  Uiso   1.00
O996   O     0.31547   0.71026   0.83333   0.00000  Uiso   1.00
O997   O     0.31547   0.78974   0.83333   0.00000  Uiso   1.00
O998   O     0.18453   0.71026   0.83334   0.00000  Uiso   1.00
O999   O     0.25000   0.78973   0.76178   0.00000  Uiso   1.00
O1000  O     0.25000   0.71027   0.90489   0.00000  Uiso   1.00
O1001  O     0.25000   0.78973   0.90489   0.00000  Uiso   1.00
O1002  O     0.25000   0.71027   0.76178   0.00000  Uiso   1.00
Zn1003 Zn    0.25000   0.80307   0.83333   0.00000  Uiso   1.00
Zn1004 Zn    0.25000   0.69693   0.83333   0.00000  Uiso   1.00
O1005  O     0.22118   0.62689   0.75010   0.00000  Uiso   1.00
C1006  C     0.17653   0.61656   0.73721   0.00000  Uiso   1.00
H1007  H     0.15488   0.61451   0.77108   0.00000  Uiso   1.00
H1008  H     0.17490   0.58266   0.71643   0.00000  Uiso   1.00
C1009  C     0.15892   0.65562   0.70294   0.00000  Uiso   1.00
H1010  H     0.15998   0.68971   0.72336   0.00000  Uiso   1.00
H1011  H     0.18055   0.65856   0.66931   0.00000  Uiso   1.00
C1012  C     0.11117   0.64597   0.68588   0.00000  Uiso   1.00
H1013  H     0.10955   0.61269   0.99743   0.00000  Uiso   1.00
H1014  H     0.09942   0.67519   0.99484   0.00000  Uiso   1.00
H1015  H     0.08875   0.64335   0.71881   0.00000  Uiso   1.00
O1016  O     0.31409   0.87244   0.88566   0.00000  Uiso   1.00
C1017  C     0.31025   0.87936   0.93802   0.00000  Uiso   1.00
H1018  H     0.27540   0.87322   0.95076   0.00000  Uiso   1.00
H1019  H     0.32062   0.91565   0.94844   0.00000  Uiso   1.00
C1020  C     0.34094   0.84456   0.96508   0.00000  Uiso   1.00
H1021  H     0.33191   0.80807   0.95410   0.00000  Uiso   1.00
H1022  H     0.37596   0.85098   0.95360   0.00000  Uiso   1.00
C1023  C     0.33751   0.84934   0.68872   0.00000  Uiso   1.00
H1024  H     0.34818   0.88502   0.70079   0.00000  Uiso   1.00
H1025  H     0.35939   0.82291   0.70715   0.00000  Uiso   1.00
H1026  H     0.30274   0.84322   0.70099   0.00000  Uiso   1.00
O1027  O     0.27881   0.62688   0.91657   0.00000  Uiso   1.00
C1028  C     0.32346   0.61656   0.92947   0.00000  Uiso   1.00
H1029  H     0.34512   0.61456   0.89559   0.00000  Uiso   1.00
H1030  H     0.32511   0.58264   0.95020   0.00000  Uiso   1.00
C1031  C     0.34105   0.65558   0.96379   0.00000  Uiso   1.00
H1032  H     0.33996   0.68970   0.94343   0.00000  Uiso   1.00
H1033  H     0.31942   0.65845   0.99743   0.00000  Uiso   1.00
C1034  C     0.38881   0.64595   0.98083   0.00000  Uiso   1.00
H1035  H     0.39046   0.61260   0.66917   0.00000  Uiso   1.00
H1036  H     0.40051   0.67511   0.67198   0.00000  Uiso   1.00
H1037  H     0.41123   0.64346   0.94789   0.00000  Uiso   1.00
O1038  O     0.18591   0.87245   0.78100   0.00000  Uiso   1.00
C1039  C     0.18977   0.87936   0.72864   0.00000  Uiso   1.00
H1040  H     0.22463   0.87318   0.71592   0.00000  Uiso   1.00
H1041  H     0.17946   0.91567   0.71821   0.00000  Uiso   1.00
C1042  C     0.15905   0.84461   0.70157   0.00000  Uiso   1.00
H1043  H     0.16802   0.80811   0.71256   0.00000  Uiso   1.00
H1044  H     0.12403   0.85109   0.71302   0.00000  Uiso   1.00
C1045  C     0.16252   0.84938   0.97793   0.00000  Uiso   1.00
H1046  H     0.15197   0.88509   0.96585   0.00000  Uiso   1.00
H1047  H     0.14057   0.82302   0.95949   0.00000  Uiso   1.00
H1048  H     0.19728   0.84313   0.96569   0.00000  Uiso   1.00
H1049  H     0.11093   0.82108   0.86310   0.00000  Uiso   1.00
H1050  H     0.38980   0.67934   0.86262   0.00000  Uiso   1.00
H1051  H     0.38907   0.82106   0.80351   0.00000  Uiso   1.00
H1052  H     0.11021   0.67933   0.80408   0.00000  Uiso   1.00
H1053  H     0.22533   0.53389   0.75755   0.00000  Uiso   1.00
H1054  H     0.30909   0.96559   0.87939   0.00000  Uiso   1.00
H1055  H     0.27466   0.53388   0.90912   0.00000  Uiso   1.00
H1056  H     0.19091   0.96559   0.78728   0.00000  Uiso   1.00
C1057  C     0.66393   0.75003   0.83335   0.00000  Uiso   1.00
C1058  C     0.83607   0.75003   0.83331   0.00000  Uiso   1.00
C1059  C     0.73422   0.60204   0.79232   0.00000  Uiso   1.00
C1060  C     0.78134   0.89762   0.86075   0.00000  Uiso   1.00
C1061  C     0.76578   0.60204   0.87434   0.00000  Uiso   1.00
C1062  C     0.71866   0.89763   0.80592   0.00000  Uiso   1.00
C1063  C     0.73523   0.55222   0.79143   0.00000  Uiso   1.00
C1064  C     0.78244   0.94739   0.85996   0.00000  Uiso   1.00
C1065  C     0.76477   0.55221   0.87524   0.00000  Uiso   1.00
C1066  C     0.71756   0.94739   0.80671   0.00000  Uiso   1.00
C1067  C     0.75007   0.74999   0.73957   0.00000  Uiso   1.00
C1068  C     0.74992   0.74999   0.92710   0.00000  Uiso   1.00
C1069  C     0.75000   0.52644   0.83333   0.00000  Uiso   1.00
C1070  C     0.75000   0.97318   0.83334   0.00000  Uiso   1.00
C1071  C     0.75004   0.74996   0.68849   0.00000  Uiso   1.00
C1072  C     0.74996   0.74996   0.97818   0.00000  Uiso   1.00
C1073  C     0.54728   0.79021   0.85018   0.00000  Uiso   1.00
C1074  C     0.95307   0.71071   0.85032   0.00000  Uiso   1.00
C1075  C     0.95272   0.79020   0.81644   0.00000  Uiso   1.00
C1076  C     0.54693   0.71071   0.81635   0.00000  Uiso   1.00
C1077  C     0.59326   0.79020   0.84986   0.00000  Uiso   1.00
C1078  C     0.90712   0.71038   0.84972   0.00000  Uiso   1.00
C1079  C     0.90673   0.79019   0.81677   0.00000  Uiso   1.00
C1080  C     0.59288   0.71038   0.81696   0.00000  Uiso   1.00
C1081  C     0.61605   0.75019   0.83341   0.00000  Uiso   1.00
C1082  C     0.88395   0.75019   0.83325   0.00000  Uiso   1.00
C1083  C     0.52407   0.75052   0.83325   0.00000  Uiso   1.00
C1084  C     0.97593   0.75052   0.83339   0.00000  Uiso   1.00
H1085  H     0.52988   0.82091   0.86407   0.00000  Uiso   1.00
H1086  H     0.97073   0.68010   0.86425   0.00000  Uiso   1.00
H1087  H     0.97011   0.82089   0.80253   0.00000  Uiso   1.00
H1088  H     0.52928   0.68009   0.80243   0.00000  Uiso   1.00
N1089  N     0.75000   0.62624   0.83333   0.00000  Uiso   1.00
N1090  N     0.75000   0.87377   0.83333   0.00000  Uiso   1.00
O1091  O     0.68453   0.78974   0.83334   0.00000  Uiso   1.00
O1092  O     0.81547   0.71026   0.83333   0.00000  Uiso   1.00
O1093  O     0.81547   0.78974   0.83333   0.00000  Uiso   1.00
O1094  O     0.68453   0.71026   0.83334   0.00000  Uiso   1.00
O1095  O     0.75000   0.78973   0.76178   0.00000  Uiso   1.00
O1096  O     0.75000   0.71027   0.90489   0.00000  Uiso   1.00
O1097  O     0.75000   0.78973   0.90489   0.00000  Uiso   1.00
O1098  O     0.75000   0.71027   0.76178   0.00000  Uiso   1.00
Zn1099 Zn    0.75000   0.80307   0.83333   0.00000  Uiso   1.00
Zn1100 Zn    0.75000   0.69693   0.83333   0.00000  Uiso   1.00
O1101  O     0.72118   0.62689   0.75010   0.00000  Uiso   1.00
C1102  C     0.67653   0.61656   0.73721   0.00000  Uiso   1.00
H1103  H     0.65488   0.61451   0.77108   0.00000  Uiso   1.00
H1104  H     0.67490   0.58266   0.71643   0.00000  Uiso   1.00
C1105  C     0.65892   0.65562   0.70294   0.00000  Uiso   1.00
H1106  H     0.65998   0.68971   0.72336   0.00000  Uiso   1.00
H1107  H     0.68055   0.65856   0.66931   0.00000  Uiso   1.00
C1108  C     0.61117   0.64597   0.68588   0.00000  Uiso   1.00
H1109  H     0.60955   0.61269   0.99743   0.00000  Uiso   1.00
H1110  H     0.59942   0.67519   0.99484   0.00000  Uiso   1.00
H1111  H     0.58875   0.64335   0.71881   0.00000  Uiso   1.00
O1112  O     0.81409   0.87244   0.88566   0.00000  Uiso   1.00
C1113  C     0.81025   0.87936   0.93802   0.00000  Uiso   1.00
H1114  H     0.77540   0.87322   0.95076   0.00000  Uiso   1.00
H1115  H     0.82062   0.91565   0.94844   0.00000  Uiso   1.00
C1116  C     0.84094   0.84456   0.96508   0.00000  Uiso   1.00
H1117  H     0.83191   0.80807   0.95410   0.00000  Uiso   1.00
H1118  H     0.87596   0.85098   0.95360   0.00000  Uiso   1.00
C1119  C     0.83751   0.84934   0.68872   0.00000  Uiso   1.00
H1120  H     0.84818   0.88502   0.70079   0.00000  Uiso   1.00
H1121  H     0.85939   0.82291   0.70715   0.00000  Uiso   1.00
H1122  H     0.80274   0.84322   0.70099   0.00000  Uiso   1.00
O1123  O     0.77881   0.62688   0.91657   0.00000  Uiso   1.00
C1124  C     0.82346   0.61656   0.92947   0.00000  Uiso   1.00
H1125  H     0.84512   0.61456   0.89559   0.00000  Uiso   1.00
H1126  H     0.82511   0.58264   0.95020   0.00000  Uiso   1.00
C1127  C     0.84105   0.65558   0.96379   0.00000  Uiso   1.00
H1128  H     0.83996   0.68970   0.94343   0.00000  Uiso   1.00
H1129  H     0.81942   0.65845   0.99743   0.00000  Uiso   1.00
C1130  C     0.88881   0.64595   0.98083   0.00000  Uiso   1.00
H1131  H     0.89046   0.61260   0.66917   0.00000  Uiso   1.00
H1132  H     0.90051   0.67511   0.67198   0.00000  Uiso   1.00
H1133  H     0.91123   0.64346   0.94789   0.00000  Uiso   1.00
O1134  O     0.68591   0.87245   0.78100   0.00000  Uiso   1.00
C1135  C     0.68977   0.87936   0.72864   0.00000  Uiso   1.00
H1136  H     0.72463   0.87318   0.71592   0.00000  Uiso   1.00
H1137  H     0.67946   0.91567   0.71821   0.00000  Uiso   1.00
C1138  C     0.65905   0.84461   0.70157   0.00000  Uiso   1.00
H1139  H     0.66802   0.80811   0.71256   0.00000  Uiso   1.00
H1140  H     0.62403   0.85109   0.71302   0.00000  Uiso   1.00
C1141  C     0.66252   0.84938   0.97793   0.00000  Uiso   1.00
H1142  H     0.65197   0.88509   0.96585   0.00000  Uiso   1.00
H1143  H     0.64057   0.82302   0.95949   0.00000  Uiso   1.00
H1144  H     0.69728   0.84313   0.96569   0.00000  Uiso   1.00
H1145  H     0.61093   0.82108   0.86310   0.00000  Uiso   1.00
H1146  H     0.88980   0.67934   0.86262   0.00000  Uiso   1.00
H1147  H     0.88907   0.82106   0.80351   0.00000  Uiso   1.00
H1148  H     0.61021   0.67933   0.80408   0.00000  Uiso   1.00
H1149  H     0.72533   0.53389   0.75755   0.00000  Uiso   1.00
H1150  H     0.80909   0.96559   0.87939   0.00000  Uiso   1.00
H1151  H     0.77466   0.53388   0.90912   0.00000  Uiso   1.00
H1152  H     0.69091   0.96559   0.78728   0.00000  Uiso   1.00
loop_
_geom_bond_atom_site_label_1
_geom_bond_atom_site_label_2
_geom_bond_distance
_geom_bond_site_symmetry_2
_ccdc_geom_bond_type
C1     C25     1.437   .     S
C1     O38     1.289   .     A
C1     O35     1.288   .     A
C2     C26     1.437   .     S
C2     O36     1.289   .     A
C2     O37     1.288   .     A
C3     C7      1.417   .     A
C3     N33     1.372   .     A
C3     O45     1.382   .     S
C4     C8      1.416   .     A
C4     O56     1.382   .     S
C4     N34     1.367   .     A
C5     O67     1.382   .     S
C5     N33     1.372   .     A
C5     C9      1.417   .     A
C6     N34     1.367   .     A
C6     C10     1.416   .     A
C6     O78     1.382   .     S
C7     C13     1.404   .     A
C7     H93     1.082   .     S
C8     H94     1.082   .     S
C8     C14     1.407   .     A
C9     C13     1.404   .     A
C9     H95     1.082   .     S
C10    C14     1.407   .     A
C10    H96     1.082   .     S
C11    O42     1.275   .     A
C11    C15     1.360   .     S
C11    O39     1.275   .     A
C12    O40     1.275   .     A
C12    C16     1.360   .     S
C12    O41     1.275   .     A
C13    C206    1.514   1_545 S
C14    C205    1.514   .     S
C15    C784    1.161   1_554 S
C16    C399    1.161   .     S
C17    H29     1.083   .     S
C17    C27     1.400   .     A
C17    C21     1.380   .     A
C18    H30     1.083   .     S
C18    C28     1.399   .     A
C18    C22     1.379   .     A
C19    H31     1.083   .     S
C19    C23     1.380   .     A
C19    C28     1.400   .     A
C20    C24     1.379   .     A
C20    H32     1.083   .     S
C20    C27     1.399   .     A
C21    H89     1.084   .     S
C21    C25     1.399   .     A
C22    H90     1.082   .     S
C22    C26     1.398   .     A
C23    C26     1.399   .     A
C23    H91     1.084   .     S
C24    H92     1.082   .     S
C24    C25     1.398   .     A
C27    C124    1.445   1_455 S
C28    C123    1.445   .     S
N33    Zn44    2.010   .     S
N34    Zn43    2.010   .     S
O35    Zn43    2.002   .     S
O36    Zn44    2.002   .     S
O37    Zn43    2.002   .     S
O38    Zn44    2.002   .     S
O39    Zn43    1.942   .     S
O40    Zn44    1.942   .     S
O41    Zn43    1.942   .     S
O42    Zn44    1.942   .     S
O45    C46     1.412   .     S
C46    C49     1.529   .     S
C46    H48     1.112   .     S
C46    H47     1.116   .     S
C49    H51     1.112   .     S
C49    C52     1.526   .     S
C49    H50     1.112   .     S
C52    H55     1.111   .     S
C52    H821    1.111   1_554 S
C52    H822    1.110   1_554 S
H53    C436    1.111   .     S
H54    C436    1.110   .     S
O56    C57     1.413   .     S
C57    H59     1.113   .     S
C57    C60     1.529   .     S
C57    H58     1.116   .     S
C60    H62     1.112   .     S
C60    H61     1.111   .     S
C60    C447    1.526   .     S
C63    H65     1.110   .     S
C63    H66     1.109   .     S
C63    H64     1.111   .     S
C63    C828    1.526   1_554 S
O67    C68     1.412   .     S
C68    H69     1.116   .     S
C68    C71     1.529   .     S
C68    H70     1.112   .     S
C71    H73     1.112   .     S
C71    C74     1.526   .     S
C71    H72     1.112   .     S
C74    H77     1.111   .     S
C74    H459    1.111   .     S
C74    H460    1.111   .     S
H75    C842    1.111   1_554 S
H76    C842    1.111   1_554 S
O78    C79     1.413   .     S
C79    H81     1.113   .     S
C79    C82     1.529   .     S
C79    H80     1.116   .     S
C82    H84     1.112   .     S
C82    H83     1.111   .     S
C82    C853    1.526   1_554 S
C85    H87     1.110   .     S
C85    H86     1.111   .     S
C85    H88     1.109   .     S
C85    C466    1.526   .     S
C97    C121    1.437   .     S
C97    O134    1.289   .     A
C97    O131    1.288   .     A
C98    C122    1.437   .     S
C98    O132    1.289   .     A
C98    O133    1.288   .     A
C99    C103    1.417   .     A
C99    N129    1.372   .     A
C99    O141    1.382   .     S
C100   C104    1.416   .     A
C100   O152    1.382   .     S
C100   N130    1.367   .     A
C101   O163    1.382   .     S
C101   N129    1.372   .     A
C101   C105    1.417   .     A
C102   N130    1.367   .     A
C102   C106    1.416   .     A
C102   O174    1.382   .     S
C103   C109    1.404   .     A
C103   H189    1.082   .     S
C104   H190    1.082   .     S
C104   C110    1.407   .     A
C105   C109    1.404   .     A
C105   H191    1.082   .     S
C106   C110    1.407   .     A
C106   H192    1.082   .     S
C107   O138    1.275   .     A
C107   C111    1.360   .     S
C107   O135    1.275   .     A
C108   O136    1.275   .     A
C108   C112    1.360   .     S
C108   O137    1.275   .     A
C109   C302    1.514   1_545 S
C110   C301    1.514   .     S
C111   C880    1.161   1_554 S
C112   C495    1.161   .     S
C113   H125    1.083   .     S
C113   C123    1.400   .     A
C113   C117    1.380   .     A
C114   H126    1.083   .     S
C114   C124    1.399   .     A
C114   C118    1.379   .     A
C115   H127    1.083   .     S
C115   C119    1.380   .     A
C115   C124    1.400   .     A
C116   C120    1.379   .     A
C116   H128    1.083   .     S
C116   C123    1.399   .     A
C117   H185    1.084   .     S
C117   C121    1.399   .     A
C118   H186    1.082   .     S
C118   C122    1.398   .     A
C119   C122    1.399   .     A
C119   H187    1.084   .     S
C120   H188    1.082   .     S
C120   C121    1.398   .     A
C124   C27     1.445   1_655 S
N129   Zn140   2.010   .     S
N130   Zn139   2.010   .     S
O131   Zn139   2.002   .     S
O132   Zn140   2.002   .     S
O133   Zn139   2.002   .     S
O134   Zn140   2.002   .     S
O135   Zn139   1.942   .     S
O136   Zn140   1.942   .     S
O137   Zn139   1.942   .     S
O138   Zn140   1.942   .     S
O141   C142    1.412   .     S
C142   C145    1.529   .     S
C142   H144    1.112   .     S
C142   H143    1.116   .     S
C145   H147    1.112   .     S
C145   C148    1.526   .     S
C145   H146    1.112   .     S
C148   H151    1.111   .     S
C148   H917    1.111   1_554 S
C148   H918    1.110   1_554 S
H149   C532    1.111   .     S
H150   C532    1.110   .     S
O152   C153    1.413   .     S
C153   H155    1.113   .     S
C153   C156    1.529   .     S
C153   H154    1.116   .     S
C156   H158    1.112   .     S
C156   H157    1.111   .     S
C156   C543    1.526   .     S
C159   H161    1.110   .     S
C159   H162    1.109   .     S
C159   H160    1.111   .     S
C159   C924    1.526   1_554 S
O163   C164    1.412   .     S
C164   H165    1.116   .     S
C164   C167    1.529   .     S
C164   H166    1.112   .     S
C167   H169    1.112   .     S
C167   C170    1.526   .     S
C167   H168    1.112   .     S
C170   H173    1.111   .     S
C170   H555    1.111   .     S
C170   H556    1.111   .     S
H171   C938    1.111   1_554 S
H172   C938    1.111   1_554 S
O174   C175    1.413   .     S
C175   H177    1.113   .     S
C175   C178    1.529   .     S
C175   H176    1.116   .     S
C178   H180    1.112   .     S
C178   H179    1.111   .     S
C178   C949    1.526   1_554 S
C181   H183    1.110   .     S
C181   H182    1.111   .     S
C181   H184    1.109   .     S
C181   C562    1.526   .     S
C193   C217    1.437   .     S
C193   O230    1.289   .     A
C193   O227    1.288   .     A
C194   C218    1.437   .     S
C194   O228    1.289   .     A
C194   O229    1.288   .     A
C195   C199    1.417   .     A
C195   N225    1.372   .     A
C195   O237    1.382   .     S
C196   C200    1.416   .     A
C196   O248    1.382   .     S
C196   N226    1.367   .     A
C197   O259    1.382   .     S
C197   N225    1.372   .     A
C197   C201    1.417   .     A
C198   N226    1.367   .     A
C198   C202    1.416   .     A
C198   O270    1.382   .     S
C199   C205    1.404   .     A
C199   H285    1.082   .     S
C200   H286    1.082   .     S
C200   C206    1.407   .     A
C201   C205    1.404   .     A
C201   H287    1.082   .     S
C202   C206    1.407   .     A
C202   H288    1.082   .     S
C203   O234    1.275   .     A
C203   C207    1.360   .     S
C203   O231    1.275   .     A
C204   O232    1.275   .     A
C204   C208    1.360   .     S
C204   O233    1.275   .     A
C206   C13     1.514   1_565 S
C207   C976    1.161   1_554 S
C208   C591    1.161   .     S
C209   H221    1.083   .     S
C209   C219    1.400   .     A
C209   C213    1.380   .     A
C210   H222    1.083   .     S
C210   C220    1.399   .     A
C210   C214    1.379   .     A
C211   H223    1.083   .     S
C211   C215    1.380   .     A
C211   C220    1.400   .     A
C212   C216    1.379   .     A
C212   H224    1.083   .     S
C212   C219    1.399   .     A
C213   H281    1.084   .     S
C213   C217    1.399   .     A
C214   H282    1.082   .     S
C214   C218    1.398   .     A
C215   C218    1.399   .     A
C215   H283    1.084   .     S
C216   H284    1.082   .     S
C216   C217    1.398   .     A
C219   C316    1.445   1_455 S
C220   C315    1.445   .     S
N225   Zn236   2.010   .     S
N226   Zn235   2.010   .     S
O227   Zn235   2.002   .     S
O228   Zn236   2.002   .     S
O229   Zn235   2.002   .     S
O230   Zn236   2.002   .     S
O231   Zn235   1.942   .     S
O232   Zn236   1.942   .     S
O233   Zn235   1.942   .     S
O234   Zn236   1.942   .     S
O237   C238    1.412   .     S
C238   C241    1.529   .     S
C238   H240    1.112   .     S
C238   H239    1.116   .     S
C241   H243    1.112   .     S
C241   C244    1.526   .     S
C241   H242    1.112   .     S
C244   H247    1.111   .     S
C244   H1013   1.111   1_554 S
C244   H1014   1.110   1_554 S
H245   C628    1.111   .     S
H246   C628    1.110   .     S
O248   C249    1.413   .     S
C249   H251    1.113   .     S
C249   C252    1.529   .     S
C249   H250    1.116   .     S
C252   H254    1.112   .     S
C252   H253    1.111   .     S
C252   C639    1.526   .     S
C255   H257    1.110   .     S
C255   H258    1.109   .     S
C255   H256    1.111   .     S
C255   C1020   1.526   1_554 S
O259   C260    1.412   .     S
C260   H261    1.116   .     S
C260   C263    1.529   .     S
C260   H262    1.112   .     S
C263   H265    1.112   .     S
C263   C266    1.526   .     S
C263   H264    1.112   .     S
C266   H269    1.111   .     S
C266   H651    1.111   .     S
C266   H652    1.111   .     S
H267   C1034   1.111   1_554 S
H268   C1034   1.111   1_554 S
O270   C271    1.413   .     S
C271   H273    1.113   .     S
C271   C274    1.529   .     S
C271   H272    1.116   .     S
C274   H276    1.112   .     S
C274   H275    1.111   .     S
C274   C1045   1.526   1_554 S
C277   H279    1.110   .     S
C277   H278    1.111   .     S
C277   H280    1.109   .     S
C277   C658    1.526   .     S
C289   C313    1.437   .     S
C289   O326    1.289   .     A
C289   O323    1.288   .     A
C290   C314    1.437   .     S
C290   O324    1.289   .     A
C290   O325    1.288   .     A
C291   C295    1.417   .     A
C291   N321    1.372   .     A
C291   O333    1.382   .     S
C292   C296    1.416   .     A
C292   O344    1.382   .     S
C292   N322    1.367   .     A
C293   O355    1.382   .     S
C293   N321    1.372   .     A
C293   C297    1.417   .     A
C294   N322    1.367   .     A
C294   C298    1.416   .     A
C294   O366    1.382   .     S
C295   C301    1.404   .     A
C295   H381    1.082   .     S
C296   H382    1.082   .     S
C296   C302    1.407   .     A
C297   C301    1.404   .     A
C297   H383    1.082   .     S
C298   C302    1.407   .     A
C298   H384    1.082   .     S
C299   O330    1.275   .     A
C299   C303    1.360   .     S
C299   O327    1.275   .     A
C300   O328    1.275   .     A
C300   C304    1.360   .     S
C300   O329    1.275   .     A
C302   C109    1.514   1_565 S
C303   C1072   1.161   1_554 S
C304   C687    1.161   .     S
C305   H317    1.083   .     S
C305   C315    1.400   .     A
C305   C309    1.380   .     A
C306   H318    1.083   .     S
C306   C316    1.399   .     A
C306   C310    1.379   .     A
C307   H319    1.083   .     S
C307   C311    1.380   .     A
C307   C316    1.400   .     A
C308   C312    1.379   .     A
C308   H320    1.083   .     S
C308   C315    1.399   .     A
C309   H377    1.084   .     S
C309   C313    1.399   .     A
C310   H378    1.082   .     S
C310   C314    1.398   .     A
C311   C314    1.399   .     A
C311   H379    1.084   .     S
C312   H380    1.082   .     S
C312   C313    1.398   .     A
C316   C219    1.445   1_655 S
N321   Zn332   2.010   .     S
N322   Zn331   2.010   .     S
O323   Zn331   2.002   .     S
O324   Zn332   2.002   .     S
O325   Zn331   2.002   .     S
O326   Zn332   2.002   .     S
O327   Zn331   1.942   .     S
O328   Zn332   1.942   .     S
O329   Zn331   1.942   .     S
O330   Zn332   1.942   .     S
O333   C334    1.412   .     S
C334   C337    1.529   .     S
C334   H336    1.112   .     S
C334   H335    1.116   .     S
C337   H339    1.112   .     S
C337   C340    1.526   .     S
C337   H338    1.112   .     S
C340   H343    1.111   .     S
C340   H1109   1.111   1_554 S
C340   H1110   1.110   1_554 S
H341   C724    1.111   .     S
H342   C724    1.110   .     S
O344   C345    1.413   .     S
C345   H347    1.113   .     S
C345   C348    1.529   .     S
C345   H346    1.116   .     S
C348   H350    1.112   .     S
C348   H349    1.111   .     S
C348   C735    1.526   .     S
C351   H353    1.110   .     S
C351   H354    1.109   .     S
C351   H352    1.111   .     S
C351   C1116   1.526   1_554 S
O355   C356    1.412   .     S
C356   H357    1.116   .     S
C356   C359    1.529   .     S
C356   H358    1.112   .     S
C359   H361    1.112   .     S
C359   C362    1.526   .     S
C359   H360    1.112   .     S
C362   H365    1.111   .     S
C362   H747    1.111   .     S
C362   H748    1.111   .     S
H363   C1130   1.111   1_554 S
H364   C1130   1.111   1_554 S
O366   C367    1.413   .     S
C367   H369    1.113   .     S
C367   C370    1.529   .     S
C367   H368    1.116   .     S
C370   H372    1.112   .     S
C370   H371    1.111   .     S
C370   C1141   1.526   1_554 S
C373   H375    1.110   .     S
C373   H374    1.111   .     S
C373   H376    1.109   .     S
C373   C754    1.526   .     S
C385   C409    1.437   .     S
C385   O422    1.289   .     A
C385   O419    1.288   .     A
C386   C410    1.437   .     S
C386   O420    1.289   .     A
C386   O421    1.288   .     A
C387   C391    1.417   .     A
C387   N417    1.372   .     A
C387   O429    1.382   .     S
C388   C392    1.416   .     A
C388   O440    1.382   .     S
C388   N418    1.367   .     A
C389   O451    1.382   .     S
C389   N417    1.372   .     A
C389   C393    1.417   .     A
C390   N418    1.367   .     A
C390   C394    1.416   .     A
C390   O462    1.382   .     S
C391   C397    1.404   .     A
C391   H477    1.082   .     S
C392   H478    1.082   .     S
C392   C398    1.407   .     A
C393   C397    1.404   .     A
C393   H479    1.082   .     S
C394   C398    1.407   .     A
C394   H480    1.082   .     S
C395   O426    1.275   .     A
C395   C399    1.360   .     S
C395   O423    1.275   .     A
C396   O424    1.275   .     A
C396   C400    1.360   .     S
C396   O425    1.275   .     A
C397   C590    1.514   1_545 S
C398   C589    1.514   .     S
C400   C783    1.161   .     S
C401   H413    1.083   .     S
C401   C411    1.400   .     A
C401   C405    1.380   .     A
C402   H414    1.083   .     S
C402   C412    1.399   .     A
C402   C406    1.379   .     A
C403   H415    1.083   .     S
C403   C407    1.380   .     A
C403   C412    1.400   .     A
C404   C408    1.379   .     A
C404   H416    1.083   .     S
C404   C411    1.399   .     A
C405   H473    1.084   .     S
C405   C409    1.399   .     A
C406   H474    1.082   .     S
C406   C410    1.398   .     A
C407   C410    1.399   .     A
C407   H475    1.084   .     S
C408   H476    1.082   .     S
C408   C409    1.398   .     A
C411   C508    1.445   1_455 S
C412   C507    1.445   .     S
N417   Zn428   2.010   .     S
N418   Zn427   2.010   .     S
O419   Zn427   2.002   .     S
O420   Zn428   2.002   .     S
O421   Zn427   2.002   .     S
O422   Zn428   2.002   .     S
O423   Zn427   1.942   .     S
O424   Zn428   1.942   .     S
O425   Zn427   1.942   .     S
O426   Zn428   1.942   .     S
O429   C430    1.412   .     S
C430   C433    1.529   .     S
C430   H432    1.112   .     S
C430   H431    1.116   .     S
C433   H435    1.112   .     S
C433   C436    1.526   .     S
C433   H434    1.112   .     S
C436   H439    1.111   .     S
H437   C820    1.111   .     S
H438   C820    1.110   .     S
O440   C441    1.413   .     S
C441   H443    1.113   .     S
C441   C444    1.529   .     S
C441   H442    1.116   .     S
C444   H446    1.112   .     S
C444   H445    1.111   .     S
C444   C831    1.526   .     S
C447   H449    1.110   .     S
C447   H450    1.109   .     S
C447   H448    1.111   .     S
O451   C452    1.412   .     S
C452   H453    1.116   .     S
C452   C455    1.529   .     S
C452   H454    1.112   .     S
C455   H457    1.112   .     S
C455   C458    1.526   .     S
C455   H456    1.112   .     S
C458   H461    1.111   .     S
C458   H843    1.111   .     S
C458   H844    1.111   .     S
O462   C463    1.413   .     S
C463   H465    1.113   .     S
C463   C466    1.529   .     S
C463   H464    1.116   .     S
C466   H468    1.112   .     S
C466   H467    1.111   .     S
C469   H471    1.110   .     S
C469   H470    1.111   .     S
C469   H472    1.109   .     S
C469   C850    1.526   .     S
C481   C505    1.437   .     S
C481   O518    1.289   .     A
C481   O515    1.288   .     A
C482   C506    1.437   .     S
C482   O516    1.289   .     A
C482   O517    1.288   .     A
C483   C487    1.417   .     A
C483   N513    1.372   .     A
C483   O525    1.382   .     S
C484   C488    1.416   .     A
C484   O536    1.382   .     S
C484   N514    1.367   .     A
C485   O547    1.382   .     S
C485   N513    1.372   .     A
C485   C489    1.417   .     A
C486   N514    1.367   .     A
C486   C490    1.416   .     A
C486   O558    1.382   .     S
C487   C493    1.404   .     A
C487   H573    1.082   .     S
C488   H574    1.082   .     S
C488   C494    1.407   .     A
C489   C493    1.404   .     A
C489   H575    1.082   .     S
C490   C494    1.407   .     A
C490   H576    1.082   .     S
C491   O522    1.275   .     A
C491   C495    1.360   .     S
C491   O519    1.275   .     A
C492   O520    1.275   .     A
C492   C496    1.360   .     S
C492   O521    1.275   .     A
C493   C686    1.514   1_545 S
C494   C685    1.514   .     S
C496   C879    1.161   .     S
C497   H509    1.083   .     S
C497   C507    1.400   .     A
C497   C501    1.380   .     A
C498   H510    1.083   .     S
C498   C508    1.399   .     A
C498   C502    1.379   .     A
C499   H511    1.083   .     S
C499   C503    1.380   .     A
C499   C508    1.400   .     A
C500   C504    1.379   .     A
C500   H512    1.083   .     S
C500   C507    1.399   .     A
C501   H569    1.084   .     S
C501   C505    1.399   .     A
C502   H570    1.082   .     S
C502   C506    1.398   .     A
C503   C506    1.399   .     A
C503   H571    1.084   .     S
C504   H572    1.082   .     S
C504   C505    1.398   .     A
C508   C411    1.445   1_655 S
N513   Zn524   2.010   .     S
N514   Zn523   2.010   .     S
O515   Zn523   2.002   .     S
O516   Zn524   2.002   .     S
O517   Zn523   2.002   .     S
O518   Zn524   2.002   .     S
O519   Zn523   1.942   .     S
O520   Zn524   1.942   .     S
O521   Zn523   1.942   .     S
O522   Zn524   1.942   .     S
O525   C526    1.412   .     S
C526   C529    1.529   .     S
C526   H528    1.112   .     S
C526   H527    1.116   .     S
C529   H531    1.112   .     S
C529   C532    1.526   .     S
C529   H530    1.112   .     S
C532   H535    1.111   .     S
H533   C916    1.111   .     S
H534   C916    1.110   .     S
O536   C537    1.413   .     S
C537   H539    1.113   .     S
C537   C540    1.529   .     S
C537   H538    1.116   .     S
C540   H542    1.112   .     S
C540   H541    1.111   .     S
C540   C927    1.526   .     S
C543   H545    1.110   .     S
C543   H546    1.109   .     S
C543   H544    1.111   .     S
O547   C548    1.412   .     S
C548   H549    1.116   .     S
C548   C551    1.529   .     S
C548   H550    1.112   .     S
C551   H553    1.112   .     S
C551   C554    1.526   .     S
C551   H552    1.112   .     S
C554   H557    1.111   .     S
C554   H939    1.111   .     S
C554   H940    1.111   .     S
O558   C559    1.413   .     S
C559   H561    1.113   .     S
C559   C562    1.529   .     S
C559   H560    1.116   .     S
C562   H564    1.112   .     S
C562   H563    1.111   .     S
C565   H567    1.110   .     S
C565   H566    1.111   .     S
C565   H568    1.109   .     S
C565   C946    1.526   .     S
C577   C601    1.437   .     S
C577   O614    1.289   .     A
C577   O611    1.288   .     A
C578   C602    1.437   .     S
C578   O612    1.289   .     A
C578   O613    1.288   .     A
C579   C583    1.417   .     A
C579   N609    1.372   .     A
C579   O621    1.382   .     S
C580   C584    1.416   .     A
C580   O632    1.382   .     S
C580   N610    1.367   .     A
C581   O643    1.382   .     S
C581   N609    1.372   .     A
C581   C585    1.417   .     A
C582   N610    1.367   .     A
C582   C586    1.416   .     A
C582   O654    1.382   .     S
C583   C589    1.404   .     A
C583   H669    1.082   .     S
C584   H670    1.082   .     S
C584   C590    1.407   .     A
C585   C589    1.404   .     A
C585   H671    1.082   .     S
C586   C590    1.407   .     A
C586   H672    1.082   .     S
C587   O618    1.275   .     A
C587   C591    1.360   .     S
C587   O615    1.275   .     A
C588   O616    1.275   .     A
C588   C592    1.360   .     S
C588   O617    1.275   .     A
C590   C397    1.514   1_565 S
C592   C975    1.161   .     S
C593   H605    1.083   .     S
C593   C603    1.400   .     A
C593   C597    1.380   .     A
C594   H606    1.083   .     S
C594   C604    1.399   .     A
C594   C598    1.379   .     A
C595   H607    1.083   .     S
C595   C599    1.380   .     A
C595   C604    1.400   .     A
C596   C600    1.379   .     A
C596   H608    1.083   .     S
C596   C603    1.399   .     A
C597   H665    1.084   .     S
C597   C601    1.399   .     A
C598   H666    1.082   .     S
C598   C602    1.398   .     A
C599   C602    1.399   .     A
C599   H667    1.084   .     S
C600   H668    1.082   .     S
C600   C601    1.398   .     A
C603   C700    1.445   1_455 S
C604   C699    1.445   .     S
N609   Zn620   2.010   .     S
N610   Zn619   2.010   .     S
O611   Zn619   2.002   .     S
O612   Zn620   2.002   .     S
O613   Zn619   2.002   .     S
O614   Zn620   2.002   .     S
O615   Zn619   1.942   .     S
O616   Zn620   1.942   .     S
O617   Zn619   1.942   .     S
O618   Zn620   1.942   .     S
O621   C622    1.412   .     S
C622   C625    1.529   .     S
C622   H624    1.112   .     S
C622   H623    1.116   .     S
C625   H627    1.112   .     S
C625   C628    1.526   .     S
C625   H626    1.112   .     S
C628   H631    1.111   .     S
H629   C1012   1.111   .     S
H630   C1012   1.110   .     S
O632   C633    1.413   .     S
C633   H635    1.113   .     S
C633   C636    1.529   .     S
C633   H634    1.116   .     S
C636   H638    1.112   .     S
C636   H637    1.111   .     S
C636   C1023   1.526   .     S
C639   H641    1.110   .     S
C639   H642    1.109   .     S
C639   H640    1.111   .     S
O643   C644    1.412   .     S
C644   H645    1.116   .     S
C644   C647    1.529   .     S
C644   H646    1.112   .     S
C647   H649    1.112   .     S
C647   C650    1.526   .     S
C647   H648    1.112   .     S
C650   H653    1.111   .     S
C650   H1035   1.111   .     S
C650   H1036   1.111   .     S
O654   C655    1.413   .     S
C655   H657    1.113   .     S
C655   C658    1.529   .     S
C655   H656    1.116   .     S
C658   H660    1.112   .     S
C658   H659    1.111   .     S
C661   H663    1.110   .     S
C661   H662    1.111   .     S
C661   H664    1.109   .     S
C661   C1042   1.526   .     S
C673   C697    1.437   .     S
C673   O710    1.289   .     A
C673   O707    1.288   .     A
C674   C698    1.437   .     S
C674   O708    1.289   .     A
C674   O709    1.288   .     A
C675   C679    1.417   .     A
C675   N705    1.372   .     A
C675   O717    1.382   .     S
C676   C680    1.416   .     A
C676   O728    1.382   .     S
C676   N706    1.367   .     A
C677   O739    1.382   .     S
C677   N705    1.372   .     A
C677   C681    1.417   .     A
C678   N706    1.367   .     A
C678   C682    1.416   .     A
C678   O750    1.382   .     S
C679   C685    1.404   .     A
C679   H765    1.082   .     S
C680   H766    1.082   .     S
C680   C686    1.407   .     A
C681   C685    1.404   .     A
C681   H767    1.082   .     S
C682   C686    1.407   .     A
C682   H768    1.082   .     S
C683   O714    1.275   .     A
C683   C687    1.360   .     S
C683   O711    1.275   .     A
C684   O712    1.275   .     A
C684   C688    1.360   .     S
C684   O713    1.275   .     A
C686   C493    1.514   1_565 S
C688   C1071   1.161   .     S
C689   H701    1.083   .     S
C689   C699    1.400   .     A
C689   C693    1.380   .     A
C690   H702    1.083   .     S
C690   C700    1.399   .     A
C690   C694    1.379   .     A
C691   H703    1.083   .     S
C691   C695    1.380   .     A
C691   C700    1.400   .     A
C692   C696    1.379   .     A
C692   H704    1.083   .     S
C692   C699    1.399   .     A
C693   H761    1.084   .     S
C693   C697    1.399   .     A
C694   H762    1.082   .     S
C694   C698    1.398   .     A
C695   C698    1.399   .     A
C695   H763    1.084   .     S
C696   H764    1.082   .     S
C696   C697    1.398   .     A
C700   C603    1.445   1_655 S
N705   Zn716   2.010   .     S
N706   Zn715   2.010   .     S
O707   Zn715   2.002   .     S
O708   Zn716   2.002   .     S
O709   Zn715   2.002   .     S
O710   Zn716   2.002   .     S
O711   Zn715   1.942   .     S
O712   Zn716   1.942   .     S
O713   Zn715   1.942   .     S
O714   Zn716   1.942   .     S
O717   C718    1.412   .     S
C718   C721    1.529   .     S
C718   H720    1.112   .     S
C718   H719    1.116   .     S
C721   H723    1.112   .     S
C721   C724    1.526   .     S
C721   H722    1.112   .     S
C724   H727    1.111   .     S
H725   C1108   1.111   .     S
H726   C1108   1.110   .     S
O728   C729    1.413   .     S
C729   H731    1.113   .     S
C729   C732    1.529   .     S
C729   H730    1.116   .     S
C732   H734    1.112   .     S
C732   H733    1.111   .     S
C732   C1119   1.526   .     S
C735   H737    1.110   .     S
C735   H738    1.109   .     S
C735   H736    1.111   .     S
O739   C740    1.412   .     S
C740   H741    1.116   .     S
C740   C743    1.529   .     S
C740   H742    1.112   .     S
C743   H745    1.112   .     S
C743   C746    1.526   .     S
C743   H744    1.112   .     S
C746   H749    1.111   .     S
C746   H1131   1.111   .     S
C746   H1132   1.111   .     S
O750   C751    1.413   .     S
C751   H753    1.113   .     S
C751   C754    1.529   .     S
C751   H752    1.116   .     S
C754   H756    1.112   .     S
C754   H755    1.111   .     S
C757   H759    1.110   .     S
C757   H758    1.111   .     S
C757   H760    1.109   .     S
C757   C1138   1.526   .     S
C769   C793    1.437   .     S
C769   O806    1.289   .     A
C769   O803    1.288   .     A
C770   C794    1.437   .     S
C770   O804    1.289   .     A
C770   O805    1.288   .     A
C771   C775    1.417   .     A
C771   N801    1.372   .     A
C771   O813    1.382   .     S
C772   C776    1.416   .     A
C772   O824    1.382   .     S
C772   N802    1.367   .     A
C773   O835    1.382   .     S
C773   N801    1.372   .     A
C773   C777    1.417   .     A
C774   N802    1.367   .     A
C774   C778    1.416   .     A
C774   O846    1.382   .     S
C775   C781    1.404   .     A
C775   H861    1.082   .     S
C776   H862    1.082   .     S
C776   C782    1.407   .     A
C777   C781    1.404   .     A
C777   H863    1.082   .     S
C778   C782    1.407   .     A
C778   H864    1.082   .     S
C779   O810    1.275   .     A
C779   C783    1.360   .     S
C779   O807    1.275   .     A
C780   O808    1.275   .     A
C780   C784    1.360   .     S
C780   O809    1.275   .     A
C781   C974    1.514   1_545 S
C782   C973    1.514   .     S
C784   C15     1.161   1_556 S
C785   H797    1.083   .     S
C785   C795    1.400   .     A
C785   C789    1.380   .     A
C786   H798    1.083   .     S
C786   C796    1.399   .     A
C786   C790    1.379   .     A
C787   H799    1.083   .     S
C787   C791    1.380   .     A
C787   C796    1.400   .     A
C788   C792    1.379   .     A
C788   H800    1.083   .     S
C788   C795    1.399   .     A
C789   H857    1.084   .     S
C789   C793    1.399   .     A
C790   H858    1.082   .     S
C790   C794    1.398   .     A
C791   C794    1.399   .     A
C791   H859    1.084   .     S
C792   H860    1.082   .     S
C792   C793    1.398   .     A
C795   C892    1.445   1_455 S
C796   C891    1.445   .     S
N801   Zn812   2.010   .     S
N802   Zn811   2.010   .     S
O803   Zn811   2.002   .     S
O804   Zn812   2.002   .     S
O805   Zn811   2.002   .     S
O806   Zn812   2.002   .     S
O807   Zn811   1.942   .     S
O808   Zn812   1.942   .     S
O809   Zn811   1.942   .     S
O810   Zn812   1.942   .     S
O813   C814    1.412   .     S
C814   C817    1.529   .     S
C814   H816    1.112   .     S
C814   H815    1.116   .     S
C817   H819    1.112   .     S
C817   C820    1.526   .     S
C817   H818    1.112   .     S
C820   H823    1.111   .     S
H821   C52     1.111   1_556 S
H822   C52     1.110   1_556 S
O824   C825    1.413   .     S
C825   H827    1.113   .     S
C825   C828    1.529   .     S
C825   H826    1.116   .     S
C828   H830    1.112   .     S
C828   H829    1.111   .     S
C828   C63     1.526   1_556 S
C831   H833    1.110   .     S
C831   H834    1.109   .     S
C831   H832    1.111   .     S
O835   C836    1.412   .     S
C836   H837    1.116   .     S
C836   C839    1.529   .     S
C836   H838    1.112   .     S
C839   H841    1.112   .     S
C839   C842    1.526   .     S
C839   H840    1.112   .     S
C842   H845    1.111   .     S
C842   H75     1.111   1_556 S
C842   H76     1.111   1_556 S
O846   C847    1.413   .     S
C847   H849    1.113   .     S
C847   C850    1.529   .     S
C847   H848    1.116   .     S
C850   H852    1.112   .     S
C850   H851    1.111   .     S
C853   H855    1.110   .     S
C853   H854    1.111   .     S
C853   H856    1.109   .     S
C853   C82     1.526   1_556 S
C865   C889    1.437   .     S
C865   O902    1.289   .     A
C865   O899    1.288   .     A
C866   C890    1.437   .     S
C866   O900    1.289   .     A
C866   O901    1.288   .     A
C867   C871    1.417   .     A
C867   N897    1.372   .     A
C867   O909    1.382   .     S
C868   C872    1.416   .     A
C868   O920    1.382   .     S
C868   N898    1.367   .     A
C869   O931    1.382   .     S
C869   N897    1.372   .     A
C869   C873    1.417   .     A
C870   N898    1.367   .     A
C870   C874    1.416   .     A
C870   O942    1.382   .     S
C871   C877    1.404   .     A
C871   H957    1.082   .     S
C872   H958    1.082   .     S
C872   C878    1.407   .     A
C873   C877    1.404   .     A
C873   H959    1.082   .     S
C874   C878    1.407   .     A
C874   H960    1.082   .     S
C875   O906    1.275   .     A
C875   C879    1.360   .     S
C875   O903    1.275   .     A
C876   O904    1.275   .     A
C876   C880    1.360   .     S
C876   O905    1.275   .     A
C877   C1070   1.514   1_545 S
C878   C1069   1.514   .     S
C880   C111    1.161   1_556 S
C881   H893    1.083   .     S
C881   C891    1.400   .     A
C881   C885    1.380   .     A
C882   H894    1.083   .     S
C882   C892    1.399   .     A
C882   C886    1.379   .     A
C883   H895    1.083   .     S
C883   C887    1.380   .     A
C883   C892    1.400   .     A
C884   C888    1.379   .     A
C884   H896    1.083   .     S
C884   C891    1.399   .     A
C885   H953    1.084   .     S
C885   C889    1.399   .     A
C886   H954    1.082   .     S
C886   C890    1.398   .     A
C887   C890    1.399   .     A
C887   H955    1.084   .     S
C888   H956    1.082   .     S
C888   C889    1.398   .     A
C892   C795    1.445   1_655 S
N897   Zn908   2.010   .     S
N898   Zn907   2.010   .     S
O899   Zn907   2.002   .     S
O900   Zn908   2.002   .     S
O901   Zn907   2.002   .     S
O902   Zn908   2.002   .     S
O903   Zn907   1.942   .     S
O904   Zn908   1.942   .     S
O905   Zn907   1.942   .     S
O906   Zn908   1.942   .     S
O909   C910    1.412   .     S
C910   C913    1.529   .     S
C910   H912    1.112   .     S
C910   H911    1.116   .     S
C913   H915    1.112   .     S
C913   C916    1.526   .     S
C913   H914    1.112   .     S
C916   H919    1.111   .     S
H917   C148    1.111   1_556 S
H918   C148    1.110   1_556 S
O920   C921    1.413   .     S
C921   H923    1.113   .     S
C921   C924    1.529   .     S
C921   H922    1.116   .     S
C924   H926    1.112   .     S
C924   H925    1.111   .     S
C924   C159    1.526   1_556 S
C927   H929    1.110   .     S
C927   H930    1.109   .     S
C927   H928    1.111   .     S
O931   C932    1.412   .     S
C932   H933    1.116   .     S
C932   C935    1.529   .     S
C932   H934    1.112   .     S
C935   H937    1.112   .     S
C935   C938    1.526   .     S
C935   H936    1.112   .     S
C938   H941    1.111   .     S
C938   H171    1.111   1_556 S
C938   H172    1.111   1_556 S
O942   C943    1.413   .     S
C943   H945    1.113   .     S
C943   C946    1.529   .     S
C943   H944    1.116   .     S
C946   H948    1.112   .     S
C946   H947    1.111   .     S
C949   H951    1.110   .     S
C949   H950    1.111   .     S
C949   H952    1.109   .     S
C949   C178    1.526   1_556 S
C961   C985    1.437   .     S
C961   O998    1.289   .     A
C961   O995    1.288   .     A
C962   C986    1.437   .     S
C962   O996    1.289   .     A
C962   O997    1.288   .     A
C963   C967    1.417   .     A
C963   N993    1.372   .     A
C963   O1005   1.382   .     S
C964   C968    1.416   .     A
C964   O1016   1.382   .     S
C964   N994    1.367   .     A
C965   O1027   1.382   .     S
C965   N993    1.372   .     A
C965   C969    1.417   .     A
C966   N994    1.367   .     A
C966   C970    1.416   .     A
C966   O1038   1.382   .     S
C967   C973    1.404   .     A
C967   H1053   1.082   .     S
C968   H1054   1.082   .     S
C968   C974    1.407   .     A
C969   C973    1.404   .     A
C969   H1055   1.082   .     S
C970   C974    1.407   .     A
C970   H1056   1.082   .     S
C971   O1002   1.275   .     A
C971   C975    1.360   .     S
C971   O999    1.275   .     A
C972   O1000   1.275   .     A
C972   C976    1.360   .     S
C972   O1001   1.275   .     A
C974   C781    1.514   1_565 S
C976   C207    1.161   1_556 S
C977   H989    1.083   .     S
C977   C987    1.400   .     A
C977   C981    1.380   .     A
C978   H990    1.083   .     S
C978   C988    1.399   .     A
C978   C982    1.379   .     A
C979   H991    1.083   .     S
C979   C983    1.380   .     A
C979   C988    1.400   .     A
C980   C984    1.379   .     A
C980   H992    1.083   .     S
C980   C987    1.399   .     A
C981   H1049   1.084   .     S
C981   C985    1.399   .     A
C982   H1050   1.082   .     S
C982   C986    1.398   .     A
C983   C986    1.399   .     A
C983   H1051   1.084   .     S
C984   H1052   1.082   .     S
C984   C985    1.398   .     A
C987   C1084   1.445   1_455 S
C988   C1083   1.445   .     S
N993   Zn1004  2.010   .     S
N994   Zn1003  2.010   .     S
O995   Zn1003  2.002   .     S
O996   Zn1004  2.002   .     S
O997   Zn1003  2.002   .     S
O998   Zn1004  2.002   .     S
O999   Zn1003  1.942   .     S
O1000  Zn1004  1.942   .     S
O1001  Zn1003  1.942   .     S
O1002  Zn1004  1.942   .     S
O1005  C1006   1.412   .     S
C1006  C1009   1.529   .     S
C1006  H1008   1.112   .     S
C1006  H1007   1.116   .     S
C1009  H1011   1.112   .     S
C1009  C1012   1.526   .     S
C1009  H1010   1.112   .     S
C1012  H1015   1.111   .     S
H1013  C244    1.111   1_556 S
H1014  C244    1.110   1_556 S
O1016  C1017   1.413   .     S
C1017  H1019   1.113   .     S
C1017  C1020   1.529   .     S
C1017  H1018   1.116   .     S
C1020  H1022   1.112   .     S
C1020  H1021   1.111   .     S
C1020  C255    1.526   1_556 S
C1023  H1025   1.110   .     S
C1023  H1026   1.109   .     S
C1023  H1024   1.111   .     S
O1027  C1028   1.412   .     S
C1028  H1029   1.116   .     S
C1028  C1031   1.529   .     S
C1028  H1030   1.112   .     S
C1031  H1033   1.112   .     S
C1031  C1034   1.526   .     S
C1031  H1032   1.112   .     S
C1034  H1037   1.111   .     S
C1034  H267    1.111   1_556 S
C1034  H268    1.111   1_556 S
O1038  C1039   1.413   .     S
C1039  H1041   1.113   .     S
C1039  C1042   1.529   .     S
C1039  H1040   1.116   .     S
C1042  H1044   1.112   .     S
C1042  H1043   1.111   .     S
C1045  H1047   1.110   .     S
C1045  H1046   1.111   .     S
C1045  H1048   1.109   .     S
C1045  C274    1.526   1_556 S
C1057  C1081   1.437   .     S
C1057  O1094   1.289   .     A
C1057  O1091   1.288   .     A
C1058  C1082   1.437   .     S
C1058  O1092   1.289   .     A
C1058  O1093   1.288   .     A
C1059  C1063   1.417   .     A
C1059  N1089   1.372   .     A
C1059  O1101   1.382   .     S
C1060  C1064   1.416   .     A
C1060  O1112   1.382   .     S
C1060  N1090   1.367   .     A
C1061  O1123   1.382   .     S
C1061  N1089   1.372   .     A
C1061  C1065   1.417   .     A
C1062  N1090   1.367   .     A
C1062  C1066   1.416   .     A
C1062  O1134   1.382   .     S
C1063  C1069   1.404   .     A
C1063  H1149   1.082   .     S
C1064  H1150   1.082   .     S
C1064  C1070   1.407   .     A
C1065  C1069   1.404   .     A
C1065  H1151   1.082   .     S
C1066  C1070   1.407   .     A
C1066  H1152   1.082   .     S
C1067  O1098   1.275   .     A
C1067  C1071   1.360   .     S
C1067  O1095   1.275   .     A
C1068  O1096   1.275   .     A
C1068  C1072   1.360   .     S
C1068  O1097   1.275   .     A
C1070  C877    1.514   1_565 S
C1072  C303    1.161   1_556 S
C1073  H1085   1.083   .     S
C1073  C1083   1.400   .     A
C1073  C1077   1.380   .     A
C1074  H1086   1.083   .     S
C1074  C1084   1.399   .     A
C1074  C1078   1.379   .     A
C1075  H1087   1.083   .     S
C1075  C1079   1.380   .     A
C1075  C1084   1.400   .     A
C1076  C1080   1.379   .     A
C1076  H1088   1.083   .     S
C1076  C1083   1.399   .     A
C1077  H1145   1.084   .     S
C1077  C1081   1.399   .     A
C1078  H1146   1.082   .     S
C1078  C1082   1.398   .     A
C1079  C1082   1.399   .     A
C1079  H1147   1.084   .     S
C1080  H1148   1.082   .     S
C1080  C1081   1.398   .     A
C1084  C987    1.445   1_655 S
N1089  Zn1100  2.010   .     S
N1090  Zn1099  2.010   .     S
O1091  Zn1099  2.002   .     S
O1092  Zn1100  2.002   .     S
O1093  Zn1099  2.002   .     S
O1094  Zn1100  2.002   .     S
O1095  Zn1099  1.942   .     S
O1096  Zn1100  1.942   .     S
O1097  Zn1099  1.942   .     S
O1098  Zn1100  1.942   .     S
O1101  C1102   1.412   .     S
C1102  C1105   1.529   .     S
C1102  H1104   1.112   .     S
C1102  H1103   1.116   .     S
C1105  H1107   1.112   .     S
C1105  C1108   1.526   .     S
C1105  H1106   1.112   .     S
C1108  H1111   1.111   .     S
H1109  C340    1.111   1_556 S
H1110  C340    1.110   1_556 S
O1112  C1113   1.413   .     S
C1113  H1115   1.113   .     S
C1113  C1116   1.529   .     S
C1113  H1114   1.116   .     S
C1116  H1118   1.112   .     S
C1116  H1117   1.111   .     S
C1116  C351    1.526   1_556 S
C1119  H1121   1.110   .     S
C1119  H1122   1.109   .     S
C1119  H1120   1.111   .     S
O1123  C1124   1.412   .     S
C1124  H1125   1.116   .     S
C1124  C1127   1.529   .     S
C1124  H1126   1.112   .     S
C1127  H1129   1.112   .     S
C1127  C1130   1.526   .     S
C1127  H1128   1.112   .     S
C1130  H1133   1.111   .     S
C1130  H363    1.111   1_556 S
C1130  H364    1.111   1_556 S
O1134  C1135   1.413   .     S
C1135  H1137   1.113   .     S
C1135  C1138   1.529   .     S
C1135  H1136   1.116   .     S
C1138  H1140   1.112   .     S
C1138  H1139   1.111   .     S
C1141  H1143   1.110   .     S
C1141  H1142   1.111   .     S
C1141  H1144   1.109   .     S
C1141  C370    1.526   1_556 S
