data_str_m3_o1_o10_pcu_sym.51
_audit_creation_date              2020-01-03
_audit_creation_method            'Materials Studio'
_symmetry_space_group_name_H-M    'P1'
_symmetry_Int_Tables_number       1
_symmetry_cell_setting            triclinic
loop_
_symmetry_equiv_pos_as_xyz
  x,y,z
_cell_length_a                    25.7210
_cell_length_b                    31.8564
_cell_length_c                    29.7971
_cell_angle_alpha                 88.8515
_cell_angle_beta                  98.0559
_cell_angle_gamma                 91.6259
loop_
_atom_site_label
_atom_site_type_symbol
_atom_site_fract_x
_atom_site_fract_y
_atom_site_fract_z
_atom_site_U_iso_or_equiv
_atom_site_adp_type
_atom_site_occupancy
C1     C     0.16650   0.08693   0.16703   0.00000  Uiso   1.00
C2     C     0.21405   0.02287   0.18178   0.00000  Uiso   1.00
C3     C     0.16725   0.29066   0.16548   0.00000  Uiso   1.00
C4     C     0.16608   0.04267   0.16786   0.00000  Uiso   1.00
C5     C     0.20626   0.18678   0.02747   0.00000  Uiso   1.00
C6     C     0.12707   0.14656   0.30586   0.00000  Uiso   1.00
C7     C     0.20614   0.18615   0.31321   0.00000  Uiso   1.00
C8     C     0.12719   0.14718   0.02013   0.00000  Uiso   1.00
C9     C     0.06723   0.04358   0.14012   0.00000  Uiso   1.00
C10    C     0.26610   0.28975   0.19322   0.00000  Uiso   1.00
C11    C     0.06986   0.28409   0.13597   0.00000  Uiso   1.00
C12    C     0.16684   0.24640   0.16630   0.00000  Uiso   1.00
C13    C     0.26347   0.04924   0.19736   0.00000  Uiso   1.00
C14    C     0.25047   0.21004   0.05345   0.00000  Uiso   1.00
C15    C     0.08286   0.12329   0.27988   0.00000  Uiso   1.00
C16    C     0.06720   0.16659   0.15487   0.00000  Uiso   1.00
C17    C     0.26613   0.16675   0.17846   0.00000  Uiso   1.00
C18    C     0.01220   0.16552   0.14857   0.00000  Uiso   1.00
C19    C     0.32113   0.16781   0.18476   0.00000  Uiso   1.00
C20    C     0.11851   0.02082   0.15316   0.00000  Uiso   1.00
C21    C     0.21482   0.31252   0.18018   0.00000  Uiso   1.00
C22    C     0.11928   0.31046   0.15155   0.00000  Uiso   1.00
H23    H     0.32528   0.16238   0.11421   0.00000  Uiso   1.00
H24    H     0.28111   0.29509   0.22949   0.00000  Uiso   1.00
H25    H     0.06062   0.26316   0.16420   0.00000  Uiso   1.00
H26    H     0.03450   0.30241   0.12441   0.00000  Uiso   1.00
H27    H     0.07628   0.26458   0.10689   0.00000  Uiso   1.00
H28    H     0.27271   0.07017   0.16913   0.00000  Uiso   1.00
H29    H     0.25706   0.06875   0.22645   0.00000  Uiso   1.00
H30    H     0.29884   0.03093   0.20892   0.00000  Uiso   1.00
H31    H     0.28969   0.20727   0.04448   0.00000  Uiso   1.00
H32    H     0.04364   0.12606   0.28885   0.00000  Uiso   1.00
H33    H     0.00805   0.17096   0.21912   0.00000  Uiso   1.00
H34    H     0.23736   0.20200   0.29804   0.00000  Uiso   1.00
H35    H     0.09597   0.13133   0.03529   0.00000  Uiso   1.00
H36    H     0.07048   0.07794   0.14482   0.00000  Uiso   1.00
H37    H     0.05222   0.03825   0.10385   0.00000  Uiso   1.00
H38    H     0.03785   0.03183   0.16160   0.00000  Uiso   1.00
H39    H     0.26285   0.25540   0.18852   0.00000  Uiso   1.00
H40    H     0.29548   0.30150   0.17174   0.00000  Uiso   1.00
N41    N     0.16665   0.16666   0.28573   0.00000  Uiso   1.00
N42    N     0.16668   0.16668   0.04760   0.00000  Uiso   1.00
O43    O     0.16666   0.10558   0.20487   0.00000  Uiso   1.00
O44    O     0.08980   0.09828   0.25109   0.00000  Uiso   1.00
O45    O     0.16667   0.22775   0.12846   0.00000  Uiso   1.00
O46    O     0.16666   0.10559   0.12843   0.00000  Uiso   1.00
O47    O     0.16667   0.22774   0.20490   0.00000  Uiso   1.00
O48    O     0.09058   0.16666   0.19595   0.00000  Uiso   1.00
O49    O     0.24275   0.16667   0.13739   0.00000  Uiso   1.00
O50    O     0.09058   0.16667   0.11950   0.00000  Uiso   1.00
O51    O     0.24275   0.16666   0.21383   0.00000  Uiso   1.00
O52    O     0.24353   0.23505   0.08225   0.00000  Uiso   1.00
Zn53   Zn    0.16667   0.16666   0.21771   0.00000  Uiso   1.00
Zn54   Zn    0.16667   0.16667   0.11563   0.00000  Uiso   1.00
C55    C     0.49983   0.08693   0.16703   0.00000  Uiso   1.00
C56    C     0.54739   0.02287   0.18178   0.00000  Uiso   1.00
C57    C     0.50059   0.29066   0.16548   0.00000  Uiso   1.00
C58    C     0.49941   0.04267   0.16786   0.00000  Uiso   1.00
C59    C     0.53959   0.18678   0.02747   0.00000  Uiso   1.00
C60    C     0.46041   0.14656   0.30586   0.00000  Uiso   1.00
C61    C     0.53947   0.18615   0.31321   0.00000  Uiso   1.00
C62    C     0.46053   0.14718   0.02013   0.00000  Uiso   1.00
C63    C     0.40056   0.04358   0.14012   0.00000  Uiso   1.00
C64    C     0.59943   0.28975   0.19322   0.00000  Uiso   1.00
C65    C     0.40320   0.28409   0.13597   0.00000  Uiso   1.00
C66    C     0.50017   0.24640   0.16630   0.00000  Uiso   1.00
C67    C     0.59680   0.04924   0.19736   0.00000  Uiso   1.00
C68    C     0.58380   0.21004   0.05345   0.00000  Uiso   1.00
C69    C     0.41620   0.12329   0.27988   0.00000  Uiso   1.00
C70    C     0.40054   0.16659   0.15487   0.00000  Uiso   1.00
C71    C     0.59946   0.16675   0.17846   0.00000  Uiso   1.00
C72    C     0.34554   0.16552   0.14857   0.00000  Uiso   1.00
C73    C     0.65446   0.16781   0.18476   0.00000  Uiso   1.00
C74    C     0.45184   0.02082   0.15316   0.00000  Uiso   1.00
C75    C     0.54816   0.31252   0.18018   0.00000  Uiso   1.00
C76    C     0.45261   0.31046   0.15155   0.00000  Uiso   1.00
H77    H     0.65861   0.16238   0.11421   0.00000  Uiso   1.00
H78    H     0.61444   0.29509   0.22949   0.00000  Uiso   1.00
H79    H     0.39395   0.26316   0.16420   0.00000  Uiso   1.00
H80    H     0.36783   0.30241   0.12441   0.00000  Uiso   1.00
H81    H     0.40961   0.26458   0.10689   0.00000  Uiso   1.00
H82    H     0.60605   0.07017   0.16913   0.00000  Uiso   1.00
H83    H     0.59039   0.06875   0.22645   0.00000  Uiso   1.00
H84    H     0.63217   0.03093   0.20892   0.00000  Uiso   1.00
H85    H     0.62303   0.20727   0.04448   0.00000  Uiso   1.00
H86    H     0.37697   0.12606   0.28885   0.00000  Uiso   1.00
H87    H     0.34139   0.17096   0.21912   0.00000  Uiso   1.00
H88    H     0.57070   0.20200   0.29804   0.00000  Uiso   1.00
H89    H     0.42930   0.13133   0.03529   0.00000  Uiso   1.00
H90    H     0.40382   0.07794   0.14482   0.00000  Uiso   1.00
H91    H     0.38556   0.03825   0.10385   0.00000  Uiso   1.00
H92    H     0.37119   0.03183   0.16160   0.00000  Uiso   1.00
H93    H     0.59618   0.25540   0.18852   0.00000  Uiso   1.00
H94    H     0.62881   0.30150   0.17174   0.00000  Uiso   1.00
N95    N     0.49999   0.16666   0.28573   0.00000  Uiso   1.00
N96    N     0.50001   0.16668   0.04760   0.00000  Uiso   1.00
O97    O     0.50000   0.10558   0.20487   0.00000  Uiso   1.00
O98    O     0.42313   0.09828   0.25109   0.00000  Uiso   1.00
O99    O     0.50000   0.22775   0.12846   0.00000  Uiso   1.00
O100   O     0.50000   0.10559   0.12843   0.00000  Uiso   1.00
O101   O     0.50000   0.22774   0.20490   0.00000  Uiso   1.00
O102   O     0.42392   0.16666   0.19595   0.00000  Uiso   1.00
O103   O     0.57608   0.16667   0.13739   0.00000  Uiso   1.00
O104   O     0.42392   0.16667   0.11950   0.00000  Uiso   1.00
O105   O     0.57608   0.16666   0.21383   0.00000  Uiso   1.00
O106   O     0.57687   0.23505   0.08225   0.00000  Uiso   1.00
Zn107  Zn    0.50000   0.16666   0.21771   0.00000  Uiso   1.00
Zn108  Zn    0.50000   0.16667   0.11563   0.00000  Uiso   1.00
C109   C     0.83316   0.08693   0.16703   0.00000  Uiso   1.00
C110   C     0.88072   0.02287   0.18178   0.00000  Uiso   1.00
C111   C     0.83392   0.29066   0.16548   0.00000  Uiso   1.00
C112   C     0.83275   0.04267   0.16786   0.00000  Uiso   1.00
C113   C     0.87293   0.18678   0.02747   0.00000  Uiso   1.00
C114   C     0.79374   0.14656   0.30586   0.00000  Uiso   1.00
C115   C     0.87281   0.18615   0.31321   0.00000  Uiso   1.00
C116   C     0.79386   0.14718   0.02013   0.00000  Uiso   1.00
C117   C     0.73390   0.04358   0.14012   0.00000  Uiso   1.00
C118   C     0.93277   0.28975   0.19322   0.00000  Uiso   1.00
C119   C     0.73653   0.28409   0.13597   0.00000  Uiso   1.00
C120   C     0.83350   0.24640   0.16630   0.00000  Uiso   1.00
C121   C     0.93014   0.04924   0.19736   0.00000  Uiso   1.00
C122   C     0.91714   0.21004   0.05345   0.00000  Uiso   1.00
C123   C     0.74953   0.12329   0.27988   0.00000  Uiso   1.00
C124   C     0.73387   0.16659   0.15487   0.00000  Uiso   1.00
C125   C     0.93280   0.16675   0.17846   0.00000  Uiso   1.00
C126   C     0.67887   0.16552   0.14857   0.00000  Uiso   1.00
C127   C     0.98780   0.16781   0.18476   0.00000  Uiso   1.00
C128   C     0.78518   0.02082   0.15316   0.00000  Uiso   1.00
C129   C     0.88149   0.31252   0.18018   0.00000  Uiso   1.00
C130   C     0.78595   0.31046   0.15155   0.00000  Uiso   1.00
H131   H     0.99195   0.16238   0.11421   0.00000  Uiso   1.00
H132   H     0.94777   0.29509   0.22949   0.00000  Uiso   1.00
H133   H     0.72728   0.26316   0.16420   0.00000  Uiso   1.00
H134   H     0.70116   0.30241   0.12441   0.00000  Uiso   1.00
H135   H     0.74294   0.26458   0.10689   0.00000  Uiso   1.00
H136   H     0.93938   0.07017   0.16913   0.00000  Uiso   1.00
H137   H     0.92373   0.06875   0.22645   0.00000  Uiso   1.00
H138   H     0.96551   0.03093   0.20892   0.00000  Uiso   1.00
H139   H     0.95636   0.20727   0.04448   0.00000  Uiso   1.00
H140   H     0.71031   0.12606   0.28885   0.00000  Uiso   1.00
H141   H     0.67472   0.17096   0.21912   0.00000  Uiso   1.00
H142   H     0.90403   0.20200   0.29804   0.00000  Uiso   1.00
H143   H     0.76264   0.13133   0.03529   0.00000  Uiso   1.00
H144   H     0.73715   0.07794   0.14482   0.00000  Uiso   1.00
H145   H     0.71889   0.03825   0.10385   0.00000  Uiso   1.00
H146   H     0.70452   0.03183   0.16160   0.00000  Uiso   1.00
H147   H     0.92952   0.25540   0.18852   0.00000  Uiso   1.00
H148   H     0.96215   0.30150   0.17174   0.00000  Uiso   1.00
N149   N     0.83332   0.16666   0.28573   0.00000  Uiso   1.00
N150   N     0.83335   0.16668   0.04760   0.00000  Uiso   1.00
O151   O     0.83333   0.10558   0.20487   0.00000  Uiso   1.00
O152   O     0.75647   0.09828   0.25109   0.00000  Uiso   1.00
O153   O     0.83334   0.22775   0.12846   0.00000  Uiso   1.00
O154   O     0.83333   0.10559   0.12843   0.00000  Uiso   1.00
O155   O     0.83334   0.22774   0.20490   0.00000  Uiso   1.00
O156   O     0.75725   0.16666   0.19595   0.00000  Uiso   1.00
O157   O     0.90942   0.16667   0.13739   0.00000  Uiso   1.00
O158   O     0.75725   0.16667   0.11950   0.00000  Uiso   1.00
O159   O     0.90942   0.16666   0.21383   0.00000  Uiso   1.00
O160   O     0.91020   0.23505   0.08225   0.00000  Uiso   1.00
Zn161  Zn    0.83333   0.16666   0.21771   0.00000  Uiso   1.00
Zn162  Zn    0.83333   0.16667   0.11563   0.00000  Uiso   1.00
C163   C     0.16650   0.42027   0.16703   0.00000  Uiso   1.00
C164   C     0.21405   0.35621   0.18178   0.00000  Uiso   1.00
C165   C     0.16725   0.62399   0.16548   0.00000  Uiso   1.00
C166   C     0.16608   0.37601   0.16786   0.00000  Uiso   1.00
C167   C     0.20626   0.52011   0.02747   0.00000  Uiso   1.00
C168   C     0.12707   0.47989   0.30586   0.00000  Uiso   1.00
C169   C     0.20614   0.51948   0.31321   0.00000  Uiso   1.00
C170   C     0.12719   0.48052   0.02013   0.00000  Uiso   1.00
C171   C     0.06723   0.37692   0.14012   0.00000  Uiso   1.00
C172   C     0.26610   0.62308   0.19322   0.00000  Uiso   1.00
C173   C     0.06986   0.61743   0.13597   0.00000  Uiso   1.00
C174   C     0.16684   0.57973   0.16630   0.00000  Uiso   1.00
C175   C     0.26347   0.38257   0.19736   0.00000  Uiso   1.00
C176   C     0.25047   0.54338   0.05345   0.00000  Uiso   1.00
C177   C     0.08286   0.45663   0.27988   0.00000  Uiso   1.00
C178   C     0.06720   0.49992   0.15487   0.00000  Uiso   1.00
C179   C     0.26613   0.50008   0.17846   0.00000  Uiso   1.00
C180   C     0.01220   0.49885   0.14857   0.00000  Uiso   1.00
C181   C     0.32113   0.50115   0.18476   0.00000  Uiso   1.00
C182   C     0.11851   0.35415   0.15316   0.00000  Uiso   1.00
C183   C     0.21482   0.64585   0.18018   0.00000  Uiso   1.00
C184   C     0.11928   0.64379   0.15155   0.00000  Uiso   1.00
H185   H     0.32528   0.49571   0.11421   0.00000  Uiso   1.00
H186   H     0.28111   0.62842   0.22949   0.00000  Uiso   1.00
H187   H     0.06062   0.59650   0.16420   0.00000  Uiso   1.00
H188   H     0.03450   0.63574   0.12441   0.00000  Uiso   1.00
H189   H     0.07628   0.59792   0.10689   0.00000  Uiso   1.00
H190   H     0.27271   0.40351   0.16913   0.00000  Uiso   1.00
H191   H     0.25706   0.40208   0.22645   0.00000  Uiso   1.00
H192   H     0.29884   0.36426   0.20892   0.00000  Uiso   1.00
H193   H     0.28969   0.54060   0.04448   0.00000  Uiso   1.00
H194   H     0.04364   0.45940   0.28885   0.00000  Uiso   1.00
H195   H     0.00805   0.50429   0.21912   0.00000  Uiso   1.00
H196   H     0.23736   0.53533   0.29804   0.00000  Uiso   1.00
H197   H     0.09597   0.46467   0.03529   0.00000  Uiso   1.00
H198   H     0.07048   0.41127   0.14482   0.00000  Uiso   1.00
H199   H     0.05222   0.37158   0.10385   0.00000  Uiso   1.00
H200   H     0.03785   0.36516   0.16160   0.00000  Uiso   1.00
H201   H     0.26285   0.58873   0.18852   0.00000  Uiso   1.00
H202   H     0.29548   0.63484   0.17174   0.00000  Uiso   1.00
N203   N     0.16665   0.49999   0.28573   0.00000  Uiso   1.00
N204   N     0.16668   0.50001   0.04760   0.00000  Uiso   1.00
O205   O     0.16666   0.43892   0.20487   0.00000  Uiso   1.00
O206   O     0.08980   0.43162   0.25109   0.00000  Uiso   1.00
O207   O     0.16667   0.56108   0.12846   0.00000  Uiso   1.00
O208   O     0.16666   0.43893   0.12843   0.00000  Uiso   1.00
O209   O     0.16667   0.56107   0.20490   0.00000  Uiso   1.00
O210   O     0.09058   0.50000   0.19595   0.00000  Uiso   1.00
O211   O     0.24275   0.50000   0.13739   0.00000  Uiso   1.00
O212   O     0.09058   0.50000   0.11950   0.00000  Uiso   1.00
O213   O     0.24275   0.50000   0.21383   0.00000  Uiso   1.00
O214   O     0.24353   0.56838   0.08225   0.00000  Uiso   1.00
Zn215  Zn    0.16667   0.49999   0.21771   0.00000  Uiso   1.00
Zn216  Zn    0.16667   0.50001   0.11563   0.00000  Uiso   1.00
C217   C     0.49983   0.42027   0.16703   0.00000  Uiso   1.00
C218   C     0.54739   0.35621   0.18178   0.00000  Uiso   1.00
C219   C     0.50059   0.62399   0.16548   0.00000  Uiso   1.00
C220   C     0.49941   0.37601   0.16786   0.00000  Uiso   1.00
C221   C     0.53959   0.52011   0.02747   0.00000  Uiso   1.00
C222   C     0.46041   0.47989   0.30586   0.00000  Uiso   1.00
C223   C     0.53947   0.51948   0.31321   0.00000  Uiso   1.00
C224   C     0.46053   0.48052   0.02013   0.00000  Uiso   1.00
C225   C     0.40056   0.37692   0.14012   0.00000  Uiso   1.00
C226   C     0.59943   0.62308   0.19322   0.00000  Uiso   1.00
C227   C     0.40320   0.61743   0.13597   0.00000  Uiso   1.00
C228   C     0.50017   0.57973   0.16630   0.00000  Uiso   1.00
C229   C     0.59680   0.38257   0.19736   0.00000  Uiso   1.00
C230   C     0.58380   0.54338   0.05345   0.00000  Uiso   1.00
C231   C     0.41620   0.45663   0.27988   0.00000  Uiso   1.00
C232   C     0.40054   0.49992   0.15487   0.00000  Uiso   1.00
C233   C     0.59946   0.50008   0.17846   0.00000  Uiso   1.00
C234   C     0.34554   0.49885   0.14857   0.00000  Uiso   1.00
C235   C     0.65446   0.50115   0.18476   0.00000  Uiso   1.00
C236   C     0.45184   0.35415   0.15316   0.00000  Uiso   1.00
C237   C     0.54816   0.64585   0.18018   0.00000  Uiso   1.00
C238   C     0.45261   0.64379   0.15155   0.00000  Uiso   1.00
H239   H     0.65861   0.49571   0.11421   0.00000  Uiso   1.00
H240   H     0.61444   0.62842   0.22949   0.00000  Uiso   1.00
H241   H     0.39395   0.59650   0.16420   0.00000  Uiso   1.00
H242   H     0.36783   0.63574   0.12441   0.00000  Uiso   1.00
H243   H     0.40961   0.59792   0.10689   0.00000  Uiso   1.00
H244   H     0.60605   0.40351   0.16913   0.00000  Uiso   1.00
H245   H     0.59039   0.40208   0.22645   0.00000  Uiso   1.00
H246   H     0.63217   0.36426   0.20892   0.00000  Uiso   1.00
H247   H     0.62303   0.54060   0.04448   0.00000  Uiso   1.00
H248   H     0.37697   0.45940   0.28885   0.00000  Uiso   1.00
H249   H     0.34139   0.50429   0.21912   0.00000  Uiso   1.00
H250   H     0.57070   0.53533   0.29804   0.00000  Uiso   1.00
H251   H     0.42930   0.46467   0.03529   0.00000  Uiso   1.00
H252   H     0.40382   0.41127   0.14482   0.00000  Uiso   1.00
H253   H     0.38556   0.37158   0.10385   0.00000  Uiso   1.00
H254   H     0.37119   0.36516   0.16160   0.00000  Uiso   1.00
H255   H     0.59618   0.58873   0.18852   0.00000  Uiso   1.00
H256   H     0.62881   0.63484   0.17174   0.00000  Uiso   1.00
N257   N     0.49999   0.49999   0.28573   0.00000  Uiso   1.00
N258   N     0.50001   0.50001   0.04760   0.00000  Uiso   1.00
O259   O     0.50000   0.43892   0.20487   0.00000  Uiso   1.00
O260   O     0.42313   0.43162   0.25109   0.00000  Uiso   1.00
O261   O     0.50000   0.56108   0.12846   0.00000  Uiso   1.00
O262   O     0.50000   0.43893   0.12843   0.00000  Uiso   1.00
O263   O     0.50000   0.56107   0.20490   0.00000  Uiso   1.00
O264   O     0.42392   0.50000   0.19595   0.00000  Uiso   1.00
O265   O     0.57608   0.50000   0.13739   0.00000  Uiso   1.00
O266   O     0.42392   0.50000   0.11950   0.00000  Uiso   1.00
O267   O     0.57608   0.50000   0.21383   0.00000  Uiso   1.00
O268   O     0.57687   0.56838   0.08225   0.00000  Uiso   1.00
Zn269  Zn    0.50000   0.49999   0.21771   0.00000  Uiso   1.00
Zn270  Zn    0.50000   0.50001   0.11563   0.00000  Uiso   1.00
C271   C     0.83316   0.42027   0.16703   0.00000  Uiso   1.00
C272   C     0.88072   0.35621   0.18178   0.00000  Uiso   1.00
C273   C     0.83392   0.62399   0.16548   0.00000  Uiso   1.00
C274   C     0.83275   0.37601   0.16786   0.00000  Uiso   1.00
C275   C     0.87293   0.52011   0.02747   0.00000  Uiso   1.00
C276   C     0.79374   0.47989   0.30586   0.00000  Uiso   1.00
C277   C     0.87281   0.51948   0.31321   0.00000  Uiso   1.00
C278   C     0.79386   0.48052   0.02013   0.00000  Uiso   1.00
C279   C     0.73390   0.37692   0.14012   0.00000  Uiso   1.00
C280   C     0.93277   0.62308   0.19322   0.00000  Uiso   1.00
C281   C     0.73653   0.61743   0.13597   0.00000  Uiso   1.00
C282   C     0.83350   0.57973   0.16630   0.00000  Uiso   1.00
C283   C     0.93014   0.38257   0.19736   0.00000  Uiso   1.00
C284   C     0.91714   0.54338   0.05345   0.00000  Uiso   1.00
C285   C     0.74953   0.45663   0.27988   0.00000  Uiso   1.00
C286   C     0.73387   0.49992   0.15487   0.00000  Uiso   1.00
C287   C     0.93280   0.50008   0.17846   0.00000  Uiso   1.00
C288   C     0.67887   0.49885   0.14857   0.00000  Uiso   1.00
C289   C     0.98780   0.50115   0.18476   0.00000  Uiso   1.00
C290   C     0.78518   0.35415   0.15316   0.00000  Uiso   1.00
C291   C     0.88149   0.64585   0.18018   0.00000  Uiso   1.00
C292   C     0.78595   0.64379   0.15155   0.00000  Uiso   1.00
H293   H     0.99195   0.49571   0.11421   0.00000  Uiso   1.00
H294   H     0.94777   0.62842   0.22949   0.00000  Uiso   1.00
H295   H     0.72728   0.59650   0.16420   0.00000  Uiso   1.00
H296   H     0.70116   0.63574   0.12441   0.00000  Uiso   1.00
H297   H     0.74294   0.59792   0.10689   0.00000  Uiso   1.00
H298   H     0.93938   0.40351   0.16913   0.00000  Uiso   1.00
H299   H     0.92373   0.40208   0.22645   0.00000  Uiso   1.00
H300   H     0.96551   0.36426   0.20892   0.00000  Uiso   1.00
H301   H     0.95636   0.54060   0.04448   0.00000  Uiso   1.00
H302   H     0.71031   0.45940   0.28885   0.00000  Uiso   1.00
H303   H     0.67472   0.50429   0.21912   0.00000  Uiso   1.00
H304   H     0.90403   0.53533   0.29804   0.00000  Uiso   1.00
H305   H     0.76264   0.46467   0.03529   0.00000  Uiso   1.00
H306   H     0.73715   0.41127   0.14482   0.00000  Uiso   1.00
H307   H     0.71889   0.37158   0.10385   0.00000  Uiso   1.00
H308   H     0.70452   0.36516   0.16160   0.00000  Uiso   1.00
H309   H     0.92952   0.58873   0.18852   0.00000  Uiso   1.00
H310   H     0.96215   0.63484   0.17174   0.00000  Uiso   1.00
N311   N     0.83332   0.49999   0.28573   0.00000  Uiso   1.00
N312   N     0.83335   0.50001   0.04760   0.00000  Uiso   1.00
O313   O     0.83333   0.43892   0.20487   0.00000  Uiso   1.00
O314   O     0.75647   0.43162   0.25109   0.00000  Uiso   1.00
O315   O     0.83334   0.56108   0.12846   0.00000  Uiso   1.00
O316   O     0.83333   0.43893   0.12843   0.00000  Uiso   1.00
O317   O     0.83334   0.56107   0.20490   0.00000  Uiso   1.00
O318   O     0.75725   0.50000   0.19595   0.00000  Uiso   1.00
O319   O     0.90942   0.50000   0.13739   0.00000  Uiso   1.00
O320   O     0.75725   0.50000   0.11950   0.00000  Uiso   1.00
O321   O     0.90942   0.50000   0.21383   0.00000  Uiso   1.00
O322   O     0.91020   0.56838   0.08225   0.00000  Uiso   1.00
Zn323  Zn    0.83333   0.49999   0.21771   0.00000  Uiso   1.00
Zn324  Zn    0.83333   0.50001   0.11563   0.00000  Uiso   1.00
C325   C     0.16650   0.75360   0.16703   0.00000  Uiso   1.00
C326   C     0.21405   0.68954   0.18178   0.00000  Uiso   1.00
C327   C     0.16725   0.95733   0.16548   0.00000  Uiso   1.00
C328   C     0.16608   0.70934   0.16786   0.00000  Uiso   1.00
C329   C     0.20626   0.85344   0.02747   0.00000  Uiso   1.00
C330   C     0.12707   0.81322   0.30586   0.00000  Uiso   1.00
C331   C     0.20614   0.85282   0.31321   0.00000  Uiso   1.00
C332   C     0.12719   0.81385   0.02013   0.00000  Uiso   1.00
C333   C     0.06723   0.71025   0.14012   0.00000  Uiso   1.00
C334   C     0.26610   0.95642   0.19322   0.00000  Uiso   1.00
C335   C     0.06986   0.95076   0.13597   0.00000  Uiso   1.00
C336   C     0.16684   0.91307   0.16630   0.00000  Uiso   1.00
C337   C     0.26347   0.71591   0.19736   0.00000  Uiso   1.00
C338   C     0.25047   0.87671   0.05345   0.00000  Uiso   1.00
C339   C     0.08286   0.78996   0.27988   0.00000  Uiso   1.00
C340   C     0.06720   0.83325   0.15487   0.00000  Uiso   1.00
C341   C     0.26613   0.83341   0.17846   0.00000  Uiso   1.00
C342   C     0.01220   0.83219   0.14857   0.00000  Uiso   1.00
C343   C     0.32113   0.83448   0.18476   0.00000  Uiso   1.00
C344   C     0.11851   0.68748   0.15316   0.00000  Uiso   1.00
C345   C     0.21482   0.97918   0.18018   0.00000  Uiso   1.00
C346   C     0.11928   0.97713   0.15155   0.00000  Uiso   1.00
H347   H     0.32528   0.82905   0.11421   0.00000  Uiso   1.00
H348   H     0.28111   0.96176   0.22949   0.00000  Uiso   1.00
H349   H     0.06062   0.92983   0.16420   0.00000  Uiso   1.00
H350   H     0.03450   0.96907   0.12441   0.00000  Uiso   1.00
H351   H     0.07628   0.93125   0.10689   0.00000  Uiso   1.00
H352   H     0.27271   0.73684   0.16913   0.00000  Uiso   1.00
H353   H     0.25706   0.73542   0.22645   0.00000  Uiso   1.00
H354   H     0.29884   0.69760   0.20892   0.00000  Uiso   1.00
H355   H     0.28969   0.87394   0.04448   0.00000  Uiso   1.00
H356   H     0.04364   0.79273   0.28885   0.00000  Uiso   1.00
H357   H     0.00805   0.83762   0.21912   0.00000  Uiso   1.00
H358   H     0.23736   0.86867   0.29804   0.00000  Uiso   1.00
H359   H     0.09597   0.79800   0.03529   0.00000  Uiso   1.00
H360   H     0.07048   0.74460   0.14482   0.00000  Uiso   1.00
H361   H     0.05222   0.70491   0.10385   0.00000  Uiso   1.00
H362   H     0.03785   0.69849   0.16160   0.00000  Uiso   1.00
H363   H     0.26285   0.92206   0.18852   0.00000  Uiso   1.00
H364   H     0.29548   0.96817   0.17174   0.00000  Uiso   1.00
N365   N     0.16665   0.83332   0.28573   0.00000  Uiso   1.00
N366   N     0.16668   0.83334   0.04760   0.00000  Uiso   1.00
O367   O     0.16666   0.77225   0.20487   0.00000  Uiso   1.00
O368   O     0.08980   0.76495   0.25109   0.00000  Uiso   1.00
O369   O     0.16667   0.89442   0.12846   0.00000  Uiso   1.00
O370   O     0.16666   0.77226   0.12843   0.00000  Uiso   1.00
O371   O     0.16667   0.89441   0.20490   0.00000  Uiso   1.00
O372   O     0.09058   0.83333   0.19595   0.00000  Uiso   1.00
O373   O     0.24275   0.83334   0.13739   0.00000  Uiso   1.00
O374   O     0.09058   0.83334   0.11950   0.00000  Uiso   1.00
O375   O     0.24275   0.83333   0.21383   0.00000  Uiso   1.00
O376   O     0.24353   0.90172   0.08225   0.00000  Uiso   1.00
Zn377  Zn    0.16667   0.83333   0.21771   0.00000  Uiso   1.00
Zn378  Zn    0.16667   0.83334   0.11563   0.00000  Uiso   1.00
C379   C     0.49983   0.75360   0.16703   0.00000  Uiso   1.00
C380   C     0.54739   0.68954   0.18178   0.00000  Uiso   1.00
C381   C     0.50059   0.95733   0.16548   0.00000  Uiso   1.00
C382   C     0.49941   0.70934   0.16786   0.00000  Uiso   1.00
C383   C     0.53959   0.85344   0.02747   0.00000  Uiso   1.00
C384   C     0.46041   0.81322   0.30586   0.00000  Uiso   1.00
C385   C     0.53947   0.85282   0.31321   0.00000  Uiso   1.00
C386   C     0.46053   0.81385   0.02013   0.00000  Uiso   1.00
C387   C     0.40056   0.71025   0.14012   0.00000  Uiso   1.00
C388   C     0.59943   0.95642   0.19322   0.00000  Uiso   1.00
C389   C     0.40320   0.95076   0.13597   0.00000  Uiso   1.00
C390   C     0.50017   0.91307   0.16630   0.00000  Uiso   1.00
C391   C     0.59680   0.71591   0.19736   0.00000  Uiso   1.00
C392   C     0.58380   0.87671   0.05345   0.00000  Uiso   1.00
C393   C     0.41620   0.78996   0.27988   0.00000  Uiso   1.00
C394   C     0.40054   0.83325   0.15487   0.00000  Uiso   1.00
C395   C     0.59946   0.83341   0.17846   0.00000  Uiso   1.00
C396   C     0.34554   0.83219   0.14857   0.00000  Uiso   1.00
C397   C     0.65446   0.83448   0.18476   0.00000  Uiso   1.00
C398   C     0.45184   0.68748   0.15316   0.00000  Uiso   1.00
C399   C     0.54816   0.97918   0.18018   0.00000  Uiso   1.00
C400   C     0.45261   0.97713   0.15155   0.00000  Uiso   1.00
H401   H     0.65861   0.82905   0.11421   0.00000  Uiso   1.00
H402   H     0.61444   0.96176   0.22949   0.00000  Uiso   1.00
H403   H     0.39395   0.92983   0.16420   0.00000  Uiso   1.00
H404   H     0.36783   0.96907   0.12441   0.00000  Uiso   1.00
H405   H     0.40961   0.93125   0.10689   0.00000  Uiso   1.00
H406   H     0.60605   0.73684   0.16913   0.00000  Uiso   1.00
H407   H     0.59039   0.73542   0.22645   0.00000  Uiso   1.00
H408   H     0.63217   0.69760   0.20892   0.00000  Uiso   1.00
H409   H     0.62303   0.87394   0.04448   0.00000  Uiso   1.00
H410   H     0.37697   0.79273   0.28885   0.00000  Uiso   1.00
H411   H     0.34139   0.83762   0.21912   0.00000  Uiso   1.00
H412   H     0.57070   0.86867   0.29804   0.00000  Uiso   1.00
H413   H     0.42930   0.79800   0.03529   0.00000  Uiso   1.00
H414   H     0.40382   0.74460   0.14482   0.00000  Uiso   1.00
H415   H     0.38556   0.70491   0.10385   0.00000  Uiso   1.00
H416   H     0.37119   0.69849   0.16160   0.00000  Uiso   1.00
H417   H     0.59618   0.92206   0.18852   0.00000  Uiso   1.00
H418   H     0.62881   0.96817   0.17174   0.00000  Uiso   1.00
N419   N     0.49999   0.83332   0.28573   0.00000  Uiso   1.00
N420   N     0.50001   0.83334   0.04760   0.00000  Uiso   1.00
O421   O     0.50000   0.77225   0.20487   0.00000  Uiso   1.00
O422   O     0.42313   0.76495   0.25109   0.00000  Uiso   1.00
O423   O     0.50000   0.89442   0.12846   0.00000  Uiso   1.00
O424   O     0.50000   0.77226   0.12843   0.00000  Uiso   1.00
O425   O     0.50000   0.89441   0.20490   0.00000  Uiso   1.00
O426   O     0.42392   0.83333   0.19595   0.00000  Uiso   1.00
O427   O     0.57608   0.83334   0.13739   0.00000  Uiso   1.00
O428   O     0.42392   0.83334   0.11950   0.00000  Uiso   1.00
O429   O     0.57608   0.83333   0.21383   0.00000  Uiso   1.00
O430   O     0.57687   0.90172   0.08225   0.00000  Uiso   1.00
Zn431  Zn    0.50000   0.83333   0.21771   0.00000  Uiso   1.00
Zn432  Zn    0.50000   0.83334   0.11563   0.00000  Uiso   1.00
C433   C     0.83316   0.75360   0.16703   0.00000  Uiso   1.00
C434   C     0.88072   0.68954   0.18178   0.00000  Uiso   1.00
C435   C     0.83392   0.95733   0.16548   0.00000  Uiso   1.00
C436   C     0.83275   0.70934   0.16786   0.00000  Uiso   1.00
C437   C     0.87293   0.85344   0.02747   0.00000  Uiso   1.00
C438   C     0.79374   0.81322   0.30586   0.00000  Uiso   1.00
C439   C     0.87281   0.85282   0.31321   0.00000  Uiso   1.00
C440   C     0.79386   0.81385   0.02013   0.00000  Uiso   1.00
C441   C     0.73390   0.71025   0.14012   0.00000  Uiso   1.00
C442   C     0.93277   0.95642   0.19322   0.00000  Uiso   1.00
C443   C     0.73653   0.95076   0.13597   0.00000  Uiso   1.00
C444   C     0.83350   0.91307   0.16630   0.00000  Uiso   1.00
C445   C     0.93014   0.71591   0.19736   0.00000  Uiso   1.00
C446   C     0.91714   0.87671   0.05345   0.00000  Uiso   1.00
C447   C     0.74953   0.78996   0.27988   0.00000  Uiso   1.00
C448   C     0.73387   0.83325   0.15487   0.00000  Uiso   1.00
C449   C     0.93280   0.83341   0.17846   0.00000  Uiso   1.00
C450   C     0.67887   0.83219   0.14857   0.00000  Uiso   1.00
C451   C     0.98780   0.83448   0.18476   0.00000  Uiso   1.00
C452   C     0.78518   0.68748   0.15316   0.00000  Uiso   1.00
C453   C     0.88149   0.97918   0.18018   0.00000  Uiso   1.00
C454   C     0.78595   0.97713   0.15155   0.00000  Uiso   1.00
H455   H     0.99195   0.82905   0.11421   0.00000  Uiso   1.00
H456   H     0.94777   0.96176   0.22949   0.00000  Uiso   1.00
H457   H     0.72728   0.92983   0.16420   0.00000  Uiso   1.00
H458   H     0.70116   0.96907   0.12441   0.00000  Uiso   1.00
H459   H     0.74294   0.93125   0.10689   0.00000  Uiso   1.00
H460   H     0.93938   0.73684   0.16913   0.00000  Uiso   1.00
H461   H     0.92373   0.73542   0.22645   0.00000  Uiso   1.00
H462   H     0.96551   0.69760   0.20892   0.00000  Uiso   1.00
H463   H     0.95636   0.87394   0.04448   0.00000  Uiso   1.00
H464   H     0.71031   0.79273   0.28885   0.00000  Uiso   1.00
H465   H     0.67472   0.83762   0.21912   0.00000  Uiso   1.00
H466   H     0.90403   0.86867   0.29804   0.00000  Uiso   1.00
H467   H     0.76264   0.79800   0.03529   0.00000  Uiso   1.00
H468   H     0.73715   0.74460   0.14482   0.00000  Uiso   1.00
H469   H     0.71889   0.70491   0.10385   0.00000  Uiso   1.00
H470   H     0.70452   0.69849   0.16160   0.00000  Uiso   1.00
H471   H     0.92952   0.92206   0.18852   0.00000  Uiso   1.00
H472   H     0.96215   0.96817   0.17174   0.00000  Uiso   1.00
N473   N     0.83332   0.83332   0.28573   0.00000  Uiso   1.00
N474   N     0.83335   0.83334   0.04760   0.00000  Uiso   1.00
O475   O     0.83333   0.77225   0.20487   0.00000  Uiso   1.00
O476   O     0.75647   0.76495   0.25109   0.00000  Uiso   1.00
O477   O     0.83334   0.89442   0.12846   0.00000  Uiso   1.00
O478   O     0.83333   0.77226   0.12843   0.00000  Uiso   1.00
O479   O     0.83334   0.89441   0.20490   0.00000  Uiso   1.00
O480   O     0.75725   0.83333   0.19595   0.00000  Uiso   1.00
O481   O     0.90942   0.83334   0.13739   0.00000  Uiso   1.00
O482   O     0.75725   0.83334   0.11950   0.00000  Uiso   1.00
O483   O     0.90942   0.83333   0.21383   0.00000  Uiso   1.00
O484   O     0.91020   0.90172   0.08225   0.00000  Uiso   1.00
Zn485  Zn    0.83333   0.83333   0.21771   0.00000  Uiso   1.00
Zn486  Zn    0.83333   0.83334   0.11563   0.00000  Uiso   1.00
C487   C     0.16650   0.08693   0.50037   0.00000  Uiso   1.00
C488   C     0.21405   0.02287   0.51512   0.00000  Uiso   1.00
C489   C     0.16725   0.29066   0.49881   0.00000  Uiso   1.00
C490   C     0.16608   0.04267   0.50119   0.00000  Uiso   1.00
C491   C     0.20626   0.18678   0.36081   0.00000  Uiso   1.00
C492   C     0.12707   0.14656   0.63919   0.00000  Uiso   1.00
C493   C     0.20614   0.18615   0.64654   0.00000  Uiso   1.00
C494   C     0.12719   0.14718   0.35346   0.00000  Uiso   1.00
C495   C     0.06723   0.04358   0.47346   0.00000  Uiso   1.00
C496   C     0.26610   0.28975   0.52655   0.00000  Uiso   1.00
C497   C     0.06986   0.28409   0.46930   0.00000  Uiso   1.00
C498   C     0.16684   0.24640   0.49963   0.00000  Uiso   1.00
C499   C     0.26347   0.04924   0.53070   0.00000  Uiso   1.00
C500   C     0.25047   0.21004   0.38678   0.00000  Uiso   1.00
C501   C     0.08286   0.12329   0.61322   0.00000  Uiso   1.00
C502   C     0.06720   0.16659   0.48821   0.00000  Uiso   1.00
C503   C     0.26613   0.16675   0.51179   0.00000  Uiso   1.00
C504   C     0.01220   0.16552   0.48190   0.00000  Uiso   1.00
C505   C     0.32113   0.16781   0.51810   0.00000  Uiso   1.00
C506   C     0.11851   0.02082   0.48649   0.00000  Uiso   1.00
C507   C     0.21482   0.31252   0.51351   0.00000  Uiso   1.00
C508   C     0.11928   0.31046   0.48488   0.00000  Uiso   1.00
H509   H     0.32528   0.16238   0.44755   0.00000  Uiso   1.00
H510   H     0.28111   0.29509   0.56282   0.00000  Uiso   1.00
H511   H     0.06062   0.26316   0.49753   0.00000  Uiso   1.00
H512   H     0.03450   0.30241   0.45774   0.00000  Uiso   1.00
H513   H     0.07628   0.26458   0.44022   0.00000  Uiso   1.00
H514   H     0.27271   0.07017   0.50247   0.00000  Uiso   1.00
H515   H     0.25706   0.06875   0.55978   0.00000  Uiso   1.00
H516   H     0.29884   0.03093   0.54225   0.00000  Uiso   1.00
H517   H     0.28969   0.20727   0.37781   0.00000  Uiso   1.00
H518   H     0.04364   0.12606   0.62219   0.00000  Uiso   1.00
H519   H     0.00805   0.17096   0.55245   0.00000  Uiso   1.00
H520   H     0.23736   0.20200   0.63138   0.00000  Uiso   1.00
H521   H     0.09597   0.13133   0.36862   0.00000  Uiso   1.00
H522   H     0.07048   0.07794   0.47816   0.00000  Uiso   1.00
H523   H     0.05222   0.03825   0.43718   0.00000  Uiso   1.00
H524   H     0.03785   0.03183   0.49493   0.00000  Uiso   1.00
H525   H     0.26285   0.25540   0.52186   0.00000  Uiso   1.00
H526   H     0.29548   0.30150   0.50508   0.00000  Uiso   1.00
N527   N     0.16665   0.16666   0.61907   0.00000  Uiso   1.00
N528   N     0.16668   0.16668   0.38093   0.00000  Uiso   1.00
O529   O     0.16666   0.10558   0.53821   0.00000  Uiso   1.00
O530   O     0.08980   0.09828   0.58442   0.00000  Uiso   1.00
O531   O     0.16667   0.22775   0.46179   0.00000  Uiso   1.00
O532   O     0.16666   0.10559   0.46176   0.00000  Uiso   1.00
O533   O     0.16667   0.22774   0.53824   0.00000  Uiso   1.00
O534   O     0.09058   0.16666   0.52928   0.00000  Uiso   1.00
O535   O     0.24275   0.16667   0.47072   0.00000  Uiso   1.00
O536   O     0.09058   0.16667   0.45284   0.00000  Uiso   1.00
O537   O     0.24275   0.16666   0.54716   0.00000  Uiso   1.00
O538   O     0.24353   0.23505   0.41558   0.00000  Uiso   1.00
Zn539  Zn    0.16667   0.16666   0.55104   0.00000  Uiso   1.00
Zn540  Zn    0.16667   0.16667   0.44896   0.00000  Uiso   1.00
C541   C     0.49983   0.08693   0.50037   0.00000  Uiso   1.00
C542   C     0.54739   0.02287   0.51512   0.00000  Uiso   1.00
C543   C     0.50059   0.29066   0.49881   0.00000  Uiso   1.00
C544   C     0.49941   0.04267   0.50119   0.00000  Uiso   1.00
C545   C     0.53959   0.18678   0.36081   0.00000  Uiso   1.00
C546   C     0.46041   0.14656   0.63919   0.00000  Uiso   1.00
C547   C     0.53947   0.18615   0.64654   0.00000  Uiso   1.00
C548   C     0.46053   0.14718   0.35346   0.00000  Uiso   1.00
C549   C     0.40056   0.04358   0.47346   0.00000  Uiso   1.00
C550   C     0.59943   0.28975   0.52655   0.00000  Uiso   1.00
C551   C     0.40320   0.28409   0.46930   0.00000  Uiso   1.00
C552   C     0.50017   0.24640   0.49963   0.00000  Uiso   1.00
C553   C     0.59680   0.04924   0.53070   0.00000  Uiso   1.00
C554   C     0.58380   0.21004   0.38678   0.00000  Uiso   1.00
C555   C     0.41620   0.12329   0.61322   0.00000  Uiso   1.00
C556   C     0.40054   0.16659   0.48821   0.00000  Uiso   1.00
C557   C     0.59946   0.16675   0.51179   0.00000  Uiso   1.00
C558   C     0.34554   0.16552   0.48190   0.00000  Uiso   1.00
C559   C     0.65446   0.16781   0.51810   0.00000  Uiso   1.00
C560   C     0.45184   0.02082   0.48649   0.00000  Uiso   1.00
C561   C     0.54816   0.31252   0.51351   0.00000  Uiso   1.00
C562   C     0.45261   0.31046   0.48488   0.00000  Uiso   1.00
H563   H     0.65861   0.16238   0.44755   0.00000  Uiso   1.00
H564   H     0.61444   0.29509   0.56282   0.00000  Uiso   1.00
H565   H     0.39395   0.26316   0.49753   0.00000  Uiso   1.00
H566   H     0.36783   0.30241   0.45774   0.00000  Uiso   1.00
H567   H     0.40961   0.26458   0.44022   0.00000  Uiso   1.00
H568   H     0.60605   0.07017   0.50247   0.00000  Uiso   1.00
H569   H     0.59039   0.06875   0.55978   0.00000  Uiso   1.00
H570   H     0.63217   0.03093   0.54225   0.00000  Uiso   1.00
H571   H     0.62303   0.20727   0.37781   0.00000  Uiso   1.00
H572   H     0.37697   0.12606   0.62219   0.00000  Uiso   1.00
H573   H     0.34139   0.17096   0.55245   0.00000  Uiso   1.00
H574   H     0.57070   0.20200   0.63138   0.00000  Uiso   1.00
H575   H     0.42930   0.13133   0.36862   0.00000  Uiso   1.00
H576   H     0.40382   0.07794   0.47816   0.00000  Uiso   1.00
H577   H     0.38556   0.03825   0.43718   0.00000  Uiso   1.00
H578   H     0.37119   0.03183   0.49493   0.00000  Uiso   1.00
H579   H     0.59618   0.25540   0.52186   0.00000  Uiso   1.00
H580   H     0.62881   0.30150   0.50508   0.00000  Uiso   1.00
N581   N     0.49999   0.16666   0.61907   0.00000  Uiso   1.00
N582   N     0.50001   0.16668   0.38093   0.00000  Uiso   1.00
O583   O     0.50000   0.10558   0.53821   0.00000  Uiso   1.00
O584   O     0.42313   0.09828   0.58442   0.00000  Uiso   1.00
O585   O     0.50000   0.22775   0.46179   0.00000  Uiso   1.00
O586   O     0.50000   0.10559   0.46176   0.00000  Uiso   1.00
O587   O     0.50000   0.22774   0.53824   0.00000  Uiso   1.00
O588   O     0.42392   0.16666   0.52928   0.00000  Uiso   1.00
O589   O     0.57608   0.16667   0.47072   0.00000  Uiso   1.00
O590   O     0.42392   0.16667   0.45284   0.00000  Uiso   1.00
O591   O     0.57608   0.16666   0.54716   0.00000  Uiso   1.00
O592   O     0.57687   0.23505   0.41558   0.00000  Uiso   1.00
Zn593  Zn    0.50000   0.16666   0.55104   0.00000  Uiso   1.00
Zn594  Zn    0.50000   0.16667   0.44896   0.00000  Uiso   1.00
C595   C     0.83316   0.08693   0.50037   0.00000  Uiso   1.00
C596   C     0.88072   0.02287   0.51512   0.00000  Uiso   1.00
C597   C     0.83392   0.29066   0.49881   0.00000  Uiso   1.00
C598   C     0.83275   0.04267   0.50119   0.00000  Uiso   1.00
C599   C     0.87293   0.18678   0.36081   0.00000  Uiso   1.00
C600   C     0.79374   0.14656   0.63919   0.00000  Uiso   1.00
C601   C     0.87281   0.18615   0.64654   0.00000  Uiso   1.00
C602   C     0.79386   0.14718   0.35346   0.00000  Uiso   1.00
C603   C     0.73390   0.04358   0.47346   0.00000  Uiso   1.00
C604   C     0.93277   0.28975   0.52655   0.00000  Uiso   1.00
C605   C     0.73653   0.28409   0.46930   0.00000  Uiso   1.00
C606   C     0.83350   0.24640   0.49963   0.00000  Uiso   1.00
C607   C     0.93014   0.04924   0.53070   0.00000  Uiso   1.00
C608   C     0.91714   0.21004   0.38678   0.00000  Uiso   1.00
C609   C     0.74953   0.12329   0.61322   0.00000  Uiso   1.00
C610   C     0.73387   0.16659   0.48821   0.00000  Uiso   1.00
C611   C     0.93280   0.16675   0.51179   0.00000  Uiso   1.00
C612   C     0.67887   0.16552   0.48190   0.00000  Uiso   1.00
C613   C     0.98780   0.16781   0.51810   0.00000  Uiso   1.00
C614   C     0.78518   0.02082   0.48649   0.00000  Uiso   1.00
C615   C     0.88149   0.31252   0.51351   0.00000  Uiso   1.00
C616   C     0.78595   0.31046   0.48488   0.00000  Uiso   1.00
H617   H     0.99195   0.16238   0.44755   0.00000  Uiso   1.00
H618   H     0.94777   0.29509   0.56282   0.00000  Uiso   1.00
H619   H     0.72728   0.26316   0.49753   0.00000  Uiso   1.00
H620   H     0.70116   0.30241   0.45774   0.00000  Uiso   1.00
H621   H     0.74294   0.26458   0.44022   0.00000  Uiso   1.00
H622   H     0.93938   0.07017   0.50247   0.00000  Uiso   1.00
H623   H     0.92373   0.06875   0.55978   0.00000  Uiso   1.00
H624   H     0.96551   0.03093   0.54225   0.00000  Uiso   1.00
H625   H     0.95636   0.20727   0.37781   0.00000  Uiso   1.00
H626   H     0.71031   0.12606   0.62219   0.00000  Uiso   1.00
H627   H     0.67472   0.17096   0.55245   0.00000  Uiso   1.00
H628   H     0.90403   0.20200   0.63138   0.00000  Uiso   1.00
H629   H     0.76264   0.13133   0.36862   0.00000  Uiso   1.00
H630   H     0.73715   0.07794   0.47816   0.00000  Uiso   1.00
H631   H     0.71889   0.03825   0.43718   0.00000  Uiso   1.00
H632   H     0.70452   0.03183   0.49493   0.00000  Uiso   1.00
H633   H     0.92952   0.25540   0.52186   0.00000  Uiso   1.00
H634   H     0.96215   0.30150   0.50508   0.00000  Uiso   1.00
N635   N     0.83332   0.16666   0.61907   0.00000  Uiso   1.00
N636   N     0.83335   0.16668   0.38093   0.00000  Uiso   1.00
O637   O     0.83333   0.10558   0.53821   0.00000  Uiso   1.00
O638   O     0.75647   0.09828   0.58442   0.00000  Uiso   1.00
O639   O     0.83334   0.22775   0.46179   0.00000  Uiso   1.00
O640   O     0.83333   0.10559   0.46176   0.00000  Uiso   1.00
O641   O     0.83334   0.22774   0.53824   0.00000  Uiso   1.00
O642   O     0.75725   0.16666   0.52928   0.00000  Uiso   1.00
O643   O     0.90942   0.16667   0.47072   0.00000  Uiso   1.00
O644   O     0.75725   0.16667   0.45284   0.00000  Uiso   1.00
O645   O     0.90942   0.16666   0.54716   0.00000  Uiso   1.00
O646   O     0.91020   0.23505   0.41558   0.00000  Uiso   1.00
Zn647  Zn    0.83333   0.16666   0.55104   0.00000  Uiso   1.00
Zn648  Zn    0.83333   0.16667   0.44896   0.00000  Uiso   1.00
C649   C     0.16650   0.42027   0.50037   0.00000  Uiso   1.00
C650   C     0.21405   0.35621   0.51512   0.00000  Uiso   1.00
C651   C     0.16725   0.62399   0.49881   0.00000  Uiso   1.00
C652   C     0.16608   0.37601   0.50119   0.00000  Uiso   1.00
C653   C     0.20626   0.52011   0.36081   0.00000  Uiso   1.00
C654   C     0.12707   0.47989   0.63919   0.00000  Uiso   1.00
C655   C     0.20614   0.51948   0.64654   0.00000  Uiso   1.00
C656   C     0.12719   0.48052   0.35346   0.00000  Uiso   1.00
C657   C     0.06723   0.37692   0.47346   0.00000  Uiso   1.00
C658   C     0.26610   0.62308   0.52655   0.00000  Uiso   1.00
C659   C     0.06986   0.61743   0.46930   0.00000  Uiso   1.00
C660   C     0.16684   0.57973   0.49963   0.00000  Uiso   1.00
C661   C     0.26347   0.38257   0.53070   0.00000  Uiso   1.00
C662   C     0.25047   0.54338   0.38678   0.00000  Uiso   1.00
C663   C     0.08286   0.45663   0.61322   0.00000  Uiso   1.00
C664   C     0.06720   0.49992   0.48821   0.00000  Uiso   1.00
C665   C     0.26613   0.50008   0.51179   0.00000  Uiso   1.00
C666   C     0.01220   0.49885   0.48190   0.00000  Uiso   1.00
C667   C     0.32113   0.50115   0.51810   0.00000  Uiso   1.00
C668   C     0.11851   0.35415   0.48649   0.00000  Uiso   1.00
C669   C     0.21482   0.64585   0.51351   0.00000  Uiso   1.00
C670   C     0.11928   0.64379   0.48488   0.00000  Uiso   1.00
H671   H     0.32528   0.49571   0.44755   0.00000  Uiso   1.00
H672   H     0.28111   0.62842   0.56282   0.00000  Uiso   1.00
H673   H     0.06062   0.59650   0.49753   0.00000  Uiso   1.00
H674   H     0.03450   0.63574   0.45774   0.00000  Uiso   1.00
H675   H     0.07628   0.59792   0.44022   0.00000  Uiso   1.00
H676   H     0.27271   0.40351   0.50247   0.00000  Uiso   1.00
H677   H     0.25706   0.40208   0.55978   0.00000  Uiso   1.00
H678   H     0.29884   0.36426   0.54225   0.00000  Uiso   1.00
H679   H     0.28969   0.54060   0.37781   0.00000  Uiso   1.00
H680   H     0.04364   0.45940   0.62219   0.00000  Uiso   1.00
H681   H     0.00805   0.50429   0.55245   0.00000  Uiso   1.00
H682   H     0.23736   0.53533   0.63138   0.00000  Uiso   1.00
H683   H     0.09597   0.46467   0.36862   0.00000  Uiso   1.00
H684   H     0.07048   0.41127   0.47816   0.00000  Uiso   1.00
H685   H     0.05222   0.37158   0.43718   0.00000  Uiso   1.00
H686   H     0.03785   0.36516   0.49493   0.00000  Uiso   1.00
H687   H     0.26285   0.58873   0.52186   0.00000  Uiso   1.00
H688   H     0.29548   0.63484   0.50508   0.00000  Uiso   1.00
N689   N     0.16665   0.49999   0.61907   0.00000  Uiso   1.00
N690   N     0.16668   0.50001   0.38093   0.00000  Uiso   1.00
O691   O     0.16666   0.43892   0.53821   0.00000  Uiso   1.00
O692   O     0.08980   0.43162   0.58442   0.00000  Uiso   1.00
O693   O     0.16667   0.56108   0.46179   0.00000  Uiso   1.00
O694   O     0.16666   0.43893   0.46176   0.00000  Uiso   1.00
O695   O     0.16667   0.56107   0.53824   0.00000  Uiso   1.00
O696   O     0.09058   0.50000   0.52928   0.00000  Uiso   1.00
O697   O     0.24275   0.50000   0.47072   0.00000  Uiso   1.00
O698   O     0.09058   0.50000   0.45284   0.00000  Uiso   1.00
O699   O     0.24275   0.50000   0.54716   0.00000  Uiso   1.00
O700   O     0.24353   0.56838   0.41558   0.00000  Uiso   1.00
Zn701  Zn    0.16667   0.49999   0.55104   0.00000  Uiso   1.00
Zn702  Zn    0.16667   0.50001   0.44896   0.00000  Uiso   1.00
C703   C     0.49983   0.42027   0.50037   0.00000  Uiso   1.00
C704   C     0.54739   0.35621   0.51512   0.00000  Uiso   1.00
C705   C     0.50059   0.62399   0.49881   0.00000  Uiso   1.00
C706   C     0.49941   0.37601   0.50119   0.00000  Uiso   1.00
C707   C     0.53959   0.52011   0.36081   0.00000  Uiso   1.00
C708   C     0.46041   0.47989   0.63919   0.00000  Uiso   1.00
C709   C     0.53947   0.51948   0.64654   0.00000  Uiso   1.00
C710   C     0.46053   0.48052   0.35346   0.00000  Uiso   1.00
C711   C     0.40056   0.37692   0.47346   0.00000  Uiso   1.00
C712   C     0.59943   0.62308   0.52655   0.00000  Uiso   1.00
C713   C     0.40320   0.61743   0.46930   0.00000  Uiso   1.00
C714   C     0.50017   0.57973   0.49963   0.00000  Uiso   1.00
C715   C     0.59680   0.38257   0.53070   0.00000  Uiso   1.00
C716   C     0.58380   0.54338   0.38678   0.00000  Uiso   1.00
C717   C     0.41620   0.45663   0.61322   0.00000  Uiso   1.00
C718   C     0.40054   0.49992   0.48821   0.00000  Uiso   1.00
C719   C     0.59946   0.50008   0.51179   0.00000  Uiso   1.00
C720   C     0.34554   0.49885   0.48190   0.00000  Uiso   1.00
C721   C     0.65446   0.50115   0.51810   0.00000  Uiso   1.00
C722   C     0.45184   0.35415   0.48649   0.00000  Uiso   1.00
C723   C     0.54816   0.64585   0.51351   0.00000  Uiso   1.00
C724   C     0.45261   0.64379   0.48488   0.00000  Uiso   1.00
H725   H     0.65861   0.49571   0.44755   0.00000  Uiso   1.00
H726   H     0.61444   0.62842   0.56282   0.00000  Uiso   1.00
H727   H     0.39395   0.59650   0.49753   0.00000  Uiso   1.00
H728   H     0.36783   0.63574   0.45774   0.00000  Uiso   1.00
H729   H     0.40961   0.59792   0.44022   0.00000  Uiso   1.00
H730   H     0.60605   0.40351   0.50247   0.00000  Uiso   1.00
H731   H     0.59039   0.40208   0.55978   0.00000  Uiso   1.00
H732   H     0.63217   0.36426   0.54225   0.00000  Uiso   1.00
H733   H     0.62303   0.54060   0.37781   0.00000  Uiso   1.00
H734   H     0.37697   0.45940   0.62219   0.00000  Uiso   1.00
H735   H     0.34139   0.50429   0.55245   0.00000  Uiso   1.00
H736   H     0.57070   0.53533   0.63138   0.00000  Uiso   1.00
H737   H     0.42930   0.46467   0.36862   0.00000  Uiso   1.00
H738   H     0.40382   0.41127   0.47816   0.00000  Uiso   1.00
H739   H     0.38556   0.37158   0.43718   0.00000  Uiso   1.00
H740   H     0.37119   0.36516   0.49493   0.00000  Uiso   1.00
H741   H     0.59618   0.58873   0.52186   0.00000  Uiso   1.00
H742   H     0.62881   0.63484   0.50508   0.00000  Uiso   1.00
N743   N     0.49999   0.49999   0.61907   0.00000  Uiso   1.00
N744   N     0.50001   0.50001   0.38093   0.00000  Uiso   1.00
O745   O     0.50000   0.43892   0.53821   0.00000  Uiso   1.00
O746   O     0.42313   0.43162   0.58442   0.00000  Uiso   1.00
O747   O     0.50000   0.56108   0.46179   0.00000  Uiso   1.00
O748   O     0.50000   0.43893   0.46176   0.00000  Uiso   1.00
O749   O     0.50000   0.56107   0.53824   0.00000  Uiso   1.00
O750   O     0.42392   0.50000   0.52928   0.00000  Uiso   1.00
O751   O     0.57608   0.50000   0.47072   0.00000  Uiso   1.00
O752   O     0.42392   0.50000   0.45284   0.00000  Uiso   1.00
O753   O     0.57608   0.50000   0.54716   0.00000  Uiso   1.00
O754   O     0.57687   0.56838   0.41558   0.00000  Uiso   1.00
Zn755  Zn    0.50000   0.49999   0.55104   0.00000  Uiso   1.00
Zn756  Zn    0.50000   0.50001   0.44896   0.00000  Uiso   1.00
C757   C     0.83316   0.42027   0.50037   0.00000  Uiso   1.00
C758   C     0.88072   0.35621   0.51512   0.00000  Uiso   1.00
C759   C     0.83392   0.62399   0.49881   0.00000  Uiso   1.00
C760   C     0.83275   0.37601   0.50119   0.00000  Uiso   1.00
C761   C     0.87293   0.52011   0.36081   0.00000  Uiso   1.00
C762   C     0.79374   0.47989   0.63919   0.00000  Uiso   1.00
C763   C     0.87281   0.51948   0.64654   0.00000  Uiso   1.00
C764   C     0.79386   0.48052   0.35346   0.00000  Uiso   1.00
C765   C     0.73390   0.37692   0.47346   0.00000  Uiso   1.00
C766   C     0.93277   0.62308   0.52655   0.00000  Uiso   1.00
C767   C     0.73653   0.61743   0.46930   0.00000  Uiso   1.00
C768   C     0.83350   0.57973   0.49963   0.00000  Uiso   1.00
C769   C     0.93014   0.38257   0.53070   0.00000  Uiso   1.00
C770   C     0.91714   0.54338   0.38678   0.00000  Uiso   1.00
C771   C     0.74953   0.45663   0.61322   0.00000  Uiso   1.00
C772   C     0.73387   0.49992   0.48821   0.00000  Uiso   1.00
C773   C     0.93280   0.50008   0.51179   0.00000  Uiso   1.00
C774   C     0.67887   0.49885   0.48190   0.00000  Uiso   1.00
C775   C     0.98780   0.50115   0.51810   0.00000  Uiso   1.00
C776   C     0.78518   0.35415   0.48649   0.00000  Uiso   1.00
C777   C     0.88149   0.64585   0.51351   0.00000  Uiso   1.00
C778   C     0.78595   0.64379   0.48488   0.00000  Uiso   1.00
H779   H     0.99195   0.49571   0.44755   0.00000  Uiso   1.00
H780   H     0.94777   0.62842   0.56282   0.00000  Uiso   1.00
H781   H     0.72728   0.59650   0.49753   0.00000  Uiso   1.00
H782   H     0.70116   0.63574   0.45774   0.00000  Uiso   1.00
H783   H     0.74294   0.59792   0.44022   0.00000  Uiso   1.00
H784   H     0.93938   0.40351   0.50247   0.00000  Uiso   1.00
H785   H     0.92373   0.40208   0.55978   0.00000  Uiso   1.00
H786   H     0.96551   0.36426   0.54225   0.00000  Uiso   1.00
H787   H     0.95636   0.54060   0.37781   0.00000  Uiso   1.00
H788   H     0.71031   0.45940   0.62219   0.00000  Uiso   1.00
H789   H     0.67472   0.50429   0.55245   0.00000  Uiso   1.00
H790   H     0.90403   0.53533   0.63138   0.00000  Uiso   1.00
H791   H     0.76264   0.46467   0.36862   0.00000  Uiso   1.00
H792   H     0.73715   0.41127   0.47816   0.00000  Uiso   1.00
H793   H     0.71889   0.37158   0.43718   0.00000  Uiso   1.00
H794   H     0.70452   0.36516   0.49493   0.00000  Uiso   1.00
H795   H     0.92952   0.58873   0.52186   0.00000  Uiso   1.00
H796   H     0.96215   0.63484   0.50508   0.00000  Uiso   1.00
N797   N     0.83332   0.49999   0.61907   0.00000  Uiso   1.00
N798   N     0.83335   0.50001   0.38093   0.00000  Uiso   1.00
O799   O     0.83333   0.43892   0.53821   0.00000  Uiso   1.00
O800   O     0.75647   0.43162   0.58442   0.00000  Uiso   1.00
O801   O     0.83334   0.56108   0.46179   0.00000  Uiso   1.00
O802   O     0.83333   0.43893   0.46176   0.00000  Uiso   1.00
O803   O     0.83334   0.56107   0.53824   0.00000  Uiso   1.00
O804   O     0.75725   0.50000   0.52928   0.00000  Uiso   1.00
O805   O     0.90942   0.50000   0.47072   0.00000  Uiso   1.00
O806   O     0.75725   0.50000   0.45284   0.00000  Uiso   1.00
O807   O     0.90942   0.50000   0.54716   0.00000  Uiso   1.00
O808   O     0.91020   0.56838   0.41558   0.00000  Uiso   1.00
Zn809  Zn    0.83333   0.49999   0.55104   0.00000  Uiso   1.00
Zn810  Zn    0.83333   0.50001   0.44896   0.00000  Uiso   1.00
C811   C     0.16650   0.75360   0.50037   0.00000  Uiso   1.00
C812   C     0.21405   0.68954   0.51512   0.00000  Uiso   1.00
C813   C     0.16725   0.95733   0.49881   0.00000  Uiso   1.00
C814   C     0.16608   0.70934   0.50119   0.00000  Uiso   1.00
C815   C     0.20626   0.85344   0.36081   0.00000  Uiso   1.00
C816   C     0.12707   0.81322   0.63919   0.00000  Uiso   1.00
C817   C     0.20614   0.85282   0.64654   0.00000  Uiso   1.00
C818   C     0.12719   0.81385   0.35346   0.00000  Uiso   1.00
C819   C     0.06723   0.71025   0.47346   0.00000  Uiso   1.00
C820   C     0.26610   0.95642   0.52655   0.00000  Uiso   1.00
C821   C     0.06986   0.95076   0.46930   0.00000  Uiso   1.00
C822   C     0.16684   0.91307   0.49963   0.00000  Uiso   1.00
C823   C     0.26347   0.71591   0.53070   0.00000  Uiso   1.00
C824   C     0.25047   0.87671   0.38678   0.00000  Uiso   1.00
C825   C     0.08286   0.78996   0.61322   0.00000  Uiso   1.00
C826   C     0.06720   0.83325   0.48821   0.00000  Uiso   1.00
C827   C     0.26613   0.83341   0.51179   0.00000  Uiso   1.00
C828   C     0.01220   0.83219   0.48190   0.00000  Uiso   1.00
C829   C     0.32113   0.83448   0.51810   0.00000  Uiso   1.00
C830   C     0.11851   0.68748   0.48649   0.00000  Uiso   1.00
C831   C     0.21482   0.97918   0.51351   0.00000  Uiso   1.00
C832   C     0.11928   0.97713   0.48488   0.00000  Uiso   1.00
H833   H     0.32528   0.82905   0.44755   0.00000  Uiso   1.00
H834   H     0.28111   0.96176   0.56282   0.00000  Uiso   1.00
H835   H     0.06062   0.92983   0.49753   0.00000  Uiso   1.00
H836   H     0.03450   0.96907   0.45774   0.00000  Uiso   1.00
H837   H     0.07628   0.93125   0.44022   0.00000  Uiso   1.00
H838   H     0.27271   0.73684   0.50247   0.00000  Uiso   1.00
H839   H     0.25706   0.73542   0.55978   0.00000  Uiso   1.00
H840   H     0.29884   0.69760   0.54225   0.00000  Uiso   1.00
H841   H     0.28969   0.87394   0.37781   0.00000  Uiso   1.00
H842   H     0.04364   0.79273   0.62219   0.00000  Uiso   1.00
H843   H     0.00805   0.83762   0.55245   0.00000  Uiso   1.00
H844   H     0.23736   0.86867   0.63138   0.00000  Uiso   1.00
H845   H     0.09597   0.79800   0.36862   0.00000  Uiso   1.00
H846   H     0.07048   0.74460   0.47816   0.00000  Uiso   1.00
H847   H     0.05222   0.70491   0.43718   0.00000  Uiso   1.00
H848   H     0.03785   0.69849   0.49493   0.00000  Uiso   1.00
H849   H     0.26285   0.92206   0.52186   0.00000  Uiso   1.00
H850   H     0.29548   0.96817   0.50508   0.00000  Uiso   1.00
N851   N     0.16665   0.83332   0.61907   0.00000  Uiso   1.00
N852   N     0.16668   0.83334   0.38093   0.00000  Uiso   1.00
O853   O     0.16666   0.77225   0.53821   0.00000  Uiso   1.00
O854   O     0.08980   0.76495   0.58442   0.00000  Uiso   1.00
O855   O     0.16667   0.89442   0.46179   0.00000  Uiso   1.00
O856   O     0.16666   0.77226   0.46176   0.00000  Uiso   1.00
O857   O     0.16667   0.89441   0.53824   0.00000  Uiso   1.00
O858   O     0.09058   0.83333   0.52928   0.00000  Uiso   1.00
O859   O     0.24275   0.83334   0.47072   0.00000  Uiso   1.00
O860   O     0.09058   0.83334   0.45284   0.00000  Uiso   1.00
O861   O     0.24275   0.83333   0.54716   0.00000  Uiso   1.00
O862   O     0.24353   0.90172   0.41558   0.00000  Uiso   1.00
Zn863  Zn    0.16667   0.83333   0.55104   0.00000  Uiso   1.00
Zn864  Zn    0.16667   0.83334   0.44896   0.00000  Uiso   1.00
C865   C     0.49983   0.75360   0.50037   0.00000  Uiso   1.00
C866   C     0.54739   0.68954   0.51512   0.00000  Uiso   1.00
C867   C     0.50059   0.95733   0.49881   0.00000  Uiso   1.00
C868   C     0.49941   0.70934   0.50119   0.00000  Uiso   1.00
C869   C     0.53959   0.85344   0.36081   0.00000  Uiso   1.00
C870   C     0.46041   0.81322   0.63919   0.00000  Uiso   1.00
C871   C     0.53947   0.85282   0.64654   0.00000  Uiso   1.00
C872   C     0.46053   0.81385   0.35346   0.00000  Uiso   1.00
C873   C     0.40056   0.71025   0.47346   0.00000  Uiso   1.00
C874   C     0.59943   0.95642   0.52655   0.00000  Uiso   1.00
C875   C     0.40320   0.95076   0.46930   0.00000  Uiso   1.00
C876   C     0.50017   0.91307   0.49963   0.00000  Uiso   1.00
C877   C     0.59680   0.71591   0.53070   0.00000  Uiso   1.00
C878   C     0.58380   0.87671   0.38678   0.00000  Uiso   1.00
C879   C     0.41620   0.78996   0.61322   0.00000  Uiso   1.00
C880   C     0.40054   0.83325   0.48821   0.00000  Uiso   1.00
C881   C     0.59946   0.83341   0.51179   0.00000  Uiso   1.00
C882   C     0.34554   0.83219   0.48190   0.00000  Uiso   1.00
C883   C     0.65446   0.83448   0.51810   0.00000  Uiso   1.00
C884   C     0.45184   0.68748   0.48649   0.00000  Uiso   1.00
C885   C     0.54816   0.97918   0.51351   0.00000  Uiso   1.00
C886   C     0.45261   0.97713   0.48488   0.00000  Uiso   1.00
H887   H     0.65861   0.82905   0.44755   0.00000  Uiso   1.00
H888   H     0.61444   0.96176   0.56282   0.00000  Uiso   1.00
H889   H     0.39395   0.92983   0.49753   0.00000  Uiso   1.00
H890   H     0.36783   0.96907   0.45774   0.00000  Uiso   1.00
H891   H     0.40961   0.93125   0.44022   0.00000  Uiso   1.00
H892   H     0.60605   0.73684   0.50247   0.00000  Uiso   1.00
H893   H     0.59039   0.73542   0.55978   0.00000  Uiso   1.00
H894   H     0.63217   0.69760   0.54225   0.00000  Uiso   1.00
H895   H     0.62303   0.87394   0.37781   0.00000  Uiso   1.00
H896   H     0.37697   0.79273   0.62219   0.00000  Uiso   1.00
H897   H     0.34139   0.83762   0.55245   0.00000  Uiso   1.00
H898   H     0.57070   0.86867   0.63138   0.00000  Uiso   1.00
H899   H     0.42930   0.79800   0.36862   0.00000  Uiso   1.00
H900   H     0.40382   0.74460   0.47816   0.00000  Uiso   1.00
H901   H     0.38556   0.70491   0.43718   0.00000  Uiso   1.00
H902   H     0.37119   0.69849   0.49493   0.00000  Uiso   1.00
H903   H     0.59618   0.92206   0.52186   0.00000  Uiso   1.00
H904   H     0.62881   0.96817   0.50508   0.00000  Uiso   1.00
N905   N     0.49999   0.83332   0.61907   0.00000  Uiso   1.00
N906   N     0.50001   0.83334   0.38093   0.00000  Uiso   1.00
O907   O     0.50000   0.77225   0.53821   0.00000  Uiso   1.00
O908   O     0.42313   0.76495   0.58442   0.00000  Uiso   1.00
O909   O     0.50000   0.89442   0.46179   0.00000  Uiso   1.00
O910   O     0.50000   0.77226   0.46176   0.00000  Uiso   1.00
O911   O     0.50000   0.89441   0.53824   0.00000  Uiso   1.00
O912   O     0.42392   0.83333   0.52928   0.00000  Uiso   1.00
O913   O     0.57608   0.83334   0.47072   0.00000  Uiso   1.00
O914   O     0.42392   0.83334   0.45284   0.00000  Uiso   1.00
O915   O     0.57608   0.83333   0.54716   0.00000  Uiso   1.00
O916   O     0.57687   0.90172   0.41558   0.00000  Uiso   1.00
Zn917  Zn    0.50000   0.83333   0.55104   0.00000  Uiso   1.00
Zn918  Zn    0.50000   0.83334   0.44896   0.00000  Uiso   1.00
C919   C     0.83316   0.75360   0.50037   0.00000  Uiso   1.00
C920   C     0.88072   0.68954   0.51512   0.00000  Uiso   1.00
C921   C     0.83392   0.95733   0.49881   0.00000  Uiso   1.00
C922   C     0.83275   0.70934   0.50119   0.00000  Uiso   1.00
C923   C     0.87293   0.85344   0.36081   0.00000  Uiso   1.00
C924   C     0.79374   0.81322   0.63919   0.00000  Uiso   1.00
C925   C     0.87281   0.85282   0.64654   0.00000  Uiso   1.00
C926   C     0.79386   0.81385   0.35346   0.00000  Uiso   1.00
C927   C     0.73390   0.71025   0.47346   0.00000  Uiso   1.00
C928   C     0.93277   0.95642   0.52655   0.00000  Uiso   1.00
C929   C     0.73653   0.95076   0.46930   0.00000  Uiso   1.00
C930   C     0.83350   0.91307   0.49963   0.00000  Uiso   1.00
C931   C     0.93014   0.71591   0.53070   0.00000  Uiso   1.00
C932   C     0.91714   0.87671   0.38678   0.00000  Uiso   1.00
C933   C     0.74953   0.78996   0.61322   0.00000  Uiso   1.00
C934   C     0.73387   0.83325   0.48821   0.00000  Uiso   1.00
C935   C     0.93280   0.83341   0.51179   0.00000  Uiso   1.00
C936   C     0.67887   0.83219   0.48190   0.00000  Uiso   1.00
C937   C     0.98780   0.83448   0.51810   0.00000  Uiso   1.00
C938   C     0.78518   0.68748   0.48649   0.00000  Uiso   1.00
C939   C     0.88149   0.97918   0.51351   0.00000  Uiso   1.00
C940   C     0.78595   0.97713   0.48488   0.00000  Uiso   1.00
H941   H     0.99195   0.82905   0.44755   0.00000  Uiso   1.00
H942   H     0.94777   0.96176   0.56282   0.00000  Uiso   1.00
H943   H     0.72728   0.92983   0.49753   0.00000  Uiso   1.00
H944   H     0.70116   0.96907   0.45774   0.00000  Uiso   1.00
H945   H     0.74294   0.93125   0.44022   0.00000  Uiso   1.00
H946   H     0.93938   0.73684   0.50247   0.00000  Uiso   1.00
H947   H     0.92373   0.73542   0.55978   0.00000  Uiso   1.00
H948   H     0.96551   0.69760   0.54225   0.00000  Uiso   1.00
H949   H     0.95636   0.87394   0.37781   0.00000  Uiso   1.00
H950   H     0.71031   0.79273   0.62219   0.00000  Uiso   1.00
H951   H     0.67472   0.83762   0.55245   0.00000  Uiso   1.00
H952   H     0.90403   0.86867   0.63138   0.00000  Uiso   1.00
H953   H     0.76264   0.79800   0.36862   0.00000  Uiso   1.00
H954   H     0.73715   0.74460   0.47816   0.00000  Uiso   1.00
H955   H     0.71889   0.70491   0.43718   0.00000  Uiso   1.00
H956   H     0.70452   0.69849   0.49493   0.00000  Uiso   1.00
H957   H     0.92952   0.92206   0.52186   0.00000  Uiso   1.00
H958   H     0.96215   0.96817   0.50508   0.00000  Uiso   1.00
N959   N     0.83332   0.83332   0.61907   0.00000  Uiso   1.00
N960   N     0.83335   0.83334   0.38093   0.00000  Uiso   1.00
O961   O     0.83333   0.77225   0.53821   0.00000  Uiso   1.00
O962   O     0.75647   0.76495   0.58442   0.00000  Uiso   1.00
O963   O     0.83334   0.89442   0.46179   0.00000  Uiso   1.00
O964   O     0.83333   0.77226   0.46176   0.00000  Uiso   1.00
O965   O     0.83334   0.89441   0.53824   0.00000  Uiso   1.00
O966   O     0.75725   0.83333   0.52928   0.00000  Uiso   1.00
O967   O     0.90942   0.83334   0.47072   0.00000  Uiso   1.00
O968   O     0.75725   0.83334   0.45284   0.00000  Uiso   1.00
O969   O     0.90942   0.83333   0.54716   0.00000  Uiso   1.00
O970   O     0.91020   0.90172   0.41558   0.00000  Uiso   1.00
Zn971  Zn    0.83333   0.83333   0.55104   0.00000  Uiso   1.00
Zn972  Zn    0.83333   0.83334   0.44896   0.00000  Uiso   1.00
C973   C     0.16650   0.08693   0.83370   0.00000  Uiso   1.00
C974   C     0.21405   0.02287   0.84845   0.00000  Uiso   1.00
C975   C     0.16725   0.29066   0.83214   0.00000  Uiso   1.00
C976   C     0.16608   0.04267   0.83452   0.00000  Uiso   1.00
C977   C     0.20626   0.18678   0.69414   0.00000  Uiso   1.00
C978   C     0.12707   0.14656   0.97253   0.00000  Uiso   1.00
C979   C     0.20614   0.18615   0.97987   0.00000  Uiso   1.00
C980   C     0.12719   0.14718   0.68679   0.00000  Uiso   1.00
C981   C     0.06723   0.04358   0.80679   0.00000  Uiso   1.00
C982   C     0.26610   0.28975   0.85989   0.00000  Uiso   1.00
C983   C     0.06986   0.28409   0.80263   0.00000  Uiso   1.00
C984   C     0.16684   0.24640   0.83297   0.00000  Uiso   1.00
C985   C     0.26347   0.04924   0.86403   0.00000  Uiso   1.00
C986   C     0.25047   0.21004   0.72011   0.00000  Uiso   1.00
C987   C     0.08286   0.12329   0.94655   0.00000  Uiso   1.00
C988   C     0.06720   0.16659   0.82154   0.00000  Uiso   1.00
C989   C     0.26613   0.16675   0.84513   0.00000  Uiso   1.00
C990   C     0.01220   0.16552   0.81524   0.00000  Uiso   1.00
C991   C     0.32113   0.16781   0.85143   0.00000  Uiso   1.00
C992   C     0.11851   0.02082   0.81982   0.00000  Uiso   1.00
C993   C     0.21482   0.31252   0.84684   0.00000  Uiso   1.00
C994   C     0.11928   0.31046   0.81822   0.00000  Uiso   1.00
H995   H     0.32528   0.16238   0.78088   0.00000  Uiso   1.00
H996   H     0.28111   0.29509   0.89616   0.00000  Uiso   1.00
H997   H     0.06062   0.26316   0.83087   0.00000  Uiso   1.00
H998   H     0.03450   0.30241   0.79108   0.00000  Uiso   1.00
H999   H     0.07628   0.26458   0.77356   0.00000  Uiso   1.00
H1000  H     0.27271   0.07017   0.83580   0.00000  Uiso   1.00
H1001  H     0.25706   0.06875   0.89311   0.00000  Uiso   1.00
H1002  H     0.29884   0.03093   0.87559   0.00000  Uiso   1.00
H1003  H     0.28969   0.20727   0.71114   0.00000  Uiso   1.00
H1004  H     0.04364   0.12606   0.95552   0.00000  Uiso   1.00
H1005  H     0.00805   0.17096   0.88579   0.00000  Uiso   1.00
H1006  H     0.23736   0.20200   0.96471   0.00000  Uiso   1.00
H1007  H     0.09597   0.13133   0.70196   0.00000  Uiso   1.00
H1008  H     0.07048   0.07794   0.81149   0.00000  Uiso   1.00
H1009  H     0.05222   0.03825   0.77052   0.00000  Uiso   1.00
H1010  H     0.03785   0.03183   0.82827   0.00000  Uiso   1.00
H1011  H     0.26285   0.25540   0.85519   0.00000  Uiso   1.00
H1012  H     0.29548   0.30150   0.83841   0.00000  Uiso   1.00
N1013  N     0.16665   0.16666   0.95240   0.00000  Uiso   1.00
N1014  N     0.16668   0.16668   0.71427   0.00000  Uiso   1.00
O1015  O     0.16666   0.10558   0.87154   0.00000  Uiso   1.00
O1016  O     0.08980   0.09828   0.91776   0.00000  Uiso   1.00
O1017  O     0.16667   0.22775   0.79513   0.00000  Uiso   1.00
O1018  O     0.16666   0.10559   0.79510   0.00000  Uiso   1.00
O1019  O     0.16667   0.22774   0.87157   0.00000  Uiso   1.00
O1020  O     0.09058   0.16666   0.86261   0.00000  Uiso   1.00
O1021  O     0.24275   0.16667   0.80405   0.00000  Uiso   1.00
O1022  O     0.09058   0.16667   0.78617   0.00000  Uiso   1.00
O1023  O     0.24275   0.16666   0.88050   0.00000  Uiso   1.00
O1024  O     0.24353   0.23505   0.74891   0.00000  Uiso   1.00
Zn1025 Zn    0.16667   0.16666   0.88437   0.00000  Uiso   1.00
Zn1026 Zn    0.16667   0.16667   0.78229   0.00000  Uiso   1.00
C1027  C     0.49983   0.08693   0.83370   0.00000  Uiso   1.00
C1028  C     0.54739   0.02287   0.84845   0.00000  Uiso   1.00
C1029  C     0.50059   0.29066   0.83214   0.00000  Uiso   1.00
C1030  C     0.49941   0.04267   0.83452   0.00000  Uiso   1.00
C1031  C     0.53959   0.18678   0.69414   0.00000  Uiso   1.00
C1032  C     0.46041   0.14656   0.97253   0.00000  Uiso   1.00
C1033  C     0.53947   0.18615   0.97987   0.00000  Uiso   1.00
C1034  C     0.46053   0.14718   0.68679   0.00000  Uiso   1.00
C1035  C     0.40056   0.04358   0.80679   0.00000  Uiso   1.00
C1036  C     0.59943   0.28975   0.85989   0.00000  Uiso   1.00
C1037  C     0.40320   0.28409   0.80263   0.00000  Uiso   1.00
C1038  C     0.50017   0.24640   0.83297   0.00000  Uiso   1.00
C1039  C     0.59680   0.04924   0.86403   0.00000  Uiso   1.00
C1040  C     0.58380   0.21004   0.72011   0.00000  Uiso   1.00
C1041  C     0.41620   0.12329   0.94655   0.00000  Uiso   1.00
C1042  C     0.40054   0.16659   0.82154   0.00000  Uiso   1.00
C1043  C     0.59946   0.16675   0.84513   0.00000  Uiso   1.00
C1044  C     0.34554   0.16552   0.81524   0.00000  Uiso   1.00
C1045  C     0.65446   0.16781   0.85143   0.00000  Uiso   1.00
C1046  C     0.45184   0.02082   0.81982   0.00000  Uiso   1.00
C1047  C     0.54816   0.31252   0.84684   0.00000  Uiso   1.00
C1048  C     0.45261   0.31046   0.81822   0.00000  Uiso   1.00
H1049  H     0.65861   0.16238   0.78088   0.00000  Uiso   1.00
H1050  H     0.61444   0.29509   0.89616   0.00000  Uiso   1.00
H1051  H     0.39395   0.26316   0.83087   0.00000  Uiso   1.00
H1052  H     0.36783   0.30241   0.79108   0.00000  Uiso   1.00
H1053  H     0.40961   0.26458   0.77356   0.00000  Uiso   1.00
H1054  H     0.60605   0.07017   0.83580   0.00000  Uiso   1.00
H1055  H     0.59039   0.06875   0.89311   0.00000  Uiso   1.00
H1056  H     0.63217   0.03093   0.87559   0.00000  Uiso   1.00
H1057  H     0.62303   0.20727   0.71114   0.00000  Uiso   1.00
H1058  H     0.37697   0.12606   0.95552   0.00000  Uiso   1.00
H1059  H     0.34139   0.17096   0.88579   0.00000  Uiso   1.00
H1060  H     0.57070   0.20200   0.96471   0.00000  Uiso   1.00
H1061  H     0.42930   0.13133   0.70196   0.00000  Uiso   1.00
H1062  H     0.40382   0.07794   0.81149   0.00000  Uiso   1.00
H1063  H     0.38556   0.03825   0.77052   0.00000  Uiso   1.00
H1064  H     0.37119   0.03183   0.82827   0.00000  Uiso   1.00
H1065  H     0.59618   0.25540   0.85519   0.00000  Uiso   1.00
H1066  H     0.62881   0.30150   0.83841   0.00000  Uiso   1.00
N1067  N     0.49999   0.16666   0.95240   0.00000  Uiso   1.00
N1068  N     0.50001   0.16668   0.71427   0.00000  Uiso   1.00
O1069  O     0.50000   0.10558   0.87154   0.00000  Uiso   1.00
O1070  O     0.42313   0.09828   0.91776   0.00000  Uiso   1.00
O1071  O     0.50000   0.22775   0.79513   0.00000  Uiso   1.00
O1072  O     0.50000   0.10559   0.79510   0.00000  Uiso   1.00
O1073  O     0.50000   0.22774   0.87157   0.00000  Uiso   1.00
O1074  O     0.42392   0.16666   0.86261   0.00000  Uiso   1.00
O1075  O     0.57608   0.16667   0.80405   0.00000  Uiso   1.00
O1076  O     0.42392   0.16667   0.78617   0.00000  Uiso   1.00
O1077  O     0.57608   0.16666   0.88050   0.00000  Uiso   1.00
O1078  O     0.57687   0.23505   0.74891   0.00000  Uiso   1.00
Zn1079 Zn    0.50000   0.16666   0.88437   0.00000  Uiso   1.00
Zn1080 Zn    0.50000   0.16667   0.78229   0.00000  Uiso   1.00
C1081  C     0.83316   0.08693   0.83370   0.00000  Uiso   1.00
C1082  C     0.88072   0.02287   0.84845   0.00000  Uiso   1.00
C1083  C     0.83392   0.29066   0.83214   0.00000  Uiso   1.00
C1084  C     0.83275   0.04267   0.83452   0.00000  Uiso   1.00
C1085  C     0.87293   0.18678   0.69414   0.00000  Uiso   1.00
C1086  C     0.79374   0.14656   0.97253   0.00000  Uiso   1.00
C1087  C     0.87281   0.18615   0.97987   0.00000  Uiso   1.00
C1088  C     0.79386   0.14718   0.68679   0.00000  Uiso   1.00
C1089  C     0.73390   0.04358   0.80679   0.00000  Uiso   1.00
C1090  C     0.93277   0.28975   0.85989   0.00000  Uiso   1.00
C1091  C     0.73653   0.28409   0.80263   0.00000  Uiso   1.00
C1092  C     0.83350   0.24640   0.83297   0.00000  Uiso   1.00
C1093  C     0.93014   0.04924   0.86403   0.00000  Uiso   1.00
C1094  C     0.91714   0.21004   0.72011   0.00000  Uiso   1.00
C1095  C     0.74953   0.12329   0.94655   0.00000  Uiso   1.00
C1096  C     0.73387   0.16659   0.82154   0.00000  Uiso   1.00
C1097  C     0.93280   0.16675   0.84513   0.00000  Uiso   1.00
C1098  C     0.67887   0.16552   0.81524   0.00000  Uiso   1.00
C1099  C     0.98780   0.16781   0.85143   0.00000  Uiso   1.00
C1100  C     0.78518   0.02082   0.81982   0.00000  Uiso   1.00
C1101  C     0.88149   0.31252   0.84684   0.00000  Uiso   1.00
C1102  C     0.78595   0.31046   0.81822   0.00000  Uiso   1.00
H1103  H     0.99195   0.16238   0.78088   0.00000  Uiso   1.00
H1104  H     0.94777   0.29509   0.89616   0.00000  Uiso   1.00
H1105  H     0.72728   0.26316   0.83087   0.00000  Uiso   1.00
H1106  H     0.70116   0.30241   0.79108   0.00000  Uiso   1.00
H1107  H     0.74294   0.26458   0.77356   0.00000  Uiso   1.00
H1108  H     0.93938   0.07017   0.83580   0.00000  Uiso   1.00
H1109  H     0.92373   0.06875   0.89311   0.00000  Uiso   1.00
H1110  H     0.96551   0.03093   0.87559   0.00000  Uiso   1.00
H1111  H     0.95636   0.20727   0.71114   0.00000  Uiso   1.00
H1112  H     0.71031   0.12606   0.95552   0.00000  Uiso   1.00
H1113  H     0.67472   0.17096   0.88579   0.00000  Uiso   1.00
H1114  H     0.90403   0.20200   0.96471   0.00000  Uiso   1.00
H1115  H     0.76264   0.13133   0.70196   0.00000  Uiso   1.00
H1116  H     0.73715   0.07794   0.81149   0.00000  Uiso   1.00
H1117  H     0.71889   0.03825   0.77052   0.00000  Uiso   1.00
H1118  H     0.70452   0.03183   0.82827   0.00000  Uiso   1.00
H1119  H     0.92952   0.25540   0.85519   0.00000  Uiso   1.00
H1120  H     0.96215   0.30150   0.83841   0.00000  Uiso   1.00
N1121  N     0.83332   0.16666   0.95240   0.00000  Uiso   1.00
N1122  N     0.83335   0.16668   0.71427   0.00000  Uiso   1.00
O1123  O     0.83333   0.10558   0.87154   0.00000  Uiso   1.00
O1124  O     0.75647   0.09828   0.91776   0.00000  Uiso   1.00
O1125  O     0.83334   0.22775   0.79513   0.00000  Uiso   1.00
O1126  O     0.83333   0.10559   0.79510   0.00000  Uiso   1.00
O1127  O     0.83334   0.22774   0.87157   0.00000  Uiso   1.00
O1128  O     0.75725   0.16666   0.86261   0.00000  Uiso   1.00
O1129  O     0.90942   0.16667   0.80405   0.00000  Uiso   1.00
O1130  O     0.75725   0.16667   0.78617   0.00000  Uiso   1.00
O1131  O     0.90942   0.16666   0.88050   0.00000  Uiso   1.00
O1132  O     0.91020   0.23505   0.74891   0.00000  Uiso   1.00
Zn1133 Zn    0.83333   0.16666   0.88437   0.00000  Uiso   1.00
Zn1134 Zn    0.83333   0.16667   0.78229   0.00000  Uiso   1.00
C1135  C     0.16650   0.42027   0.83370   0.00000  Uiso   1.00
C1136  C     0.21405   0.35621   0.84845   0.00000  Uiso   1.00
C1137  C     0.16725   0.62399   0.83214   0.00000  Uiso   1.00
C1138  C     0.16608   0.37601   0.83452   0.00000  Uiso   1.00
C1139  C     0.20626   0.52011   0.69414   0.00000  Uiso   1.00
C1140  C     0.12707   0.47989   0.97253   0.00000  Uiso   1.00
C1141  C     0.20614   0.51948   0.97987   0.00000  Uiso   1.00
C1142  C     0.12719   0.48052   0.68679   0.00000  Uiso   1.00
C1143  C     0.06723   0.37692   0.80679   0.00000  Uiso   1.00
C1144  C     0.26610   0.62308   0.85989   0.00000  Uiso   1.00
C1145  C     0.06986   0.61743   0.80263   0.00000  Uiso   1.00
C1146  C     0.16684   0.57973   0.83297   0.00000  Uiso   1.00
C1147  C     0.26347   0.38257   0.86403   0.00000  Uiso   1.00
C1148  C     0.25047   0.54338   0.72011   0.00000  Uiso   1.00
C1149  C     0.08286   0.45663   0.94655   0.00000  Uiso   1.00
C1150  C     0.06720   0.49992   0.82154   0.00000  Uiso   1.00
C1151  C     0.26613   0.50008   0.84513   0.00000  Uiso   1.00
C1152  C     0.01220   0.49885   0.81524   0.00000  Uiso   1.00
C1153  C     0.32113   0.50115   0.85143   0.00000  Uiso   1.00
C1154  C     0.11851   0.35415   0.81982   0.00000  Uiso   1.00
C1155  C     0.21482   0.64585   0.84684   0.00000  Uiso   1.00
C1156  C     0.11928   0.64379   0.81822   0.00000  Uiso   1.00
H1157  H     0.32528   0.49571   0.78088   0.00000  Uiso   1.00
H1158  H     0.28111   0.62842   0.89616   0.00000  Uiso   1.00
H1159  H     0.06062   0.59650   0.83087   0.00000  Uiso   1.00
H1160  H     0.03450   0.63574   0.79108   0.00000  Uiso   1.00
H1161  H     0.07628   0.59792   0.77356   0.00000  Uiso   1.00
H1162  H     0.27271   0.40351   0.83580   0.00000  Uiso   1.00
H1163  H     0.25706   0.40208   0.89311   0.00000  Uiso   1.00
H1164  H     0.29884   0.36426   0.87559   0.00000  Uiso   1.00
H1165  H     0.28969   0.54060   0.71114   0.00000  Uiso   1.00
H1166  H     0.04364   0.45940   0.95552   0.00000  Uiso   1.00
H1167  H     0.00805   0.50429   0.88579   0.00000  Uiso   1.00
H1168  H     0.23736   0.53533   0.96471   0.00000  Uiso   1.00
H1169  H     0.09597   0.46467   0.70196   0.00000  Uiso   1.00
H1170  H     0.07048   0.41127   0.81149   0.00000  Uiso   1.00
H1171  H     0.05222   0.37158   0.77052   0.00000  Uiso   1.00
H1172  H     0.03785   0.36516   0.82827   0.00000  Uiso   1.00
H1173  H     0.26285   0.58873   0.85519   0.00000  Uiso   1.00
H1174  H     0.29548   0.63484   0.83841   0.00000  Uiso   1.00
N1175  N     0.16665   0.49999   0.95240   0.00000  Uiso   1.00
N1176  N     0.16668   0.50001   0.71427   0.00000  Uiso   1.00
O1177  O     0.16666   0.43892   0.87154   0.00000  Uiso   1.00
O1178  O     0.08980   0.43162   0.91776   0.00000  Uiso   1.00
O1179  O     0.16667   0.56108   0.79513   0.00000  Uiso   1.00
O1180  O     0.16666   0.43893   0.79510   0.00000  Uiso   1.00
O1181  O     0.16667   0.56107   0.87157   0.00000  Uiso   1.00
O1182  O     0.09058   0.50000   0.86261   0.00000  Uiso   1.00
O1183  O     0.24275   0.50000   0.80405   0.00000  Uiso   1.00
O1184  O     0.09058   0.50000   0.78617   0.00000  Uiso   1.00
O1185  O     0.24275   0.50000   0.88050   0.00000  Uiso   1.00
O1186  O     0.24353   0.56838   0.74891   0.00000  Uiso   1.00
Zn1187 Zn    0.16667   0.49999   0.88437   0.00000  Uiso   1.00
Zn1188 Zn    0.16667   0.50001   0.78229   0.00000  Uiso   1.00
C1189  C     0.49983   0.42027   0.83370   0.00000  Uiso   1.00
C1190  C     0.54739   0.35621   0.84845   0.00000  Uiso   1.00
C1191  C     0.50059   0.62399   0.83214   0.00000  Uiso   1.00
C1192  C     0.49941   0.37601   0.83452   0.00000  Uiso   1.00
C1193  C     0.53959   0.52011   0.69414   0.00000  Uiso   1.00
C1194  C     0.46041   0.47989   0.97253   0.00000  Uiso   1.00
C1195  C     0.53947   0.51948   0.97987   0.00000  Uiso   1.00
C1196  C     0.46053   0.48052   0.68679   0.00000  Uiso   1.00
C1197  C     0.40056   0.37692   0.80679   0.00000  Uiso   1.00
C1198  C     0.59943   0.62308   0.85989   0.00000  Uiso   1.00
C1199  C     0.40320   0.61743   0.80263   0.00000  Uiso   1.00
C1200  C     0.50017   0.57973   0.83297   0.00000  Uiso   1.00
C1201  C     0.59680   0.38257   0.86403   0.00000  Uiso   1.00
C1202  C     0.58380   0.54338   0.72011   0.00000  Uiso   1.00
C1203  C     0.41620   0.45663   0.94655   0.00000  Uiso   1.00
C1204  C     0.40054   0.49992   0.82154   0.00000  Uiso   1.00
C1205  C     0.59946   0.50008   0.84513   0.00000  Uiso   1.00
C1206  C     0.34554   0.49885   0.81524   0.00000  Uiso   1.00
C1207  C     0.65446   0.50115   0.85143   0.00000  Uiso   1.00
C1208  C     0.45184   0.35415   0.81982   0.00000  Uiso   1.00
C1209  C     0.54816   0.64585   0.84684   0.00000  Uiso   1.00
C1210  C     0.45261   0.64379   0.81822   0.00000  Uiso   1.00
H1211  H     0.65861   0.49571   0.78088   0.00000  Uiso   1.00
H1212  H     0.61444   0.62842   0.89616   0.00000  Uiso   1.00
H1213  H     0.39395   0.59650   0.83087   0.00000  Uiso   1.00
H1214  H     0.36783   0.63574   0.79108   0.00000  Uiso   1.00
H1215  H     0.40961   0.59792   0.77356   0.00000  Uiso   1.00
H1216  H     0.60605   0.40351   0.83580   0.00000  Uiso   1.00
H1217  H     0.59039   0.40208   0.89311   0.00000  Uiso   1.00
H1218  H     0.63217   0.36426   0.87559   0.00000  Uiso   1.00
H1219  H     0.62303   0.54060   0.71114   0.00000  Uiso   1.00
H1220  H     0.37697   0.45940   0.95552   0.00000  Uiso   1.00
H1221  H     0.34139   0.50429   0.88579   0.00000  Uiso   1.00
H1222  H     0.57070   0.53533   0.96471   0.00000  Uiso   1.00
H1223  H     0.42930   0.46467   0.70196   0.00000  Uiso   1.00
H1224  H     0.40382   0.41127   0.81149   0.00000  Uiso   1.00
H1225  H     0.38556   0.37158   0.77052   0.00000  Uiso   1.00
H1226  H     0.37119   0.36516   0.82827   0.00000  Uiso   1.00
H1227  H     0.59618   0.58873   0.85519   0.00000  Uiso   1.00
H1228  H     0.62881   0.63484   0.83841   0.00000  Uiso   1.00
N1229  N     0.49999   0.49999   0.95240   0.00000  Uiso   1.00
N1230  N     0.50001   0.50001   0.71427   0.00000  Uiso   1.00
O1231  O     0.50000   0.43892   0.87154   0.00000  Uiso   1.00
O1232  O     0.42313   0.43162   0.91776   0.00000  Uiso   1.00
O1233  O     0.50000   0.56108   0.79513   0.00000  Uiso   1.00
O1234  O     0.50000   0.43893   0.79510   0.00000  Uiso   1.00
O1235  O     0.50000   0.56107   0.87157   0.00000  Uiso   1.00
O1236  O     0.42392   0.50000   0.86261   0.00000  Uiso   1.00
O1237  O     0.57608   0.50000   0.80405   0.00000  Uiso   1.00
O1238  O     0.42392   0.50000   0.78617   0.00000  Uiso   1.00
O1239  O     0.57608   0.50000   0.88050   0.00000  Uiso   1.00
O1240  O     0.57687   0.56838   0.74891   0.00000  Uiso   1.00
Zn1241 Zn    0.50000   0.49999   0.88437   0.00000  Uiso   1.00
Zn1242 Zn    0.50000   0.50001   0.78229   0.00000  Uiso   1.00
C1243  C     0.83316   0.42027   0.83370   0.00000  Uiso   1.00
C1244  C     0.88072   0.35621   0.84845   0.00000  Uiso   1.00
C1245  C     0.83392   0.62399   0.83214   0.00000  Uiso   1.00
C1246  C     0.83275   0.37601   0.83452   0.00000  Uiso   1.00
C1247  C     0.87293   0.52011   0.69414   0.00000  Uiso   1.00
C1248  C     0.79374   0.47989   0.97253   0.00000  Uiso   1.00
C1249  C     0.87281   0.51948   0.97987   0.00000  Uiso   1.00
C1250  C     0.79386   0.48052   0.68679   0.00000  Uiso   1.00
C1251  C     0.73390   0.37692   0.80679   0.00000  Uiso   1.00
C1252  C     0.93277   0.62308   0.85989   0.00000  Uiso   1.00
C1253  C     0.73653   0.61743   0.80263   0.00000  Uiso   1.00
C1254  C     0.83350   0.57973   0.83297   0.00000  Uiso   1.00
C1255  C     0.93014   0.38257   0.86403   0.00000  Uiso   1.00
C1256  C     0.91714   0.54338   0.72011   0.00000  Uiso   1.00
C1257  C     0.74953   0.45663   0.94655   0.00000  Uiso   1.00
C1258  C     0.73387   0.49992   0.82154   0.00000  Uiso   1.00
C1259  C     0.93280   0.50008   0.84513   0.00000  Uiso   1.00
C1260  C     0.67887   0.49885   0.81524   0.00000  Uiso   1.00
C1261  C     0.98780   0.50115   0.85143   0.00000  Uiso   1.00
C1262  C     0.78518   0.35415   0.81982   0.00000  Uiso   1.00
C1263  C     0.88149   0.64585   0.84684   0.00000  Uiso   1.00
C1264  C     0.78595   0.64379   0.81822   0.00000  Uiso   1.00
H1265  H     0.99195   0.49571   0.78088   0.00000  Uiso   1.00
H1266  H     0.94777   0.62842   0.89616   0.00000  Uiso   1.00
H1267  H     0.72728   0.59650   0.83087   0.00000  Uiso   1.00
H1268  H     0.70116   0.63574   0.79108   0.00000  Uiso   1.00
H1269  H     0.74294   0.59792   0.77356   0.00000  Uiso   1.00
H1270  H     0.93938   0.40351   0.83580   0.00000  Uiso   1.00
H1271  H     0.92373   0.40208   0.89311   0.00000  Uiso   1.00
H1272  H     0.96551   0.36426   0.87559   0.00000  Uiso   1.00
H1273  H     0.95636   0.54060   0.71114   0.00000  Uiso   1.00
H1274  H     0.71031   0.45940   0.95552   0.00000  Uiso   1.00
H1275  H     0.67472   0.50429   0.88579   0.00000  Uiso   1.00
H1276  H     0.90403   0.53533   0.96471   0.00000  Uiso   1.00
H1277  H     0.76264   0.46467   0.70196   0.00000  Uiso   1.00
H1278  H     0.73715   0.41127   0.81149   0.00000  Uiso   1.00
H1279  H     0.71889   0.37158   0.77052   0.00000  Uiso   1.00
H1280  H     0.70452   0.36516   0.82827   0.00000  Uiso   1.00
H1281  H     0.92952   0.58873   0.85519   0.00000  Uiso   1.00
H1282  H     0.96215   0.63484   0.83841   0.00000  Uiso   1.00
N1283  N     0.83332   0.49999   0.95240   0.00000  Uiso   1.00
N1284  N     0.83335   0.50001   0.71427   0.00000  Uiso   1.00
O1285  O     0.83333   0.43892   0.87154   0.00000  Uiso   1.00
O1286  O     0.75647   0.43162   0.91776   0.00000  Uiso   1.00
O1287  O     0.83334   0.56108   0.79513   0.00000  Uiso   1.00
O1288  O     0.83333   0.43893   0.79510   0.00000  Uiso   1.00
O1289  O     0.83334   0.56107   0.87157   0.00000  Uiso   1.00
O1290  O     0.75725   0.50000   0.86261   0.00000  Uiso   1.00
O1291  O     0.90942   0.50000   0.80405   0.00000  Uiso   1.00
O1292  O     0.75725   0.50000   0.78617   0.00000  Uiso   1.00
O1293  O     0.90942   0.50000   0.88050   0.00000  Uiso   1.00
O1294  O     0.91020   0.56838   0.74891   0.00000  Uiso   1.00
Zn1295 Zn    0.83333   0.49999   0.88437   0.00000  Uiso   1.00
Zn1296 Zn    0.83333   0.50001   0.78229   0.00000  Uiso   1.00
C1297  C     0.16650   0.75360   0.83370   0.00000  Uiso   1.00
C1298  C     0.21405   0.68954   0.84845   0.00000  Uiso   1.00
C1299  C     0.16725   0.95733   0.83214   0.00000  Uiso   1.00
C1300  C     0.16608   0.70934   0.83452   0.00000  Uiso   1.00
C1301  C     0.20626   0.85344   0.69414   0.00000  Uiso   1.00
C1302  C     0.12707   0.81322   0.97253   0.00000  Uiso   1.00
C1303  C     0.20614   0.85282   0.97987   0.00000  Uiso   1.00
C1304  C     0.12719   0.81385   0.68679   0.00000  Uiso   1.00
C1305  C     0.06723   0.71025   0.80679   0.00000  Uiso   1.00
C1306  C     0.26610   0.95642   0.85989   0.00000  Uiso   1.00
C1307  C     0.06986   0.95076   0.80263   0.00000  Uiso   1.00
C1308  C     0.16684   0.91307   0.83297   0.00000  Uiso   1.00
C1309  C     0.26347   0.71591   0.86403   0.00000  Uiso   1.00
C1310  C     0.25047   0.87671   0.72011   0.00000  Uiso   1.00
C1311  C     0.08286   0.78996   0.94655   0.00000  Uiso   1.00
C1312  C     0.06720   0.83325   0.82154   0.00000  Uiso   1.00
C1313  C     0.26613   0.83341   0.84513   0.00000  Uiso   1.00
C1314  C     0.01220   0.83219   0.81524   0.00000  Uiso   1.00
C1315  C     0.32113   0.83448   0.85143   0.00000  Uiso   1.00
C1316  C     0.11851   0.68748   0.81982   0.00000  Uiso   1.00
C1317  C     0.21482   0.97918   0.84684   0.00000  Uiso   1.00
C1318  C     0.11928   0.97713   0.81822   0.00000  Uiso   1.00
H1319  H     0.32528   0.82905   0.78088   0.00000  Uiso   1.00
H1320  H     0.28111   0.96176   0.89616   0.00000  Uiso   1.00
H1321  H     0.06062   0.92983   0.83087   0.00000  Uiso   1.00
H1322  H     0.03450   0.96907   0.79108   0.00000  Uiso   1.00
H1323  H     0.07628   0.93125   0.77356   0.00000  Uiso   1.00
H1324  H     0.27271   0.73684   0.83580   0.00000  Uiso   1.00
H1325  H     0.25706   0.73542   0.89311   0.00000  Uiso   1.00
H1326  H     0.29884   0.69760   0.87559   0.00000  Uiso   1.00
H1327  H     0.28969   0.87394   0.71114   0.00000  Uiso   1.00
H1328  H     0.04364   0.79273   0.95552   0.00000  Uiso   1.00
H1329  H     0.00805   0.83762   0.88579   0.00000  Uiso   1.00
H1330  H     0.23736   0.86867   0.96471   0.00000  Uiso   1.00
H1331  H     0.09597   0.79800   0.70196   0.00000  Uiso   1.00
H1332  H     0.07048   0.74460   0.81149   0.00000  Uiso   1.00
H1333  H     0.05222   0.70491   0.77052   0.00000  Uiso   1.00
H1334  H     0.03785   0.69849   0.82827   0.00000  Uiso   1.00
H1335  H     0.26285   0.92206   0.85519   0.00000  Uiso   1.00
H1336  H     0.29548   0.96817   0.83841   0.00000  Uiso   1.00
N1337  N     0.16665   0.83332   0.95240   0.00000  Uiso   1.00
N1338  N     0.16668   0.83334   0.71427   0.00000  Uiso   1.00
O1339  O     0.16666   0.77225   0.87154   0.00000  Uiso   1.00
O1340  O     0.08980   0.76495   0.91776   0.00000  Uiso   1.00
O1341  O     0.16667   0.89442   0.79513   0.00000  Uiso   1.00
O1342  O     0.16666   0.77226   0.79510   0.00000  Uiso   1.00
O1343  O     0.16667   0.89441   0.87157   0.00000  Uiso   1.00
O1344  O     0.09058   0.83333   0.86261   0.00000  Uiso   1.00
O1345  O     0.24275   0.83334   0.80405   0.00000  Uiso   1.00
O1346  O     0.09058   0.83334   0.78617   0.00000  Uiso   1.00
O1347  O     0.24275   0.83333   0.88050   0.00000  Uiso   1.00
O1348  O     0.24353   0.90172   0.74891   0.00000  Uiso   1.00
Zn1349 Zn    0.16667   0.83333   0.88437   0.00000  Uiso   1.00
Zn1350 Zn    0.16667   0.83334   0.78229   0.00000  Uiso   1.00
C1351  C     0.49983   0.75360   0.83370   0.00000  Uiso   1.00
C1352  C     0.54739   0.68954   0.84845   0.00000  Uiso   1.00
C1353  C     0.50059   0.95733   0.83214   0.00000  Uiso   1.00
C1354  C     0.49941   0.70934   0.83452   0.00000  Uiso   1.00
C1355  C     0.53959   0.85344   0.69414   0.00000  Uiso   1.00
C1356  C     0.46041   0.81322   0.97253   0.00000  Uiso   1.00
C1357  C     0.53947   0.85282   0.97987   0.00000  Uiso   1.00
C1358  C     0.46053   0.81385   0.68679   0.00000  Uiso   1.00
C1359  C     0.40056   0.71025   0.80679   0.00000  Uiso   1.00
C1360  C     0.59943   0.95642   0.85989   0.00000  Uiso   1.00
C1361  C     0.40320   0.95076   0.80263   0.00000  Uiso   1.00
C1362  C     0.50017   0.91307   0.83297   0.00000  Uiso   1.00
C1363  C     0.59680   0.71591   0.86403   0.00000  Uiso   1.00
C1364  C     0.58380   0.87671   0.72011   0.00000  Uiso   1.00
C1365  C     0.41620   0.78996   0.94655   0.00000  Uiso   1.00
C1366  C     0.40054   0.83325   0.82154   0.00000  Uiso   1.00
C1367  C     0.59946   0.83341   0.84513   0.00000  Uiso   1.00
C1368  C     0.34554   0.83219   0.81524   0.00000  Uiso   1.00
C1369  C     0.65446   0.83448   0.85143   0.00000  Uiso   1.00
C1370  C     0.45184   0.68748   0.81982   0.00000  Uiso   1.00
C1371  C     0.54816   0.97918   0.84684   0.00000  Uiso   1.00
C1372  C     0.45261   0.97713   0.81822   0.00000  Uiso   1.00
H1373  H     0.65861   0.82905   0.78088   0.00000  Uiso   1.00
H1374  H     0.61444   0.96176   0.89616   0.00000  Uiso   1.00
H1375  H     0.39395   0.92983   0.83087   0.00000  Uiso   1.00
H1376  H     0.36783   0.96907   0.79108   0.00000  Uiso   1.00
H1377  H     0.40961   0.93125   0.77356   0.00000  Uiso   1.00
H1378  H     0.60605   0.73684   0.83580   0.00000  Uiso   1.00
H1379  H     0.59039   0.73542   0.89311   0.00000  Uiso   1.00
H1380  H     0.63217   0.69760   0.87559   0.00000  Uiso   1.00
H1381  H     0.62303   0.87394   0.71114   0.00000  Uiso   1.00
H1382  H     0.37697   0.79273   0.95552   0.00000  Uiso   1.00
H1383  H     0.34139   0.83762   0.88579   0.00000  Uiso   1.00
H1384  H     0.57070   0.86867   0.96471   0.00000  Uiso   1.00
H1385  H     0.42930   0.79800   0.70196   0.00000  Uiso   1.00
H1386  H     0.40382   0.74460   0.81149   0.00000  Uiso   1.00
H1387  H     0.38556   0.70491   0.77052   0.00000  Uiso   1.00
H1388  H     0.37119   0.69849   0.82827   0.00000  Uiso   1.00
H1389  H     0.59618   0.92206   0.85519   0.00000  Uiso   1.00
H1390  H     0.62881   0.96817   0.83841   0.00000  Uiso   1.00
N1391  N     0.49999   0.83332   0.95240   0.00000  Uiso   1.00
N1392  N     0.50001   0.83334   0.71427   0.00000  Uiso   1.00
O1393  O     0.50000   0.77225   0.87154   0.00000  Uiso   1.00
O1394  O     0.42313   0.76495   0.91776   0.00000  Uiso   1.00
O1395  O     0.50000   0.89442   0.79513   0.00000  Uiso   1.00
O1396  O     0.50000   0.77226   0.79510   0.00000  Uiso   1.00
O1397  O     0.50000   0.89441   0.87157   0.00000  Uiso   1.00
O1398  O     0.42392   0.83333   0.86261   0.00000  Uiso   1.00
O1399  O     0.57608   0.83334   0.80405   0.00000  Uiso   1.00
O1400  O     0.42392   0.83334   0.78617   0.00000  Uiso   1.00
O1401  O     0.57608   0.83333   0.88050   0.00000  Uiso   1.00
O1402  O     0.57687   0.90172   0.74891   0.00000  Uiso   1.00
Zn1403 Zn    0.50000   0.83333   0.88437   0.00000  Uiso   1.00
Zn1404 Zn    0.50000   0.83334   0.78229   0.00000  Uiso   1.00
C1405  C     0.83316   0.75360   0.83370   0.00000  Uiso   1.00
C1406  C     0.88072   0.68954   0.84845   0.00000  Uiso   1.00
C1407  C     0.83392   0.95733   0.83214   0.00000  Uiso   1.00
C1408  C     0.83275   0.70934   0.83452   0.00000  Uiso   1.00
C1409  C     0.87293   0.85344   0.69414   0.00000  Uiso   1.00
C1410  C     0.79374   0.81322   0.97253   0.00000  Uiso   1.00
C1411  C     0.87281   0.85282   0.97987   0.00000  Uiso   1.00
C1412  C     0.79386   0.81385   0.68679   0.00000  Uiso   1.00
C1413  C     0.73390   0.71025   0.80679   0.00000  Uiso   1.00
C1414  C     0.93277   0.95642   0.85989   0.00000  Uiso   1.00
C1415  C     0.73653   0.95076   0.80263   0.00000  Uiso   1.00
C1416  C     0.83350   0.91307   0.83297   0.00000  Uiso   1.00
C1417  C     0.93014   0.71591   0.86403   0.00000  Uiso   1.00
C1418  C     0.91714   0.87671   0.72011   0.00000  Uiso   1.00
C1419  C     0.74953   0.78996   0.94655   0.00000  Uiso   1.00
C1420  C     0.73387   0.83325   0.82154   0.00000  Uiso   1.00
C1421  C     0.93280   0.83341   0.84513   0.00000  Uiso   1.00
C1422  C     0.67887   0.83219   0.81524   0.00000  Uiso   1.00
C1423  C     0.98780   0.83448   0.85143   0.00000  Uiso   1.00
C1424  C     0.78518   0.68748   0.81982   0.00000  Uiso   1.00
C1425  C     0.88149   0.97918   0.84684   0.00000  Uiso   1.00
C1426  C     0.78595   0.97713   0.81822   0.00000  Uiso   1.00
H1427  H     0.99195   0.82905   0.78088   0.00000  Uiso   1.00
H1428  H     0.94777   0.96176   0.89616   0.00000  Uiso   1.00
H1429  H     0.72728   0.92983   0.83087   0.00000  Uiso   1.00
H1430  H     0.70116   0.96907   0.79108   0.00000  Uiso   1.00
H1431  H     0.74294   0.93125   0.77356   0.00000  Uiso   1.00
H1432  H     0.93938   0.73684   0.83580   0.00000  Uiso   1.00
H1433  H     0.92373   0.73542   0.89311   0.00000  Uiso   1.00
H1434  H     0.96551   0.69760   0.87559   0.00000  Uiso   1.00
H1435  H     0.95636   0.87394   0.71114   0.00000  Uiso   1.00
H1436  H     0.71031   0.79273   0.95552   0.00000  Uiso   1.00
H1437  H     0.67472   0.83762   0.88579   0.00000  Uiso   1.00
H1438  H     0.90403   0.86867   0.96471   0.00000  Uiso   1.00
H1439  H     0.76264   0.79800   0.70196   0.00000  Uiso   1.00
H1440  H     0.73715   0.74460   0.81149   0.00000  Uiso   1.00
H1441  H     0.71889   0.70491   0.77052   0.00000  Uiso   1.00
H1442  H     0.70452   0.69849   0.82827   0.00000  Uiso   1.00
H1443  H     0.92952   0.92206   0.85519   0.00000  Uiso   1.00
H1444  H     0.96215   0.96817   0.83841   0.00000  Uiso   1.00
N1445  N     0.83332   0.83332   0.95240   0.00000  Uiso   1.00
N1446  N     0.83335   0.83334   0.71427   0.00000  Uiso   1.00
O1447  O     0.83333   0.77225   0.87154   0.00000  Uiso   1.00
O1448  O     0.75647   0.76495   0.91776   0.00000  Uiso   1.00
O1449  O     0.83334   0.89442   0.79513   0.00000  Uiso   1.00
O1450  O     0.83333   0.77226   0.79510   0.00000  Uiso   1.00
O1451  O     0.83334   0.89441   0.87157   0.00000  Uiso   1.00
O1452  O     0.75725   0.83333   0.86261   0.00000  Uiso   1.00
O1453  O     0.90942   0.83334   0.80405   0.00000  Uiso   1.00
O1454  O     0.75725   0.83334   0.78617   0.00000  Uiso   1.00
O1455  O     0.90942   0.83333   0.88050   0.00000  Uiso   1.00
O1456  O     0.91020   0.90172   0.74891   0.00000  Uiso   1.00
Zn1457 Zn    0.83333   0.83333   0.88437   0.00000  Uiso   1.00
Zn1458 Zn    0.83333   0.83334   0.78229   0.00000  Uiso   1.00
loop_
_geom_bond_atom_site_label_1
_geom_bond_atom_site_label_2
_geom_bond_distance
_geom_bond_site_symmetry_2
_ccdc_geom_bond_type
C1     C4      1.409   .     S
C1     O46     1.285   .     A
C1     O43     1.284   .     A
C2     C4      1.408   .     A
C2     C13     1.525   .     S
C2     C345    1.394   1_545 S
C3     C21     1.410   .     A
C3     C12     1.409   .     S
C3     C22     1.408   .     A
C4     C20     1.410   .     A
C5     N42     1.387   .     A
C5     C14     1.473   .     S
C5     C979    1.418   1_554 S
C6     C15     1.473   .     S
C6     N41     1.387   .     A
C6     C494    1.418   .     S
C7     N41     1.356   .     A
C7     H34     1.083   .     S
C7     C491    1.418   .     S
C8     H35     1.083   .     S
C8     N42     1.356   .     A
C8     C978    1.418   1_554 S
C9     H36     1.105   .     S
C9     C20     1.522   .     S
C9     H37     1.110   .     S
C9     H38     1.109   .     S
C10    C21     1.522   .     S
C10    H39     1.105   .     S
C10    H40     1.109   .     S
C10    H24     1.110   .     S
C11    H27     1.110   .     S
C11    H25     1.111   .     S
C11    C22     1.525   .     S
C11    H26     1.105   .     S
C12    O47     1.285   .     A
C12    O45     1.284   .     A
C13    H28     1.111   .     S
C13    H29     1.110   .     S
C13    H30     1.105   .     S
C14    H31     1.086   .     S
C14    O52     1.217   .     D
C15    O44     1.217   .     D
C15    H32     1.086   .     S
C16    O50     1.284   .     A
C16    O48     1.286   .     A
C16    C18     1.400   .     S
C17    O51     1.284   .     A
C17    C19     1.400   .     S
C17    O49     1.286   .     A
C18    C127    1.326   1_455 S
C18    H131    1.087   1_455 S
C19    C72     1.326   .     S
C19    H87     1.087   .     S
C20    C346    1.394   1_545 S
C21    C164    1.394   .     S
C22    C182    1.394   .     S
H23    C72     1.087   .     S
H33    C127    1.087   1_455 S
N41    Zn53    2.027   .     S
N42    Zn54    2.027   .     S
O43    Zn53    1.990   .     S
O45    Zn54    1.990   .     S
O46    Zn54    1.975   .     S
O47    Zn53    1.975   .     S
O48    Zn53    1.973   .     S
O49    Zn54    1.973   .     S
O50    Zn54    1.976   .     S
O51    Zn53    1.976   .     S
C55    C58     1.409   .     S
C55    O100    1.285   .     A
C55    O97     1.284   .     A
C56    C58     1.408   .     A
C56    C67     1.525   .     S
C56    C399    1.394   1_545 S
C57    C75     1.410   .     A
C57    C66     1.409   .     S
C57    C76     1.408   .     A
C58    C74     1.410   .     A
C59    N96     1.387   .     A
C59    C68     1.473   .     S
C59    C1033   1.418   1_554 S
C60    C69     1.473   .     S
C60    N95     1.387   .     A
C60    C548    1.418   .     S
C61    N95     1.356   .     A
C61    H88     1.083   .     S
C61    C545    1.418   .     S
C62    H89     1.083   .     S
C62    N96     1.356   .     A
C62    C1032   1.418   1_554 S
C63    H90     1.105   .     S
C63    C74     1.522   .     S
C63    H91     1.110   .     S
C63    H92     1.109   .     S
C64    C75     1.522   .     S
C64    H93     1.105   .     S
C64    H94     1.109   .     S
C64    H78     1.110   .     S
C65    H81     1.110   .     S
C65    H79     1.111   .     S
C65    C76     1.525   .     S
C65    H80     1.105   .     S
C66    O101    1.285   .     A
C66    O99     1.284   .     A
C67    H82     1.111   .     S
C67    H83     1.110   .     S
C67    H84     1.105   .     S
C68    H85     1.086   .     S
C68    O106    1.217   .     D
C69    O98     1.217   .     D
C69    H86     1.086   .     S
C70    O104    1.284   .     A
C70    O102    1.286   .     A
C70    C72     1.400   .     S
C71    O105    1.284   .     A
C71    C73     1.400   .     S
C71    O103    1.286   .     A
C73    C126    1.326   .     S
C73    H141    1.087   .     S
C74    C400    1.394   1_545 S
C75    C218    1.394   .     S
C76    C236    1.394   .     S
H77    C126    1.087   .     S
N95    Zn107   2.027   .     S
N96    Zn108   2.027   .     S
O97    Zn107   1.990   .     S
O99    Zn108   1.990   .     S
O100   Zn108   1.975   .     S
O101   Zn107   1.975   .     S
O102   Zn107   1.973   .     S
O103   Zn108   1.973   .     S
O104   Zn108   1.976   .     S
O105   Zn107   1.976   .     S
C109   C112    1.409   .     S
C109   O154    1.285   .     A
C109   O151    1.284   .     A
C110   C112    1.408   .     A
C110   C121    1.525   .     S
C110   C453    1.394   1_545 S
C111   C129    1.410   .     A
C111   C120    1.409   .     S
C111   C130    1.408   .     A
C112   C128    1.410   .     A
C113   N150    1.387   .     A
C113   C122    1.473   .     S
C113   C1087   1.418   1_554 S
C114   C123    1.473   .     S
C114   N149    1.387   .     A
C114   C602    1.418   .     S
C115   N149    1.356   .     A
C115   H142    1.083   .     S
C115   C599    1.418   .     S
C116   H143    1.083   .     S
C116   N150    1.356   .     A
C116   C1086   1.418   1_554 S
C117   H144    1.105   .     S
C117   C128    1.522   .     S
C117   H145    1.110   .     S
C117   H146    1.109   .     S
C118   C129    1.522   .     S
C118   H147    1.105   .     S
C118   H148    1.109   .     S
C118   H132    1.110   .     S
C119   H135    1.110   .     S
C119   H133    1.111   .     S
C119   C130    1.525   .     S
C119   H134    1.105   .     S
C120   O155    1.285   .     A
C120   O153    1.284   .     A
C121   H136    1.111   .     S
C121   H137    1.110   .     S
C121   H138    1.105   .     S
C122   H139    1.086   .     S
C122   O160    1.217   .     D
C123   O152    1.217   .     D
C123   H140    1.086   .     S
C124   O158    1.284   .     A
C124   O156    1.286   .     A
C124   C126    1.400   .     S
C125   O159    1.284   .     A
C125   C127    1.400   .     S
C125   O157    1.286   .     A
C127   C18     1.326   1_655 S
C127   H33     1.087   1_655 S
C128   C454    1.394   1_545 S
C129   C272    1.394   .     S
C130   C290    1.394   .     S
H131   C18     1.087   1_655 S
N149   Zn161   2.027   .     S
N150   Zn162   2.027   .     S
O151   Zn161   1.990   .     S
O153   Zn162   1.990   .     S
O154   Zn162   1.975   .     S
O155   Zn161   1.975   .     S
O156   Zn161   1.973   .     S
O157   Zn162   1.973   .     S
O158   Zn162   1.976   .     S
O159   Zn161   1.976   .     S
C163   C166    1.409   .     S
C163   O208    1.285   .     A
C163   O205    1.284   .     A
C164   C166    1.408   .     A
C164   C175    1.525   .     S
C165   C183    1.410   .     A
C165   C174    1.409   .     S
C165   C184    1.408   .     A
C166   C182    1.410   .     A
C167   N204    1.387   .     A
C167   C176    1.473   .     S
C167   C1141   1.418   1_554 S
C168   C177    1.473   .     S
C168   N203    1.387   .     A
C168   C656    1.418   .     S
C169   N203    1.356   .     A
C169   H196    1.083   .     S
C169   C653    1.418   .     S
C170   H197    1.083   .     S
C170   N204    1.356   .     A
C170   C1140   1.418   1_554 S
C171   H198    1.105   .     S
C171   C182    1.522   .     S
C171   H199    1.110   .     S
C171   H200    1.109   .     S
C172   C183    1.522   .     S
C172   H201    1.105   .     S
C172   H202    1.109   .     S
C172   H186    1.110   .     S
C173   H189    1.110   .     S
C173   H187    1.111   .     S
C173   C184    1.525   .     S
C173   H188    1.105   .     S
C174   O209    1.285   .     A
C174   O207    1.284   .     A
C175   H190    1.111   .     S
C175   H191    1.110   .     S
C175   H192    1.105   .     S
C176   H193    1.086   .     S
C176   O214    1.217   .     D
C177   O206    1.217   .     D
C177   H194    1.086   .     S
C178   O212    1.284   .     A
C178   O210    1.286   .     A
C178   C180    1.400   .     S
C179   O213    1.284   .     A
C179   C181    1.400   .     S
C179   O211    1.286   .     A
C180   C289    1.326   1_455 S
C180   H293    1.087   1_455 S
C181   C234    1.326   .     S
C181   H249    1.087   .     S
C183   C326    1.394   .     S
C184   C344    1.394   .     S
H185   C234    1.087   .     S
H195   C289    1.087   1_455 S
N203   Zn215   2.027   .     S
N204   Zn216   2.027   .     S
O205   Zn215   1.990   .     S
O207   Zn216   1.990   .     S
O208   Zn216   1.975   .     S
O209   Zn215   1.975   .     S
O210   Zn215   1.973   .     S
O211   Zn216   1.973   .     S
O212   Zn216   1.976   .     S
O213   Zn215   1.976   .     S
C217   C220    1.409   .     S
C217   O262    1.285   .     A
C217   O259    1.284   .     A
C218   C220    1.408   .     A
C218   C229    1.525   .     S
C219   C237    1.410   .     A
C219   C228    1.409   .     S
C219   C238    1.408   .     A
C220   C236    1.410   .     A
C221   N258    1.387   .     A
C221   C230    1.473   .     S
C221   C1195   1.418   1_554 S
C222   C231    1.473   .     S
C222   N257    1.387   .     A
C222   C710    1.418   .     S
C223   N257    1.356   .     A
C223   H250    1.083   .     S
C223   C707    1.418   .     S
C224   H251    1.083   .     S
C224   N258    1.356   .     A
C224   C1194   1.418   1_554 S
C225   H252    1.105   .     S
C225   C236    1.522   .     S
C225   H253    1.110   .     S
C225   H254    1.109   .     S
C226   C237    1.522   .     S
C226   H255    1.105   .     S
C226   H256    1.109   .     S
C226   H240    1.110   .     S
C227   H243    1.110   .     S
C227   H241    1.111   .     S
C227   C238    1.525   .     S
C227   H242    1.105   .     S
C228   O263    1.285   .     A
C228   O261    1.284   .     A
C229   H244    1.111   .     S
C229   H245    1.110   .     S
C229   H246    1.105   .     S
C230   H247    1.086   .     S
C230   O268    1.217   .     D
C231   O260    1.217   .     D
C231   H248    1.086   .     S
C232   O266    1.284   .     A
C232   O264    1.286   .     A
C232   C234    1.400   .     S
C233   O267    1.284   .     A
C233   C235    1.400   .     S
C233   O265    1.286   .     A
C235   C288    1.326   .     S
C235   H303    1.087   .     S
C237   C380    1.394   .     S
C238   C398    1.394   .     S
H239   C288    1.087   .     S
N257   Zn269   2.027   .     S
N258   Zn270   2.027   .     S
O259   Zn269   1.990   .     S
O261   Zn270   1.990   .     S
O262   Zn270   1.975   .     S
O263   Zn269   1.975   .     S
O264   Zn269   1.973   .     S
O265   Zn270   1.973   .     S
O266   Zn270   1.976   .     S
O267   Zn269   1.976   .     S
C271   C274    1.409   .     S
C271   O316    1.285   .     A
C271   O313    1.284   .     A
C272   C274    1.408   .     A
C272   C283    1.525   .     S
C273   C291    1.410   .     A
C273   C282    1.409   .     S
C273   C292    1.408   .     A
C274   C290    1.410   .     A
C275   N312    1.387   .     A
C275   C284    1.473   .     S
C275   C1249   1.418   1_554 S
C276   C285    1.473   .     S
C276   N311    1.387   .     A
C276   C764    1.418   .     S
C277   N311    1.356   .     A
C277   H304    1.083   .     S
C277   C761    1.418   .     S
C278   H305    1.083   .     S
C278   N312    1.356   .     A
C278   C1248   1.418   1_554 S
C279   H306    1.105   .     S
C279   C290    1.522   .     S
C279   H307    1.110   .     S
C279   H308    1.109   .     S
C280   C291    1.522   .     S
C280   H309    1.105   .     S
C280   H310    1.109   .     S
C280   H294    1.110   .     S
C281   H297    1.110   .     S
C281   H295    1.111   .     S
C281   C292    1.525   .     S
C281   H296    1.105   .     S
C282   O317    1.285   .     A
C282   O315    1.284   .     A
C283   H298    1.111   .     S
C283   H299    1.110   .     S
C283   H300    1.105   .     S
C284   H301    1.086   .     S
C284   O322    1.217   .     D
C285   O314    1.217   .     D
C285   H302    1.086   .     S
C286   O320    1.284   .     A
C286   O318    1.286   .     A
C286   C288    1.400   .     S
C287   O321    1.284   .     A
C287   C289    1.400   .     S
C287   O319    1.286   .     A
C289   C180    1.326   1_655 S
C289   H195    1.087   1_655 S
C291   C434    1.394   .     S
C292   C452    1.394   .     S
H293   C180    1.087   1_655 S
N311   Zn323   2.027   .     S
N312   Zn324   2.027   .     S
O313   Zn323   1.990   .     S
O315   Zn324   1.990   .     S
O316   Zn324   1.975   .     S
O317   Zn323   1.975   .     S
O318   Zn323   1.973   .     S
O319   Zn324   1.973   .     S
O320   Zn324   1.976   .     S
O321   Zn323   1.976   .     S
C325   C328    1.409   .     S
C325   O370    1.285   .     A
C325   O367    1.284   .     A
C326   C328    1.408   .     A
C326   C337    1.525   .     S
C327   C345    1.410   .     A
C327   C336    1.409   .     S
C327   C346    1.408   .     A
C328   C344    1.410   .     A
C329   N366    1.387   .     A
C329   C338    1.473   .     S
C329   C1303   1.418   1_554 S
C330   C339    1.473   .     S
C330   N365    1.387   .     A
C330   C818    1.418   .     S
C331   N365    1.356   .     A
C331   H358    1.083   .     S
C331   C815    1.418   .     S
C332   H359    1.083   .     S
C332   N366    1.356   .     A
C332   C1302   1.418   1_554 S
C333   H360    1.105   .     S
C333   C344    1.522   .     S
C333   H361    1.110   .     S
C333   H362    1.109   .     S
C334   C345    1.522   .     S
C334   H363    1.105   .     S
C334   H364    1.109   .     S
C334   H348    1.110   .     S
C335   H351    1.110   .     S
C335   H349    1.111   .     S
C335   C346    1.525   .     S
C335   H350    1.105   .     S
C336   O371    1.285   .     A
C336   O369    1.284   .     A
C337   H352    1.111   .     S
C337   H353    1.110   .     S
C337   H354    1.105   .     S
C338   H355    1.086   .     S
C338   O376    1.217   .     D
C339   O368    1.217   .     D
C339   H356    1.086   .     S
C340   O374    1.284   .     A
C340   O372    1.286   .     A
C340   C342    1.400   .     S
C341   O375    1.284   .     A
C341   C343    1.400   .     S
C341   O373    1.286   .     A
C342   C451    1.326   1_455 S
C342   H455    1.087   1_455 S
C343   C396    1.326   .     S
C343   H411    1.087   .     S
C345   C2      1.394   1_565 S
C346   C20     1.394   1_565 S
H347   C396    1.087   .     S
H357   C451    1.087   1_455 S
N365   Zn377   2.027   .     S
N366   Zn378   2.027   .     S
O367   Zn377   1.990   .     S
O369   Zn378   1.990   .     S
O370   Zn378   1.975   .     S
O371   Zn377   1.975   .     S
O372   Zn377   1.973   .     S
O373   Zn378   1.973   .     S
O374   Zn378   1.976   .     S
O375   Zn377   1.976   .     S
C379   C382    1.409   .     S
C379   O424    1.285   .     A
C379   O421    1.284   .     A
C380   C382    1.408   .     A
C380   C391    1.525   .     S
C381   C399    1.410   .     A
C381   C390    1.409   .     S
C381   C400    1.408   .     A
C382   C398    1.410   .     A
C383   N420    1.387   .     A
C383   C392    1.473   .     S
C383   C1357   1.418   1_554 S
C384   C393    1.473   .     S
C384   N419    1.387   .     A
C384   C872    1.418   .     S
C385   N419    1.356   .     A
C385   H412    1.083   .     S
C385   C869    1.418   .     S
C386   H413    1.083   .     S
C386   N420    1.356   .     A
C386   C1356   1.418   1_554 S
C387   H414    1.105   .     S
C387   C398    1.522   .     S
C387   H415    1.110   .     S
C387   H416    1.109   .     S
C388   C399    1.522   .     S
C388   H417    1.105   .     S
C388   H418    1.109   .     S
C388   H402    1.110   .     S
C389   H405    1.110   .     S
C389   H403    1.111   .     S
C389   C400    1.525   .     S
C389   H404    1.105   .     S
C390   O425    1.285   .     A
C390   O423    1.284   .     A
C391   H406    1.111   .     S
C391   H407    1.110   .     S
C391   H408    1.105   .     S
C392   H409    1.086   .     S
C392   O430    1.217   .     D
C393   O422    1.217   .     D
C393   H410    1.086   .     S
C394   O428    1.284   .     A
C394   O426    1.286   .     A
C394   C396    1.400   .     S
C395   O429    1.284   .     A
C395   C397    1.400   .     S
C395   O427    1.286   .     A
C397   C450    1.326   .     S
C397   H465    1.087   .     S
C399   C56     1.394   1_565 S
C400   C74     1.394   1_565 S
H401   C450    1.087   .     S
N419   Zn431   2.027   .     S
N420   Zn432   2.027   .     S
O421   Zn431   1.990   .     S
O423   Zn432   1.990   .     S
O424   Zn432   1.975   .     S
O425   Zn431   1.975   .     S
O426   Zn431   1.973   .     S
O427   Zn432   1.973   .     S
O428   Zn432   1.976   .     S
O429   Zn431   1.976   .     S
C433   C436    1.409   .     S
C433   O478    1.285   .     A
C433   O475    1.284   .     A
C434   C436    1.408   .     A
C434   C445    1.525   .     S
C435   C453    1.410   .     A
C435   C444    1.409   .     S
C435   C454    1.408   .     A
C436   C452    1.410   .     A
C437   N474    1.387   .     A
C437   C446    1.473   .     S
C437   C1411   1.418   1_554 S
C438   C447    1.473   .     S
C438   N473    1.387   .     A
C438   C926    1.418   .     S
C439   N473    1.356   .     A
C439   H466    1.083   .     S
C439   C923    1.418   .     S
C440   H467    1.083   .     S
C440   N474    1.356   .     A
C440   C1410   1.418   1_554 S
C441   H468    1.105   .     S
C441   C452    1.522   .     S
C441   H469    1.110   .     S
C441   H470    1.109   .     S
C442   C453    1.522   .     S
C442   H471    1.105   .     S
C442   H472    1.109   .     S
C442   H456    1.110   .     S
C443   H459    1.110   .     S
C443   H457    1.111   .     S
C443   C454    1.525   .     S
C443   H458    1.105   .     S
C444   O479    1.285   .     A
C444   O477    1.284   .     A
C445   H460    1.111   .     S
C445   H461    1.110   .     S
C445   H462    1.105   .     S
C446   H463    1.086   .     S
C446   O484    1.217   .     D
C447   O476    1.217   .     D
C447   H464    1.086   .     S
C448   O482    1.284   .     A
C448   O480    1.286   .     A
C448   C450    1.400   .     S
C449   O483    1.284   .     A
C449   C451    1.400   .     S
C449   O481    1.286   .     A
C451   C342    1.326   1_655 S
C451   H357    1.087   1_655 S
C453   C110    1.394   1_565 S
C454   C128    1.394   1_565 S
H455   C342    1.087   1_655 S
N473   Zn485   2.027   .     S
N474   Zn486   2.027   .     S
O475   Zn485   1.990   .     S
O477   Zn486   1.990   .     S
O478   Zn486   1.975   .     S
O479   Zn485   1.975   .     S
O480   Zn485   1.973   .     S
O481   Zn486   1.973   .     S
O482   Zn486   1.976   .     S
O483   Zn485   1.976   .     S
C487   C490    1.409   .     S
C487   O532    1.285   .     A
C487   O529    1.284   .     A
C488   C490    1.408   .     A
C488   C499    1.525   .     S
C488   C831    1.394   1_545 S
C489   C507    1.410   .     A
C489   C498    1.409   .     S
C489   C508    1.408   .     A
C490   C506    1.410   .     A
C491   N528    1.387   .     A
C491   C500    1.473   .     S
C492   C501    1.473   .     S
C492   N527    1.387   .     A
C492   C980    1.418   .     S
C493   N527    1.356   .     A
C493   H520    1.083   .     S
C493   C977    1.418   .     S
C494   H521    1.083   .     S
C494   N528    1.356   .     A
C495   H522    1.105   .     S
C495   C506    1.522   .     S
C495   H523    1.110   .     S
C495   H524    1.109   .     S
C496   C507    1.522   .     S
C496   H525    1.105   .     S
C496   H526    1.109   .     S
C496   H510    1.110   .     S
C497   H513    1.110   .     S
C497   H511    1.111   .     S
C497   C508    1.525   .     S
C497   H512    1.105   .     S
C498   O533    1.285   .     A
C498   O531    1.284   .     A
C499   H514    1.111   .     S
C499   H515    1.110   .     S
C499   H516    1.105   .     S
C500   H517    1.086   .     S
C500   O538    1.217   .     D
C501   O530    1.217   .     D
C501   H518    1.086   .     S
C502   O536    1.284   .     A
C502   O534    1.286   .     A
C502   C504    1.400   .     S
C503   O537    1.284   .     A
C503   C505    1.400   .     S
C503   O535    1.286   .     A
C504   C613    1.326   1_455 S
C504   H617    1.087   1_455 S
C505   C558    1.326   .     S
C505   H573    1.087   .     S
C506   C832    1.394   1_545 S
C507   C650    1.394   .     S
C508   C668    1.394   .     S
H509   C558    1.087   .     S
H519   C613    1.087   1_455 S
N527   Zn539   2.027   .     S
N528   Zn540   2.027   .     S
O529   Zn539   1.990   .     S
O531   Zn540   1.990   .     S
O532   Zn540   1.975   .     S
O533   Zn539   1.975   .     S
O534   Zn539   1.973   .     S
O535   Zn540   1.973   .     S
O536   Zn540   1.976   .     S
O537   Zn539   1.976   .     S
C541   C544    1.409   .     S
C541   O586    1.285   .     A
C541   O583    1.284   .     A
C542   C544    1.408   .     A
C542   C553    1.525   .     S
C542   C885    1.394   1_545 S
C543   C561    1.410   .     A
C543   C552    1.409   .     S
C543   C562    1.408   .     A
C544   C560    1.410   .     A
C545   N582    1.387   .     A
C545   C554    1.473   .     S
C546   C555    1.473   .     S
C546   N581    1.387   .     A
C546   C1034   1.418   .     S
C547   N581    1.356   .     A
C547   H574    1.083   .     S
C547   C1031   1.418   .     S
C548   H575    1.083   .     S
C548   N582    1.356   .     A
C549   H576    1.105   .     S
C549   C560    1.522   .     S
C549   H577    1.110   .     S
C549   H578    1.109   .     S
C550   C561    1.522   .     S
C550   H579    1.105   .     S
C550   H580    1.109   .     S
C550   H564    1.110   .     S
C551   H567    1.110   .     S
C551   H565    1.111   .     S
C551   C562    1.525   .     S
C551   H566    1.105   .     S
C552   O587    1.285   .     A
C552   O585    1.284   .     A
C553   H568    1.111   .     S
C553   H569    1.110   .     S
C553   H570    1.105   .     S
C554   H571    1.086   .     S
C554   O592    1.217   .     D
C555   O584    1.217   .     D
C555   H572    1.086   .     S
C556   O590    1.284   .     A
C556   O588    1.286   .     A
C556   C558    1.400   .     S
C557   O591    1.284   .     A
C557   C559    1.400   .     S
C557   O589    1.286   .     A
C559   C612    1.326   .     S
C559   H627    1.087   .     S
C560   C886    1.394   1_545 S
C561   C704    1.394   .     S
C562   C722    1.394   .     S
H563   C612    1.087   .     S
N581   Zn593   2.027   .     S
N582   Zn594   2.027   .     S
O583   Zn593   1.990   .     S
O585   Zn594   1.990   .     S
O586   Zn594   1.975   .     S
O587   Zn593   1.975   .     S
O588   Zn593   1.973   .     S
O589   Zn594   1.973   .     S
O590   Zn594   1.976   .     S
O591   Zn593   1.976   .     S
C595   C598    1.409   .     S
C595   O640    1.285   .     A
C595   O637    1.284   .     A
C596   C598    1.408   .     A
C596   C607    1.525   .     S
C596   C939    1.394   1_545 S
C597   C615    1.410   .     A
C597   C606    1.409   .     S
C597   C616    1.408   .     A
C598   C614    1.410   .     A
C599   N636    1.387   .     A
C599   C608    1.473   .     S
C600   C609    1.473   .     S
C600   N635    1.387   .     A
C600   C1088   1.418   .     S
C601   N635    1.356   .     A
C601   H628    1.083   .     S
C601   C1085   1.418   .     S
C602   H629    1.083   .     S
C602   N636    1.356   .     A
C603   H630    1.105   .     S
C603   C614    1.522   .     S
C603   H631    1.110   .     S
C603   H632    1.109   .     S
C604   C615    1.522   .     S
C604   H633    1.105   .     S
C604   H634    1.109   .     S
C604   H618    1.110   .     S
C605   H621    1.110   .     S
C605   H619    1.111   .     S
C605   C616    1.525   .     S
C605   H620    1.105   .     S
C606   O641    1.285   .     A
C606   O639    1.284   .     A
C607   H622    1.111   .     S
C607   H623    1.110   .     S
C607   H624    1.105   .     S
C608   H625    1.086   .     S
C608   O646    1.217   .     D
C609   O638    1.217   .     D
C609   H626    1.086   .     S
C610   O644    1.284   .     A
C610   O642    1.286   .     A
C610   C612    1.400   .     S
C611   O645    1.284   .     A
C611   C613    1.400   .     S
C611   O643    1.286   .     A
C613   C504    1.326   1_655 S
C613   H519    1.087   1_655 S
C614   C940    1.394   1_545 S
C615   C758    1.394   .     S
C616   C776    1.394   .     S
H617   C504    1.087   1_655 S
N635   Zn647   2.027   .     S
N636   Zn648   2.027   .     S
O637   Zn647   1.990   .     S
O639   Zn648   1.990   .     S
O640   Zn648   1.975   .     S
O641   Zn647   1.975   .     S
O642   Zn647   1.973   .     S
O643   Zn648   1.973   .     S
O644   Zn648   1.976   .     S
O645   Zn647   1.976   .     S
C649   C652    1.409   .     S
C649   O694    1.285   .     A
C649   O691    1.284   .     A
C650   C652    1.408   .     A
C650   C661    1.525   .     S
C651   C669    1.410   .     A
C651   C660    1.409   .     S
C651   C670    1.408   .     A
C652   C668    1.410   .     A
C653   N690    1.387   .     A
C653   C662    1.473   .     S
C654   C663    1.473   .     S
C654   N689    1.387   .     A
C654   C1142   1.418   .     S
C655   N689    1.356   .     A
C655   H682    1.083   .     S
C655   C1139   1.418   .     S
C656   H683    1.083   .     S
C656   N690    1.356   .     A
C657   H684    1.105   .     S
C657   C668    1.522   .     S
C657   H685    1.110   .     S
C657   H686    1.109   .     S
C658   C669    1.522   .     S
C658   H687    1.105   .     S
C658   H688    1.109   .     S
C658   H672    1.110   .     S
C659   H675    1.110   .     S
C659   H673    1.111   .     S
C659   C670    1.525   .     S
C659   H674    1.105   .     S
C660   O695    1.285   .     A
C660   O693    1.284   .     A
C661   H676    1.111   .     S
C661   H677    1.110   .     S
C661   H678    1.105   .     S
C662   H679    1.086   .     S
C662   O700    1.217   .     D
C663   O692    1.217   .     D
C663   H680    1.086   .     S
C664   O698    1.284   .     A
C664   O696    1.286   .     A
C664   C666    1.400   .     S
C665   O699    1.284   .     A
C665   C667    1.400   .     S
C665   O697    1.286   .     A
C666   C775    1.326   1_455 S
C666   H779    1.087   1_455 S
C667   C720    1.326   .     S
C667   H735    1.087   .     S
C669   C812    1.394   .     S
C670   C830    1.394   .     S
H671   C720    1.087   .     S
H681   C775    1.087   1_455 S
N689   Zn701   2.027   .     S
N690   Zn702   2.027   .     S
O691   Zn701   1.990   .     S
O693   Zn702   1.990   .     S
O694   Zn702   1.975   .     S
O695   Zn701   1.975   .     S
O696   Zn701   1.973   .     S
O697   Zn702   1.973   .     S
O698   Zn702   1.976   .     S
O699   Zn701   1.976   .     S
C703   C706    1.409   .     S
C703   O748    1.285   .     A
C703   O745    1.284   .     A
C704   C706    1.408   .     A
C704   C715    1.525   .     S
C705   C723    1.410   .     A
C705   C714    1.409   .     S
C705   C724    1.408   .     A
C706   C722    1.410   .     A
C707   N744    1.387   .     A
C707   C716    1.473   .     S
C708   C717    1.473   .     S
C708   N743    1.387   .     A
C708   C1196   1.418   .     S
C709   N743    1.356   .     A
C709   H736    1.083   .     S
C709   C1193   1.418   .     S
C710   H737    1.083   .     S
C710   N744    1.356   .     A
C711   H738    1.105   .     S
C711   C722    1.522   .     S
C711   H739    1.110   .     S
C711   H740    1.109   .     S
C712   C723    1.522   .     S
C712   H741    1.105   .     S
C712   H742    1.109   .     S
C712   H726    1.110   .     S
C713   H729    1.110   .     S
C713   H727    1.111   .     S
C713   C724    1.525   .     S
C713   H728    1.105   .     S
C714   O749    1.285   .     A
C714   O747    1.284   .     A
C715   H730    1.111   .     S
C715   H731    1.110   .     S
C715   H732    1.105   .     S
C716   H733    1.086   .     S
C716   O754    1.217   .     D
C717   O746    1.217   .     D
C717   H734    1.086   .     S
C718   O752    1.284   .     A
C718   O750    1.286   .     A
C718   C720    1.400   .     S
C719   O753    1.284   .     A
C719   C721    1.400   .     S
C719   O751    1.286   .     A
C721   C774    1.326   .     S
C721   H789    1.087   .     S
C723   C866    1.394   .     S
C724   C884    1.394   .     S
H725   C774    1.087   .     S
N743   Zn755   2.027   .     S
N744   Zn756   2.027   .     S
O745   Zn755   1.990   .     S
O747   Zn756   1.990   .     S
O748   Zn756   1.975   .     S
O749   Zn755   1.975   .     S
O750   Zn755   1.973   .     S
O751   Zn756   1.973   .     S
O752   Zn756   1.976   .     S
O753   Zn755   1.976   .     S
C757   C760    1.409   .     S
C757   O802    1.285   .     A
C757   O799    1.284   .     A
C758   C760    1.408   .     A
C758   C769    1.525   .     S
C759   C777    1.410   .     A
C759   C768    1.409   .     S
C759   C778    1.408   .     A
C760   C776    1.410   .     A
C761   N798    1.387   .     A
C761   C770    1.473   .     S
C762   C771    1.473   .     S
C762   N797    1.387   .     A
C762   C1250   1.418   .     S
C763   N797    1.356   .     A
C763   H790    1.083   .     S
C763   C1247   1.418   .     S
C764   H791    1.083   .     S
C764   N798    1.356   .     A
C765   H792    1.105   .     S
C765   C776    1.522   .     S
C765   H793    1.110   .     S
C765   H794    1.109   .     S
C766   C777    1.522   .     S
C766   H795    1.105   .     S
C766   H796    1.109   .     S
C766   H780    1.110   .     S
C767   H783    1.110   .     S
C767   H781    1.111   .     S
C767   C778    1.525   .     S
C767   H782    1.105   .     S
C768   O803    1.285   .     A
C768   O801    1.284   .     A
C769   H784    1.111   .     S
C769   H785    1.110   .     S
C769   H786    1.105   .     S
C770   H787    1.086   .     S
C770   O808    1.217   .     D
C771   O800    1.217   .     D
C771   H788    1.086   .     S
C772   O806    1.284   .     A
C772   O804    1.286   .     A
C772   C774    1.400   .     S
C773   O807    1.284   .     A
C773   C775    1.400   .     S
C773   O805    1.286   .     A
C775   C666    1.326   1_655 S
C775   H681    1.087   1_655 S
C777   C920    1.394   .     S
C778   C938    1.394   .     S
H779   C666    1.087   1_655 S
N797   Zn809   2.027   .     S
N798   Zn810   2.027   .     S
O799   Zn809   1.990   .     S
O801   Zn810   1.990   .     S
O802   Zn810   1.975   .     S
O803   Zn809   1.975   .     S
O804   Zn809   1.973   .     S
O805   Zn810   1.973   .     S
O806   Zn810   1.976   .     S
O807   Zn809   1.976   .     S
C811   C814    1.409   .     S
C811   O856    1.285   .     A
C811   O853    1.284   .     A
C812   C814    1.408   .     A
C812   C823    1.525   .     S
C813   C831    1.410   .     A
C813   C822    1.409   .     S
C813   C832    1.408   .     A
C814   C830    1.410   .     A
C815   N852    1.387   .     A
C815   C824    1.473   .     S
C816   C825    1.473   .     S
C816   N851    1.387   .     A
C816   C1304   1.418   .     S
C817   N851    1.356   .     A
C817   H844    1.083   .     S
C817   C1301   1.418   .     S
C818   H845    1.083   .     S
C818   N852    1.356   .     A
C819   H846    1.105   .     S
C819   C830    1.522   .     S
C819   H847    1.110   .     S
C819   H848    1.109   .     S
C820   C831    1.522   .     S
C820   H849    1.105   .     S
C820   H850    1.109   .     S
C820   H834    1.110   .     S
C821   H837    1.110   .     S
C821   H835    1.111   .     S
C821   C832    1.525   .     S
C821   H836    1.105   .     S
C822   O857    1.285   .     A
C822   O855    1.284   .     A
C823   H838    1.111   .     S
C823   H839    1.110   .     S
C823   H840    1.105   .     S
C824   H841    1.086   .     S
C824   O862    1.217   .     D
C825   O854    1.217   .     D
C825   H842    1.086   .     S
C826   O860    1.284   .     A
C826   O858    1.286   .     A
C826   C828    1.400   .     S
C827   O861    1.284   .     A
C827   C829    1.400   .     S
C827   O859    1.286   .     A
C828   C937    1.326   1_455 S
C828   H941    1.087   1_455 S
C829   C882    1.326   .     S
C829   H897    1.087   .     S
C831   C488    1.394   1_565 S
C832   C506    1.394   1_565 S
H833   C882    1.087   .     S
H843   C937    1.087   1_455 S
N851   Zn863   2.027   .     S
N852   Zn864   2.027   .     S
O853   Zn863   1.990   .     S
O855   Zn864   1.990   .     S
O856   Zn864   1.975   .     S
O857   Zn863   1.975   .     S
O858   Zn863   1.973   .     S
O859   Zn864   1.973   .     S
O860   Zn864   1.976   .     S
O861   Zn863   1.976   .     S
C865   C868    1.409   .     S
C865   O910    1.285   .     A
C865   O907    1.284   .     A
C866   C868    1.408   .     A
C866   C877    1.525   .     S
C867   C885    1.410   .     A
C867   C876    1.409   .     S
C867   C886    1.408   .     A
C868   C884    1.410   .     A
C869   N906    1.387   .     A
C869   C878    1.473   .     S
C870   C879    1.473   .     S
C870   N905    1.387   .     A
C870   C1358   1.418   .     S
C871   N905    1.356   .     A
C871   H898    1.083   .     S
C871   C1355   1.418   .     S
C872   H899    1.083   .     S
C872   N906    1.356   .     A
C873   H900    1.105   .     S
C873   C884    1.522   .     S
C873   H901    1.110   .     S
C873   H902    1.109   .     S
C874   C885    1.522   .     S
C874   H903    1.105   .     S
C874   H904    1.109   .     S
C874   H888    1.110   .     S
C875   H891    1.110   .     S
C875   H889    1.111   .     S
C875   C886    1.525   .     S
C875   H890    1.105   .     S
C876   O911    1.285   .     A
C876   O909    1.284   .     A
C877   H892    1.111   .     S
C877   H893    1.110   .     S
C877   H894    1.105   .     S
C878   H895    1.086   .     S
C878   O916    1.217   .     D
C879   O908    1.217   .     D
C879   H896    1.086   .     S
C880   O914    1.284   .     A
C880   O912    1.286   .     A
C880   C882    1.400   .     S
C881   O915    1.284   .     A
C881   C883    1.400   .     S
C881   O913    1.286   .     A
C883   C936    1.326   .     S
C883   H951    1.087   .     S
C885   C542    1.394   1_565 S
C886   C560    1.394   1_565 S
H887   C936    1.087   .     S
N905   Zn917   2.027   .     S
N906   Zn918   2.027   .     S
O907   Zn917   1.990   .     S
O909   Zn918   1.990   .     S
O910   Zn918   1.975   .     S
O911   Zn917   1.975   .     S
O912   Zn917   1.973   .     S
O913   Zn918   1.973   .     S
O914   Zn918   1.976   .     S
O915   Zn917   1.976   .     S
C919   C922    1.409   .     S
C919   O964    1.285   .     A
C919   O961    1.284   .     A
C920   C922    1.408   .     A
C920   C931    1.525   .     S
C921   C939    1.410   .     A
C921   C930    1.409   .     S
C921   C940    1.408   .     A
C922   C938    1.410   .     A
C923   N960    1.387   .     A
C923   C932    1.473   .     S
C924   C933    1.473   .     S
C924   N959    1.387   .     A
C924   C1412   1.418   .     S
C925   N959    1.356   .     A
C925   H952    1.083   .     S
C925   C1409   1.418   .     S
C926   H953    1.083   .     S
C926   N960    1.356   .     A
C927   H954    1.105   .     S
C927   C938    1.522   .     S
C927   H955    1.110   .     S
C927   H956    1.109   .     S
C928   C939    1.522   .     S
C928   H957    1.105   .     S
C928   H958    1.109   .     S
C928   H942    1.110   .     S
C929   H945    1.110   .     S
C929   H943    1.111   .     S
C929   C940    1.525   .     S
C929   H944    1.105   .     S
C930   O965    1.285   .     A
C930   O963    1.284   .     A
C931   H946    1.111   .     S
C931   H947    1.110   .     S
C931   H948    1.105   .     S
C932   H949    1.086   .     S
C932   O970    1.217   .     D
C933   O962    1.217   .     D
C933   H950    1.086   .     S
C934   O968    1.284   .     A
C934   O966    1.286   .     A
C934   C936    1.400   .     S
C935   O969    1.284   .     A
C935   C937    1.400   .     S
C935   O967    1.286   .     A
C937   C828    1.326   1_655 S
C937   H843    1.087   1_655 S
C939   C596    1.394   1_565 S
C940   C614    1.394   1_565 S
H941   C828    1.087   1_655 S
N959   Zn971   2.027   .     S
N960   Zn972   2.027   .     S
O961   Zn971   1.990   .     S
O963   Zn972   1.990   .     S
O964   Zn972   1.975   .     S
O965   Zn971   1.975   .     S
O966   Zn971   1.973   .     S
O967   Zn972   1.973   .     S
O968   Zn972   1.976   .     S
O969   Zn971   1.976   .     S
C973   C976    1.409   .     S
C973   O1018   1.285   .     A
C973   O1015   1.284   .     A
C974   C976    1.408   .     A
C974   C985    1.525   .     S
C974   C1317   1.394   1_545 S
C975   C993    1.410   .     A
C975   C984    1.409   .     S
C975   C994    1.408   .     A
C976   C992    1.410   .     A
C977   N1014   1.387   .     A
C977   C986    1.473   .     S
C978   C987    1.473   .     S
C978   N1013   1.387   .     A
C978   C8      1.418   1_556 S
C979   N1013   1.356   .     A
C979   H1006   1.083   .     S
C979   C5      1.418   1_556 S
C980   H1007   1.083   .     S
C980   N1014   1.356   .     A
C981   H1008   1.105   .     S
C981   C992    1.522   .     S
C981   H1009   1.110   .     S
C981   H1010   1.109   .     S
C982   C993    1.522   .     S
C982   H1011   1.105   .     S
C982   H1012   1.109   .     S
C982   H996    1.110   .     S
C983   H999    1.110   .     S
C983   H997    1.111   .     S
C983   C994    1.525   .     S
C983   H998    1.105   .     S
C984   O1019   1.285   .     A
C984   O1017   1.284   .     A
C985   H1000   1.111   .     S
C985   H1001   1.110   .     S
C985   H1002   1.105   .     S
C986   H1003   1.086   .     S
C986   O1024   1.217   .     D
C987   O1016   1.217   .     D
C987   H1004   1.086   .     S
C988   O1022   1.284   .     A
C988   O1020   1.286   .     A
C988   C990    1.400   .     S
C989   O1023   1.284   .     A
C989   C991    1.400   .     S
C989   O1021   1.286   .     A
C990   C1099   1.326   1_455 S
C990   H1103   1.087   1_455 S
C991   C1044   1.326   .     S
C991   H1059   1.087   .     S
C992   C1318   1.394   1_545 S
C993   C1136   1.394   .     S
C994   C1154   1.394   .     S
H995   C1044   1.087   .     S
H1005  C1099   1.087   1_455 S
N1013  Zn1025  2.027   .     S
N1014  Zn1026  2.027   .     S
O1015  Zn1025  1.990   .     S
O1017  Zn1026  1.990   .     S
O1018  Zn1026  1.975   .     S
O1019  Zn1025  1.975   .     S
O1020  Zn1025  1.973   .     S
O1021  Zn1026  1.973   .     S
O1022  Zn1026  1.976   .     S
O1023  Zn1025  1.976   .     S
C1027  C1030   1.409   .     S
C1027  O1072   1.285   .     A
C1027  O1069   1.284   .     A
C1028  C1030   1.408   .     A
C1028  C1039   1.525   .     S
C1028  C1371   1.394   1_545 S
C1029  C1047   1.410   .     A
C1029  C1038   1.409   .     S
C1029  C1048   1.408   .     A
C1030  C1046   1.410   .     A
C1031  N1068   1.387   .     A
C1031  C1040   1.473   .     S
C1032  C1041   1.473   .     S
C1032  N1067   1.387   .     A
C1032  C62     1.418   1_556 S
C1033  N1067   1.356   .     A
C1033  H1060   1.083   .     S
C1033  C59     1.418   1_556 S
C1034  H1061   1.083   .     S
C1034  N1068   1.356   .     A
C1035  H1062   1.105   .     S
C1035  C1046   1.522   .     S
C1035  H1063   1.110   .     S
C1035  H1064   1.109   .     S
C1036  C1047   1.522   .     S
C1036  H1065   1.105   .     S
C1036  H1066   1.109   .     S
C1036  H1050   1.110   .     S
C1037  H1053   1.110   .     S
C1037  H1051   1.111   .     S
C1037  C1048   1.525   .     S
C1037  H1052   1.105   .     S
C1038  O1073   1.285   .     A
C1038  O1071   1.284   .     A
C1039  H1054   1.111   .     S
C1039  H1055   1.110   .     S
C1039  H1056   1.105   .     S
C1040  H1057   1.086   .     S
C1040  O1078   1.217   .     D
C1041  O1070   1.217   .     D
C1041  H1058   1.086   .     S
C1042  O1076   1.284   .     A
C1042  O1074   1.286   .     A
C1042  C1044   1.400   .     S
C1043  O1077   1.284   .     A
C1043  C1045   1.400   .     S
C1043  O1075   1.286   .     A
C1045  C1098   1.326   .     S
C1045  H1113   1.087   .     S
C1046  C1372   1.394   1_545 S
C1047  C1190   1.394   .     S
C1048  C1208   1.394   .     S
H1049  C1098   1.087   .     S
N1067  Zn1079  2.027   .     S
N1068  Zn1080  2.027   .     S
O1069  Zn1079  1.990   .     S
O1071  Zn1080  1.990   .     S
O1072  Zn1080  1.975   .     S
O1073  Zn1079  1.975   .     S
O1074  Zn1079  1.973   .     S
O1075  Zn1080  1.973   .     S
O1076  Zn1080  1.976   .     S
O1077  Zn1079  1.976   .     S
C1081  C1084   1.409   .     S
C1081  O1126   1.285   .     A
C1081  O1123   1.284   .     A
C1082  C1084   1.408   .     A
C1082  C1093   1.525   .     S
C1082  C1425   1.394   1_545 S
C1083  C1101   1.410   .     A
C1083  C1092   1.409   .     S
C1083  C1102   1.408   .     A
C1084  C1100   1.410   .     A
C1085  N1122   1.387   .     A
C1085  C1094   1.473   .     S
C1086  C1095   1.473   .     S
C1086  N1121   1.387   .     A
C1086  C116    1.418   1_556 S
C1087  N1121   1.356   .     A
C1087  H1114   1.083   .     S
C1087  C113    1.418   1_556 S
C1088  H1115   1.083   .     S
C1088  N1122   1.356   .     A
C1089  H1116   1.105   .     S
C1089  C1100   1.522   .     S
C1089  H1117   1.110   .     S
C1089  H1118   1.109   .     S
C1090  C1101   1.522   .     S
C1090  H1119   1.105   .     S
C1090  H1120   1.109   .     S
C1090  H1104   1.110   .     S
C1091  H1107   1.110   .     S
C1091  H1105   1.111   .     S
C1091  C1102   1.525   .     S
C1091  H1106   1.105   .     S
C1092  O1127   1.285   .     A
C1092  O1125   1.284   .     A
C1093  H1108   1.111   .     S
C1093  H1109   1.110   .     S
C1093  H1110   1.105   .     S
C1094  H1111   1.086   .     S
C1094  O1132   1.217   .     D
C1095  O1124   1.217   .     D
C1095  H1112   1.086   .     S
C1096  O1130   1.284   .     A
C1096  O1128   1.286   .     A
C1096  C1098   1.400   .     S
C1097  O1131   1.284   .     A
C1097  C1099   1.400   .     S
C1097  O1129   1.286   .     A
C1099  C990    1.326   1_655 S
C1099  H1005   1.087   1_655 S
C1100  C1426   1.394   1_545 S
C1101  C1244   1.394   .     S
C1102  C1262   1.394   .     S
H1103  C990    1.087   1_655 S
N1121  Zn1133  2.027   .     S
N1122  Zn1134  2.027   .     S
O1123  Zn1133  1.990   .     S
O1125  Zn1134  1.990   .     S
O1126  Zn1134  1.975   .     S
O1127  Zn1133  1.975   .     S
O1128  Zn1133  1.973   .     S
O1129  Zn1134  1.973   .     S
O1130  Zn1134  1.976   .     S
O1131  Zn1133  1.976   .     S
C1135  C1138   1.409   .     S
C1135  O1180   1.285   .     A
C1135  O1177   1.284   .     A
C1136  C1138   1.408   .     A
C1136  C1147   1.525   .     S
C1137  C1155   1.410   .     A
C1137  C1146   1.409   .     S
C1137  C1156   1.408   .     A
C1138  C1154   1.410   .     A
C1139  N1176   1.387   .     A
C1139  C1148   1.473   .     S
C1140  C1149   1.473   .     S
C1140  N1175   1.387   .     A
C1140  C170    1.418   1_556 S
C1141  N1175   1.356   .     A
C1141  H1168   1.083   .     S
C1141  C167    1.418   1_556 S
C1142  H1169   1.083   .     S
C1142  N1176   1.356   .     A
C1143  H1170   1.105   .     S
C1143  C1154   1.522   .     S
C1143  H1171   1.110   .     S
C1143  H1172   1.109   .     S
C1144  C1155   1.522   .     S
C1144  H1173   1.105   .     S
C1144  H1174   1.109   .     S
C1144  H1158   1.110   .     S
C1145  H1161   1.110   .     S
C1145  H1159   1.111   .     S
C1145  C1156   1.525   .     S
C1145  H1160   1.105   .     S
C1146  O1181   1.285   .     A
C1146  O1179   1.284   .     A
C1147  H1162   1.111   .     S
C1147  H1163   1.110   .     S
C1147  H1164   1.105   .     S
C1148  H1165   1.086   .     S
C1148  O1186   1.217   .     D
C1149  O1178   1.217   .     D
C1149  H1166   1.086   .     S
C1150  O1184   1.284   .     A
C1150  O1182   1.286   .     A
C1150  C1152   1.400   .     S
C1151  O1185   1.284   .     A
C1151  C1153   1.400   .     S
C1151  O1183   1.286   .     A
C1152  C1261   1.326   1_455 S
C1152  H1265   1.087   1_455 S
C1153  C1206   1.326   .     S
C1153  H1221   1.087   .     S
C1155  C1298   1.394   .     S
C1156  C1316   1.394   .     S
H1157  C1206   1.087   .     S
H1167  C1261   1.087   1_455 S
N1175  Zn1187  2.027   .     S
N1176  Zn1188  2.027   .     S
O1177  Zn1187  1.990   .     S
O1179  Zn1188  1.990   .     S
O1180  Zn1188  1.975   .     S
O1181  Zn1187  1.975   .     S
O1182  Zn1187  1.973   .     S
O1183  Zn1188  1.973   .     S
O1184  Zn1188  1.976   .     S
O1185  Zn1187  1.976   .     S
C1189  C1192   1.409   .     S
C1189  O1234   1.285   .     A
C1189  O1231   1.284   .     A
C1190  C1192   1.408   .     A
C1190  C1201   1.525   .     S
C1191  C1209   1.410   .     A
C1191  C1200   1.409   .     S
C1191  C1210   1.408   .     A
C1192  C1208   1.410   .     A
C1193  N1230   1.387   .     A
C1193  C1202   1.473   .     S
C1194  C1203   1.473   .     S
C1194  N1229   1.387   .     A
C1194  C224    1.418   1_556 S
C1195  N1229   1.356   .     A
C1195  H1222   1.083   .     S
C1195  C221    1.418   1_556 S
C1196  H1223   1.083   .     S
C1196  N1230   1.356   .     A
C1197  H1224   1.105   .     S
C1197  C1208   1.522   .     S
C1197  H1225   1.110   .     S
C1197  H1226   1.109   .     S
C1198  C1209   1.522   .     S
C1198  H1227   1.105   .     S
C1198  H1228   1.109   .     S
C1198  H1212   1.110   .     S
C1199  H1215   1.110   .     S
C1199  H1213   1.111   .     S
C1199  C1210   1.525   .     S
C1199  H1214   1.105   .     S
C1200  O1235   1.285   .     A
C1200  O1233   1.284   .     A
C1201  H1216   1.111   .     S
C1201  H1217   1.110   .     S
C1201  H1218   1.105   .     S
C1202  H1219   1.086   .     S
C1202  O1240   1.217   .     D
C1203  O1232   1.217   .     D
C1203  H1220   1.086   .     S
C1204  O1238   1.284   .     A
C1204  O1236   1.286   .     A
C1204  C1206   1.400   .     S
C1205  O1239   1.284   .     A
C1205  C1207   1.400   .     S
C1205  O1237   1.286   .     A
C1207  C1260   1.326   .     S
C1207  H1275   1.087   .     S
C1209  C1352   1.394   .     S
C1210  C1370   1.394   .     S
H1211  C1260   1.087   .     S
N1229  Zn1241  2.027   .     S
N1230  Zn1242  2.027   .     S
O1231  Zn1241  1.990   .     S
O1233  Zn1242  1.990   .     S
O1234  Zn1242  1.975   .     S
O1235  Zn1241  1.975   .     S
O1236  Zn1241  1.973   .     S
O1237  Zn1242  1.973   .     S
O1238  Zn1242  1.976   .     S
O1239  Zn1241  1.976   .     S
C1243  C1246   1.409   .     S
C1243  O1288   1.285   .     A
C1243  O1285   1.284   .     A
C1244  C1246   1.408   .     A
C1244  C1255   1.525   .     S
C1245  C1263   1.410   .     A
C1245  C1254   1.409   .     S
C1245  C1264   1.408   .     A
C1246  C1262   1.410   .     A
C1247  N1284   1.387   .     A
C1247  C1256   1.473   .     S
C1248  C1257   1.473   .     S
C1248  N1283   1.387   .     A
C1248  C278    1.418   1_556 S
C1249  N1283   1.356   .     A
C1249  H1276   1.083   .     S
C1249  C275    1.418   1_556 S
C1250  H1277   1.083   .     S
C1250  N1284   1.356   .     A
C1251  H1278   1.105   .     S
C1251  C1262   1.522   .     S
C1251  H1279   1.110   .     S
C1251  H1280   1.109   .     S
C1252  C1263   1.522   .     S
C1252  H1281   1.105   .     S
C1252  H1282   1.109   .     S
C1252  H1266   1.110   .     S
C1253  H1269   1.110   .     S
C1253  H1267   1.111   .     S
C1253  C1264   1.525   .     S
C1253  H1268   1.105   .     S
C1254  O1289   1.285   .     A
C1254  O1287   1.284   .     A
C1255  H1270   1.111   .     S
C1255  H1271   1.110   .     S
C1255  H1272   1.105   .     S
C1256  H1273   1.086   .     S
C1256  O1294   1.217   .     D
C1257  O1286   1.217   .     D
C1257  H1274   1.086   .     S
C1258  O1292   1.284   .     A
C1258  O1290   1.286   .     A
C1258  C1260   1.400   .     S
C1259  O1293   1.284   .     A
C1259  C1261   1.400   .     S
C1259  O1291   1.286   .     A
C1261  C1152   1.326   1_655 S
C1261  H1167   1.087   1_655 S
C1263  C1406   1.394   .     S
C1264  C1424   1.394   .     S
H1265  C1152   1.087   1_655 S
N1283  Zn1295  2.027   .     S
N1284  Zn1296  2.027   .     S
O1285  Zn1295  1.990   .     S
O1287  Zn1296  1.990   .     S
O1288  Zn1296  1.975   .     S
O1289  Zn1295  1.975   .     S
O1290  Zn1295  1.973   .     S
O1291  Zn1296  1.973   .     S
O1292  Zn1296  1.976   .     S
O1293  Zn1295  1.976   .     S
C1297  C1300   1.409   .     S
C1297  O1342   1.285   .     A
C1297  O1339   1.284   .     A
C1298  C1300   1.408   .     A
C1298  C1309   1.525   .     S
C1299  C1317   1.410   .     A
C1299  C1308   1.409   .     S
C1299  C1318   1.408   .     A
C1300  C1316   1.410   .     A
C1301  N1338   1.387   .     A
C1301  C1310   1.473   .     S
C1302  C1311   1.473   .     S
C1302  N1337   1.387   .     A
C1302  C332    1.418   1_556 S
C1303  N1337   1.356   .     A
C1303  H1330   1.083   .     S
C1303  C329    1.418   1_556 S
C1304  H1331   1.083   .     S
C1304  N1338   1.356   .     A
C1305  H1332   1.105   .     S
C1305  C1316   1.522   .     S
C1305  H1333   1.110   .     S
C1305  H1334   1.109   .     S
C1306  C1317   1.522   .     S
C1306  H1335   1.105   .     S
C1306  H1336   1.109   .     S
C1306  H1320   1.110   .     S
C1307  H1323   1.110   .     S
C1307  H1321   1.111   .     S
C1307  C1318   1.525   .     S
C1307  H1322   1.105   .     S
C1308  O1343   1.285   .     A
C1308  O1341   1.284   .     A
C1309  H1324   1.111   .     S
C1309  H1325   1.110   .     S
C1309  H1326   1.105   .     S
C1310  H1327   1.086   .     S
C1310  O1348   1.217   .     D
C1311  O1340   1.217   .     D
C1311  H1328   1.086   .     S
C1312  O1346   1.284   .     A
C1312  O1344   1.286   .     A
C1312  C1314   1.400   .     S
C1313  O1347   1.284   .     A
C1313  C1315   1.400   .     S
C1313  O1345   1.286   .     A
C1314  C1423   1.326   1_455 S
C1314  H1427   1.087   1_455 S
C1315  C1368   1.326   .     S
C1315  H1383   1.087   .     S
C1317  C974    1.394   1_565 S
C1318  C992    1.394   1_565 S
H1319  C1368   1.087   .     S
H1329  C1423   1.087   1_455 S
N1337  Zn1349  2.027   .     S
N1338  Zn1350  2.027   .     S
O1339  Zn1349  1.990   .     S
O1341  Zn1350  1.990   .     S
O1342  Zn1350  1.975   .     S
O1343  Zn1349  1.975   .     S
O1344  Zn1349  1.973   .     S
O1345  Zn1350  1.973   .     S
O1346  Zn1350  1.976   .     S
O1347  Zn1349  1.976   .     S
C1351  C1354   1.409   .     S
C1351  O1396   1.285   .     A
C1351  O1393   1.284   .     A
C1352  C1354   1.408   .     A
C1352  C1363   1.525   .     S
C1353  C1371   1.410   .     A
C1353  C1362   1.409   .     S
C1353  C1372   1.408   .     A
C1354  C1370   1.410   .     A
C1355  N1392   1.387   .     A
C1355  C1364   1.473   .     S
C1356  C1365   1.473   .     S
C1356  N1391   1.387   .     A
C1356  C386    1.418   1_556 S
C1357  N1391   1.356   .     A
C1357  H1384   1.083   .     S
C1357  C383    1.418   1_556 S
C1358  H1385   1.083   .     S
C1358  N1392   1.356   .     A
C1359  H1386   1.105   .     S
C1359  C1370   1.522   .     S
C1359  H1387   1.110   .     S
C1359  H1388   1.109   .     S
C1360  C1371   1.522   .     S
C1360  H1389   1.105   .     S
C1360  H1390   1.109   .     S
C1360  H1374   1.110   .     S
C1361  H1377   1.110   .     S
C1361  H1375   1.111   .     S
C1361  C1372   1.525   .     S
C1361  H1376   1.105   .     S
C1362  O1397   1.285   .     A
C1362  O1395   1.284   .     A
C1363  H1378   1.111   .     S
C1363  H1379   1.110   .     S
C1363  H1380   1.105   .     S
C1364  H1381   1.086   .     S
C1364  O1402   1.217   .     D
C1365  O1394   1.217   .     D
C1365  H1382   1.086   .     S
C1366  O1400   1.284   .     A
C1366  O1398   1.286   .     A
C1366  C1368   1.400   .     S
C1367  O1401   1.284   .     A
C1367  C1369   1.400   .     S
C1367  O1399   1.286   .     A
C1369  C1422   1.326   .     S
C1369  H1437   1.087   .     S
C1371  C1028   1.394   1_565 S
C1372  C1046   1.394   1_565 S
H1373  C1422   1.087   .     S
N1391  Zn1403  2.027   .     S
N1392  Zn1404  2.027   .     S
O1393  Zn1403  1.990   .     S
O1395  Zn1404  1.990   .     S
O1396  Zn1404  1.975   .     S
O1397  Zn1403  1.975   .     S
O1398  Zn1403  1.973   .     S
O1399  Zn1404  1.973   .     S
O1400  Zn1404  1.976   .     S
O1401  Zn1403  1.976   .     S
C1405  C1408   1.409   .     S
C1405  O1450   1.285   .     A
C1405  O1447   1.284   .     A
C1406  C1408   1.408   .     A
C1406  C1417   1.525   .     S
C1407  C1425   1.410   .     A
C1407  C1416   1.409   .     S
C1407  C1426   1.408   .     A
C1408  C1424   1.410   .     A
C1409  N1446   1.387   .     A
C1409  C1418   1.473   .     S
C1410  C1419   1.473   .     S
C1410  N1445   1.387   .     A
C1410  C440    1.418   1_556 S
C1411  N1445   1.356   .     A
C1411  H1438   1.083   .     S
C1411  C437    1.418   1_556 S
C1412  H1439   1.083   .     S
C1412  N1446   1.356   .     A
C1413  H1440   1.105   .     S
C1413  C1424   1.522   .     S
C1413  H1441   1.110   .     S
C1413  H1442   1.109   .     S
C1414  C1425   1.522   .     S
C1414  H1443   1.105   .     S
C1414  H1444   1.109   .     S
C1414  H1428   1.110   .     S
C1415  H1431   1.110   .     S
C1415  H1429   1.111   .     S
C1415  C1426   1.525   .     S
C1415  H1430   1.105   .     S
C1416  O1451   1.285   .     A
C1416  O1449   1.284   .     A
C1417  H1432   1.111   .     S
C1417  H1433   1.110   .     S
C1417  H1434   1.105   .     S
C1418  H1435   1.086   .     S
C1418  O1456   1.217   .     D
C1419  O1448   1.217   .     D
C1419  H1436   1.086   .     S
C1420  O1454   1.284   .     A
C1420  O1452   1.286   .     A
C1420  C1422   1.400   .     S
C1421  O1455   1.284   .     A
C1421  C1423   1.400   .     S
C1421  O1453   1.286   .     A
C1423  C1314   1.326   1_655 S
C1423  H1329   1.087   1_655 S
C1425  C1082   1.394   1_565 S
C1426  C1100   1.394   1_565 S
H1427  C1314   1.087   1_655 S
N1445  Zn1457  2.027   .     S
N1446  Zn1458  2.027   .     S
O1447  Zn1457  1.990   .     S
O1449  Zn1458  1.990   .     S
O1450  Zn1458  1.975   .     S
O1451  Zn1457  1.975   .     S
O1452  Zn1457  1.973   .     S
O1453  Zn1458  1.973   .     S
O1454  Zn1458  1.976   .     S
O1455  Zn1457  1.976   .     S
