data_str_m1_o1_o17_pcu_sym.119
_audit_creation_date              2020-01-03
_audit_creation_method            'Materials Studio'
_symmetry_space_group_name_H-M    'P1'
_symmetry_Int_Tables_number       1
_symmetry_cell_setting            triclinic
loop_
_symmetry_equiv_pos_as_xyz
  x,y,z
_cell_length_a                    36.7503
_cell_length_b                    36.6145
_cell_length_c                    34.3749
_cell_angle_alpha                 89.9833
_cell_angle_beta                  90.0374
_cell_angle_gamma                 89.6693
loop_
_atom_site_label
_atom_site_type_symbol
_atom_site_fract_x
_atom_site_fract_y
_atom_site_fract_z
_atom_site_U_iso_or_equiv
_atom_site_adp_type
_atom_site_occupancy
C1     C     0.02519   0.27244   0.41884   0.00000  Uiso   1.00
C2     C     0.26763   0.47246   0.08034   0.00000  Uiso   1.00
C3     C     0.23809   0.47278   0.54027   0.00000  Uiso   1.00
C4     C     0.02960   0.26639   0.45911   0.00000  Uiso   1.00
C5     C     0.47287   0.23258   0.54082   0.00000  Uiso   1.00
C6     C     0.24111   0.47081   0.45967   0.00000  Uiso   1.00
C7     C     0.27969   0.02438   0.54162   0.00000  Uiso   1.00
C8     C     0.27351   0.47848   0.95888   0.00000  Uiso   1.00
C9     C     0.22867   0.02695   0.04078   0.00000  Uiso   1.00
C10    C     0.01623   0.27880   0.95925   0.00000  Uiso   1.00
C11    C     0.48539   0.21992   0.04081   0.00000  Uiso   1.00
C12    C     0.22779   0.02752   0.95885   0.00000  Uiso   1.00
C13    C     0.47774   0.22504   0.91933   0.00000  Uiso   1.00
C14    C     0.27449   0.47809   0.04022   0.00000  Uiso   1.00
C15    C     0.48460   0.22024   0.95939   0.00000  Uiso   1.00
C16    C     0.01501   0.27977   0.04068   0.00000  Uiso   1.00
C17    C     0.09804   0.34816   0.24998   0.00000  Uiso   1.00
C18    C     0.40232   0.15093   0.74977   0.00000  Uiso   1.00
C19    C     0.15202   0.09843   0.25033   0.00000  Uiso   1.00
C20    C     0.34796   0.40161   0.74969   0.00000  Uiso   1.00
C21    C     0.40201   0.15181   0.25001   0.00000  Uiso   1.00
C22    C     0.09913   0.34750   0.75081   0.00000  Uiso   1.00
C23    C     0.34796   0.40178   0.25049   0.00000  Uiso   1.00
C24    C     0.02127   0.27582   0.08096   0.00000  Uiso   1.00
C25    C     0.15197   0.09813   0.74992   0.00000  Uiso   1.00
C26    C     0.09806   0.15188   0.75012   0.00000  Uiso   1.00
C27    C     0.40224   0.34838   0.25041   0.00000  Uiso   1.00
C28    C     0.15274   0.40136   0.75046   0.00000  Uiso   1.00
C29    C     0.34813   0.09816   0.25025   0.00000  Uiso   1.00
C30    C     0.40208   0.34807   0.74988   0.00000  Uiso   1.00
C31    C     0.09772   0.15181   0.25027   0.00000  Uiso   1.00
C32    C     0.34514   0.10084   0.75146   0.00000  Uiso   1.00
C33    C     0.15187   0.40185   0.25018   0.00000  Uiso   1.00
C34    C     0.00053   0.25033   0.47960   0.00000  Uiso   1.00
C35    C     0.26630   0.47286   0.91927   0.00000  Uiso   1.00
C36    C     0.00078   0.25037   0.52029   0.00000  Uiso   1.00
C37    C     0.26190   0.49732   0.47946   0.00000  Uiso   1.00
C38    C     0.26049   0.49784   0.52043   0.00000  Uiso   1.00
C39    C     0.25107   0.00318   0.97930   0.00000  Uiso   1.00
C40    C     0.25152   0.00289   0.02006   0.00000  Uiso   1.00
C41    C     0.00032   0.24963   0.97974   0.00000  Uiso   1.00
C42    C     0.00024   0.24978   0.02041   0.00000  Uiso   1.00
C43    C     0.04326   0.30524   0.39938   0.00000  Uiso   1.00
C44    C     0.01565   0.33211   0.38217   0.00000  Uiso   1.00
C45    C     0.47017   0.18883   0.59777   0.00000  Uiso   1.00
C46    C     0.23469   0.03053   0.08110   0.00000  Uiso   1.00
C47    C     0.00487   0.16600   0.60225   0.00000  Uiso   1.00
C48    C     0.19710   0.46181   0.40353   0.00000  Uiso   1.00
C49    C     0.17141   0.49235   0.39044   0.00000  Uiso   1.00
C50    C     0.31332   0.03653   0.60561   0.00000  Uiso   1.00
C51    C     0.33572   0.00684   0.62574   0.00000  Uiso   1.00
C52    C     0.45706   0.19514   0.39988   0.00000  Uiso   1.00
C53    C     0.48455   0.16828   0.38246   0.00000  Uiso   1.00
C54    C     0.03987   0.30816   0.59992   0.00000  Uiso   1.00
C55    C     0.01035   0.33372   0.61562   0.00000  Uiso   1.00
C56    C     0.30969   0.04177   0.39128   0.00000  Uiso   1.00
C57    C     0.02291   0.27380   0.91927   0.00000  Uiso   1.00
C58    C     0.29911   0.08209   0.38603   0.00000  Uiso   1.00
C59    C     0.19078   0.47410   0.59394   0.00000  Uiso   1.00
C60    C     0.17002   0.01026   0.59727   0.00000  Uiso   1.00
C61    C     0.22756   0.06735   0.89647   0.00000  Uiso   1.00
C62    C     0.24363   0.09991   0.91828   0.00000  Uiso   1.00
C63    C     0.27214   0.43504   0.09920   0.00000  Uiso   1.00
C64    C     0.25502   0.40453   0.07503   0.00000  Uiso   1.00
C65    C     0.44410   0.20839   0.90072   0.00000  Uiso   1.00
C66    C     0.41742   0.23739   0.88589   0.00000  Uiso   1.00
C67    C     0.05351   0.29499   0.10014   0.00000  Uiso   1.00
C68    C     0.47886   0.22416   0.08098   0.00000  Uiso   1.00
C69    C     0.08120   0.26811   0.11725   0.00000  Uiso   1.00
C70    C     0.26344   0.43401   0.90390   0.00000  Uiso   1.00
C71    C     0.22896   0.41600   0.91930   0.00000  Uiso   1.00
C72    C     0.23028   0.06719   0.10104   0.00000  Uiso   1.00
C73    C     0.26695   0.08305   0.11350   0.00000  Uiso   1.00
C74    C     0.05769   0.28818   0.90096   0.00000  Uiso   1.00
C75    C     0.08348   0.25722   0.88902   0.00000  Uiso   1.00
C76    C     0.44643   0.20521   0.10000   0.00000  Uiso   1.00
C77    C     0.41871   0.23231   0.11661   0.00000  Uiso   1.00
C78    C     0.00010   0.25022   0.39843   0.00000  Uiso   1.00
C79    C     0.00057   0.25062   0.60142   0.00000  Uiso   1.00
C80    C     0.25541   0.49972   0.39847   0.00000  Uiso   1.00
C81    C     0.47842   0.22611   0.58067   0.00000  Uiso   1.00
C82    C     0.25378   0.00060   0.60152   0.00000  Uiso   1.00
C83    C     0.24997   0.00157   0.89828   0.00000  Uiso   1.00
C84    C     0.25034   0.00081   0.10129   0.00000  Uiso   1.00
C85    C     0.00004   0.24972   0.89861   0.00000  Uiso   1.00
C86    C     0.00003   0.25002   0.10154   0.00000  Uiso   1.00
C87    C     0.43927   0.22502   0.48028   0.00000  Uiso   1.00
C88    C     0.06179   0.27594   0.52052   0.00000  Uiso   1.00
C89    C     0.30464   0.04839   0.48126   0.00000  Uiso   1.00
C90    C     0.22653   0.44099   0.52087   0.00000  Uiso   1.00
C91    C     0.06213   0.27466   0.47947   0.00000  Uiso   1.00
C92    C     0.23283   0.47643   0.42034   0.00000  Uiso   1.00
C93    C     0.44046   0.22307   0.52123   0.00000  Uiso   1.00
C94    C     0.22917   0.43956   0.48018   0.00000  Uiso   1.00
C95    C     0.29727   0.05235   0.52111   0.00000  Uiso   1.00
C96    C     0.30226   0.46053   0.97848   0.00000  Uiso   1.00
C97    C     0.20003   0.04510   0.02094   0.00000  Uiso   1.00
C98    C     0.02348   0.31184   0.97905   0.00000  Uiso   1.00
C99    C     0.47865   0.18695   0.02050   0.00000  Uiso   1.00
C100   C     0.19966   0.04566   0.97978   0.00000  Uiso   1.00
C101   C     0.30289   0.46035   0.01948   0.00000  Uiso   1.00
C102   C     0.47776   0.18722   0.97946   0.00000  Uiso   1.00
C103   C     0.28118   0.02124   0.58274   0.00000  Uiso   1.00
C104   C     0.02213   0.31252   0.02006   0.00000  Uiso   1.00
C105   C     0.25115   0.49999   0.35593   0.00000  Uiso   1.00
C106   C     0.25052   0.00016   0.64405   0.00000  Uiso   1.00
C107   C     0.00002   0.25008   0.35588   0.00000  Uiso   1.00
C108   C     0.00011   0.25017   0.64408   0.00000  Uiso   1.00
C109   C    -0.00000   0.24995   0.85596   0.00000  Uiso   1.00
C110   C    -0.00000   0.25001   0.14408   0.00000  Uiso   1.00
C111   C     0.24998   0.00015   0.85581   0.00000  Uiso   1.00
C112   C     0.25003   0.00025   0.14406   0.00000  Uiso   1.00
C113   C     0.18004   0.07014   0.25000   0.00000  Uiso   1.00
C114   C     0.47525   0.22801   0.41912   0.00000  Uiso   1.00
C115   C     0.32006   0.42997   0.74983   0.00000  Uiso   1.00
C116   C     0.43004   0.17990   0.25004   0.00000  Uiso   1.00
C117   C     0.07035   0.31993   0.75031   0.00000  Uiso   1.00
C118   C     0.31998   0.42996   0.25011   0.00000  Uiso   1.00
C119   C     0.18002   0.07002   0.74997   0.00000  Uiso   1.00
C120   C     0.07000   0.32008   0.25001   0.00000  Uiso   1.00
C121   C     0.43029   0.17941   0.74963   0.00000  Uiso   1.00
C122   C     0.18011   0.42989   0.75003   0.00000  Uiso   1.00
C123   C     0.32004   0.07006   0.25007   0.00000  Uiso   1.00
C124   C     0.43008   0.32004   0.74994   0.00000  Uiso   1.00
C125   C     0.02417   0.27419   0.58083   0.00000  Uiso   1.00
C126   C     0.06977   0.17985   0.25024   0.00000  Uiso   1.00
C127   C     0.31916   0.07087   0.75068   0.00000  Uiso   1.00
C128   C     0.17995   0.42994   0.25006   0.00000  Uiso   1.00
C129   C     0.07000   0.17999   0.75005   0.00000  Uiso   1.00
C130   C     0.43024   0.32024   0.25031   0.00000  Uiso   1.00
C131   C     0.16070   0.36604   0.23837   0.00000  Uiso   1.00
C132   C     0.36632   0.10617   0.78505   0.00000  Uiso   1.00
C133   C     0.12083   0.14856   0.21798   0.00000  Uiso   1.00
C134   C     0.38534   0.35802   0.78516   0.00000  Uiso   1.00
C135   C     0.38371   0.08913   0.26230   0.00000  Uiso   1.00
C136   C     0.28287   0.02120   0.41689   0.00000  Uiso   1.00
C137   C     0.13432   0.39331   0.78526   0.00000  Uiso   1.00
C138   C     0.37951   0.35219   0.21777   0.00000  Uiso   1.00
C139   C     0.13191   0.15915   0.76756   0.00000  Uiso   1.00
C140   C     0.15904   0.13203   0.76754   0.00000  Uiso   1.00
C141   C     0.35163   0.37837   0.21832   0.00000  Uiso   1.00
C142   C     0.10451   0.36984   0.78416   0.00000  Uiso   1.00
C143   C     0.41079   0.11608   0.26216   0.00000  Uiso   1.00
C144   C     0.35818   0.38493   0.78501   0.00000  Uiso   1.00
C145   C     0.14885   0.12255   0.21865   0.00000  Uiso   1.00
C146   C     0.39657   0.12903   0.78339   0.00000  Uiso   1.00
C147   C     0.22926   0.48005   0.57923   0.00000  Uiso   1.00
C148   C     0.13365   0.33908   0.23822   0.00000  Uiso   1.00
C149   C     0.37936   0.14716   0.71694   0.00000  Uiso   1.00
C150   C     0.08920   0.38392   0.26195   0.00000  Uiso   1.00
C151   C     0.36410   0.39089   0.71425   0.00000  Uiso   1.00
C152   C     0.12881   0.10179   0.28268   0.00000  Uiso   1.00
C153   C     0.12200   0.35174   0.71781   0.00000  Uiso   1.00
C154   C     0.36642   0.16088   0.23812   0.00000  Uiso   1.00
C155   C     0.11814   0.09087   0.73243   0.00000  Uiso   1.00
C156   C     0.37058   0.39795   0.28326   0.00000  Uiso   1.00
C157   C     0.39762   0.37075   0.28340   0.00000  Uiso   1.00
C158   C     0.23339   0.03120   0.91806   0.00000  Uiso   1.00
C159   C     0.09096   0.11794   0.73259   0.00000  Uiso   1.00
C160   C     0.33936   0.13396   0.23833   0.00000  Uiso   1.00
C161   C     0.14523   0.38164   0.71623   0.00000  Uiso   1.00
C162   C     0.10185   0.12901   0.28290   0.00000  Uiso   1.00
C163   C     0.39162   0.36432   0.71442   0.00000  Uiso   1.00
C164   C     0.11625   0.41089   0.26205   0.00000  Uiso   1.00
C165   C     0.34970   0.12358   0.71839   0.00000  Uiso   1.00
C166   C     0.47128   0.23408   0.45944   0.00000  Uiso   1.00
C167   C     0.02923   0.26768   0.54065   0.00000  Uiso   1.00
C168   C     0.28406   0.02259   0.45866   0.00000  Uiso   1.00
H169   H     0.00354   0.32127   0.35506   0.00000  Uiso   1.00
H170   H     0.45163   0.17290   0.57896   0.00000  Uiso   1.00
H171   H     0.16856   0.01332   0.41366   0.00000  Uiso   1.00
H172   H     0.18137   0.00533   0.36340   0.00000  Uiso   1.00
H173   H     0.14412   0.48081   0.38413   0.00000  Uiso   1.00
H174   H     0.20234   0.44262   0.37916   0.00000  Uiso   1.00
H175   H     0.18141   0.44668   0.42575   0.00000  Uiso   1.00
H176   H     0.32103   0.49540   0.65101   0.00000  Uiso   1.00
H177   H     0.34252   0.48474   0.60479   0.00000  Uiso   1.00
H178   H     0.36148   0.01868   0.63681   0.00000  Uiso   1.00
H179   H     0.33295   0.05039   0.58629   0.00000  Uiso   1.00
H180   H     0.49378   0.33817   0.40356   0.00000  Uiso   1.00
H181   H     0.30368   0.05675   0.62721   0.00000  Uiso   1.00
H182   H     0.49628   0.17903   0.35513   0.00000  Uiso   1.00
H183   H     0.00670   0.16240   0.40359   0.00000  Uiso   1.00
H184   H     0.47069   0.14225   0.37530   0.00000  Uiso   1.00
H185   H     0.44194   0.17885   0.42163   0.00000  Uiso   1.00
H186   H     0.43729   0.20406   0.37734   0.00000  Uiso   1.00
H187   H     0.48936   0.33900   0.59300   0.00000  Uiso   1.00
H188   H     0.49735   0.32206   0.64185   0.00000  Uiso   1.00
H189   H     0.02272   0.36015   0.62411   0.00000  Uiso   1.00
H190   H     0.05867   0.30030   0.62362   0.00000  Uiso   1.00
H191   H     0.02951   0.35806   0.37468   0.00000  Uiso   1.00
H192   H     0.05525   0.32468   0.57856   0.00000  Uiso   1.00
H193   H     0.32260   0.09732   0.37401   0.00000  Uiso   1.00
H194   H     0.27605   0.08521   0.36554   0.00000  Uiso   1.00
H195   H     0.29073   0.09475   0.41395   0.00000  Uiso   1.00
H196   H     0.33763   0.03792   0.40219   0.00000  Uiso   1.00
H197   H     0.31246   0.02933   0.36203   0.00000  Uiso   1.00
H198   H     0.18289   0.02849   0.61902   0.00000  Uiso   1.00
H199   H     0.16926   0.02429   0.56862   0.00000  Uiso   1.00
H200   H     0.14165   0.00492   0.60673   0.00000  Uiso   1.00
H201   H     0.17476   0.45664   0.57405   0.00000  Uiso   1.00
H202   H     0.05864   0.32146   0.42099   0.00000  Uiso   1.00
H203   H     0.19166   0.46095   0.62272   0.00000  Uiso   1.00
H204   H     0.22858   0.10548   0.94559   0.00000  Uiso   1.00
H205   H     0.27273   0.09464   0.92519   0.00000  Uiso   1.00
H206   H     0.24180   0.12470   0.89972   0.00000  Uiso   1.00
H207   H     0.24151   0.06703   0.86785   0.00000  Uiso   1.00
H208   H     0.19866   0.07213   0.88926   0.00000  Uiso   1.00
H209   H     0.22624   0.41137   0.06813   0.00000  Uiso   1.00
H210   H     0.27023   0.40001   0.04759   0.00000  Uiso   1.00
H211   H     0.25565   0.37863   0.09185   0.00000  Uiso   1.00
H212   H     0.30093   0.42901   0.10523   0.00000  Uiso   1.00
H213   H     0.06278   0.29627   0.37666   0.00000  Uiso   1.00
H214   H     0.25841   0.43405   0.12790   0.00000  Uiso   1.00
H215   H     0.41154   0.25773   0.90906   0.00000  Uiso   1.00
H216   H     0.42831   0.25151   0.85994   0.00000  Uiso   1.00
H217   H     0.39151   0.22416   0.87730   0.00000  Uiso   1.00
H218   H     0.45213   0.19007   0.87670   0.00000  Uiso   1.00
H219   H     0.42855   0.19209   0.92215   0.00000  Uiso   1.00
H220   H     0.07086   0.25549   0.14432   0.00000  Uiso   1.00
H221   H     0.08793   0.24642   0.09579   0.00000  Uiso   1.00
H222   H     0.10659   0.28285   0.12476   0.00000  Uiso   1.00
H223   H     0.06906   0.31087   0.07836   0.00000  Uiso   1.00
H224   H     0.01860   0.16285   0.57365   0.00000  Uiso   1.00
H225   H     0.04416   0.31442   0.12283   0.00000  Uiso   1.00
H226   H     0.23056   0.41277   0.95140   0.00000  Uiso   1.00
H227   H     0.20470   0.43287   0.91200   0.00000  Uiso   1.00
H228   H     0.22585   0.38857   0.90598   0.00000  Uiso   1.00
H229   H     0.26245   0.43339   0.87168   0.00000  Uiso   1.00
H230   H     0.28669   0.41677   0.91275   0.00000  Uiso   1.00
H231   H     0.27904   0.06746   0.13795   0.00000  Uiso   1.00
H232   H     0.28621   0.08302   0.08860   0.00000  Uiso   1.00
H233   H     0.26310   0.11169   0.12335   0.00000  Uiso   1.00
H234   H     0.21818   0.08786   0.08131   0.00000  Uiso   1.00
H235   H     0.02393   0.17891   0.62312   0.00000  Uiso   1.00
H236   H     0.21214   0.06379   0.12638   0.00000  Uiso   1.00
H237   H     0.08930   0.23923   0.91433   0.00000  Uiso   1.00
H238   H     0.07185   0.24064   0.86512   0.00000  Uiso   1.00
H239   H     0.10952   0.26893   0.87857   0.00000  Uiso   1.00
H240   H     0.05113   0.30526   0.87546   0.00000  Uiso   1.00
H241   H     0.07323   0.30514   0.92180   0.00000  Uiso   1.00
H242   H     0.42899   0.24524   0.14354   0.00000  Uiso   1.00
H243   H     0.41207   0.25375   0.09482   0.00000  Uiso   1.00
H244   H     0.39329   0.21768   0.12420   0.00000  Uiso   1.00
H245   H     0.43101   0.18920   0.07821   0.00000  Uiso   1.00
H246   H     0.49787   0.13847   0.61345   0.00000  Uiso   1.00
H247   H     0.45555   0.18592   0.12297   0.00000  Uiso   1.00
H248   H     0.45737   0.19195   0.62652   0.00000  Uiso   1.00
I249   I     0.38733   0.22521   0.45123   0.00000  Uiso   1.00
I250   I     0.15210   0.06144   0.05284   0.00000  Uiso   1.00
I251   I     0.02616   0.36223   0.94707   0.00000  Uiso   1.00
I252   I     0.48069   0.13561   0.05098   0.00000  Uiso   1.00
I253   I     0.15159   0.06526   0.95077   0.00000  Uiso   1.00
I254   I     0.35128   0.44192   0.04866   0.00000  Uiso   1.00
I255   I     0.47673   0.13638   0.94812   0.00000  Uiso   1.00
I256   I     0.01989   0.36419   0.04985   0.00000  Uiso   1.00
I257   I     0.21474   0.35340   0.21916   0.00000  Uiso   1.00
I258   I     0.34843   0.08556   0.84081   0.00000  Uiso   1.00
I259   I     0.11375   0.18396   0.16884   0.00000  Uiso   1.00
I260   I     0.11244   0.27935   0.55175   0.00000  Uiso   1.00
I261   I     0.39953   0.33067   0.83845   0.00000  Uiso   1.00
I262   I     0.39564   0.03502   0.28261   0.00000  Uiso   1.00
I263   I     0.15376   0.41285   0.84070   0.00000  Uiso   1.00
I264   I     0.38677   0.31730   0.16831   0.00000  Uiso   1.00
I265   I     0.14105   0.21095   0.79477   0.00000  Uiso   1.00
I266   I     0.21049   0.14116   0.79518   0.00000  Uiso   1.00
I267   I     0.31264   0.38028   0.17255   0.00000  Uiso   1.00
I268   I     0.06867   0.37140   0.83359   0.00000  Uiso   1.00
I269   I     0.46477   0.10371   0.28200   0.00000  Uiso   1.00
I270   I     0.33033   0.39801   0.83775   0.00000  Uiso   1.00
I271   I     0.35257   0.07848   0.46502   0.00000  Uiso   1.00
I272   I     0.18879   0.12260   0.17411   0.00000  Uiso   1.00
I273   I     0.43400   0.12543   0.83148   0.00000  Uiso   1.00
I274   I     0.14576   0.28480   0.21850   0.00000  Uiso   1.00
I275   I     0.39123   0.17244   0.66188   0.00000  Uiso   1.00
I276   I     0.03517   0.39630   0.28163   0.00000  Uiso   1.00
I277   I     0.34766   0.41519   0.66025   0.00000  Uiso   1.00
I278   I     0.13453   0.06556   0.33095   0.00000  Uiso   1.00
I279   I     0.12516   0.31376   0.66967   0.00000  Uiso   1.00
I280   I     0.35443   0.21512   0.21809   0.00000  Uiso   1.00
I281   I     0.10916   0.03920   0.70486   0.00000  Uiso   1.00
I282   I     0.21421   0.39256   0.55343   0.00000  Uiso   1.00
I283   I     0.36372   0.43384   0.33206   0.00000  Uiso   1.00
I284   I     0.43229   0.36388   0.33283   0.00000  Uiso   1.00
I285   I     0.03934   0.10860   0.70540   0.00000  Uiso   1.00
I286   I     0.28536   0.14669   0.21916   0.00000  Uiso   1.00
I287   I     0.16524   0.39836   0.66046   0.00000  Uiso   1.00
I288   I     0.06654   0.13540   0.33190   0.00000  Uiso   1.00
I289   I     0.41896   0.35023   0.66122   0.00000  Uiso   1.00
I290   I     0.10419   0.46507   0.28201   0.00000  Uiso   1.00
I291   I     0.31070   0.12700   0.67092   0.00000  Uiso   1.00
I292   I     0.11343   0.27409   0.44918   0.00000  Uiso   1.00
I293   I     0.39119   0.21534   0.55367   0.00000  Uiso   1.00
I294   I     0.22535   0.38788   0.45068   0.00000  Uiso   1.00
I295   I     0.29863   0.10657   0.54541   0.00000  Uiso   1.00
I296   I     0.34951   0.44371   0.94613   0.00000  Uiso   1.00
O297   O     0.25000   0.00000   0.25000   0.00000  Uiso   1.00
O298   O     0.25000   0.46964   0.66245   0.00000  Uiso   1.00
O299   O     0.46964   0.25000   0.33755   0.00000  Uiso   1.00
O300   O     0.03037   0.25000   0.66245   0.00000  Uiso   1.00
O301   O     0.00000   0.21964   0.83755   0.00000  Uiso   1.00
O302   O     0.00000   0.28037   0.16245   0.00000  Uiso   1.00
O303   O     0.28037   0.00000   0.83755   0.00000  Uiso   1.00
O304   O     0.21964   0.00000   0.16245   0.00000  Uiso   1.00
O305   O     0.00000   0.28037   0.83755   0.00000  Uiso   1.00
O306   O     0.00000   0.21964   0.16245   0.00000  Uiso   1.00
O307   O     0.21964   0.00000   0.83755   0.00000  Uiso   1.00
O308   O     0.25000   0.00000   0.75000   0.00000  Uiso   1.00
O309   O     0.28037   0.00000   0.16245   0.00000  Uiso   1.00
O310   O     0.20725   0.07308   0.27302   0.00000  Uiso   1.00
O311   O     0.29276   0.42693   0.72698   0.00000  Uiso   1.00
O312   O     0.42693   0.20725   0.27302   0.00000  Uiso   1.00
O313   O     0.07308   0.29276   0.72698   0.00000  Uiso   1.00
O314   O     0.29276   0.42693   0.27302   0.00000  Uiso   1.00
O315   O     0.20725   0.07308   0.72698   0.00000  Uiso   1.00
O316   O     0.07308   0.29276   0.27302   0.00000  Uiso   1.00
O317   O     0.42693   0.20725   0.72698   0.00000  Uiso   1.00
O318   O     0.20725   0.42693   0.72698   0.00000  Uiso   1.00
O319   O     0.00000   0.25000   0.25000   0.00000  Uiso   1.00
O320   O     0.29276   0.07308   0.27302   0.00000  Uiso   1.00
O321   O     0.42693   0.29276   0.72698   0.00000  Uiso   1.00
O322   O     0.07308   0.20725   0.27302   0.00000  Uiso   1.00
O323   O     0.29276   0.07308   0.72698   0.00000  Uiso   1.00
O324   O     0.20725   0.42693   0.27302   0.00000  Uiso   1.00
O325   O     0.07308   0.20725   0.72698   0.00000  Uiso   1.00
O326   O     0.42693   0.29276   0.27302   0.00000  Uiso   1.00
O327   O     0.45725   0.32308   0.77302   0.00000  Uiso   1.00
O328   O     0.04276   0.17693   0.22698   0.00000  Uiso   1.00
O329   O     0.17693   0.45725   0.77302   0.00000  Uiso   1.00
O330   O     0.00000   0.25000   0.75000   0.00000  Uiso   1.00
O331   O     0.32308   0.04276   0.22698   0.00000  Uiso   1.00
O332   O     0.04276   0.17693   0.77302   0.00000  Uiso   1.00
O333   O     0.45725   0.32308   0.22698   0.00000  Uiso   1.00
O334   O     0.32308   0.04276   0.77302   0.00000  Uiso   1.00
O335   O     0.17693   0.45725   0.22698   0.00000  Uiso   1.00
O336   O     0.45725   0.17693   0.22698   0.00000  Uiso   1.00
O337   O     0.04276   0.32308   0.77302   0.00000  Uiso   1.00
O338   O     0.17693   0.04276   0.22698   0.00000  Uiso   1.00
O339   O     0.32308   0.45725   0.77302   0.00000  Uiso   1.00
O340   O     0.04276   0.32308   0.22698   0.00000  Uiso   1.00
O341   O     0.25000   0.46964   0.33755   0.00000  Uiso   1.00
O342   O     0.45725   0.17693   0.77302   0.00000  Uiso   1.00
O343   O     0.32308   0.45725   0.22698   0.00000  Uiso   1.00
O344   O     0.17693   0.04276   0.77302   0.00000  Uiso   1.00
O345   O     0.25000   0.03037   0.66245   0.00000  Uiso   1.00
O346   O     0.03037   0.25000   0.33755   0.00000  Uiso   1.00
O347   O     0.46964   0.25000   0.66245   0.00000  Uiso   1.00
O348   O     0.25000   0.03037   0.33755   0.00000  Uiso   1.00
Zn349  Zn    0.20660   0.00000   0.21735   0.00000  Uiso   1.00
Zn350  Zn    0.04341   0.25000   0.28265   0.00000  Uiso   1.00
Zn351  Zn    0.25000   0.45660   0.71735   0.00000  Uiso   1.00
Zn352  Zn    0.25000   0.04341   0.28265   0.00000  Uiso   1.00
Zn353  Zn    0.04341   0.25000   0.71735   0.00000  Uiso   1.00
Zn354  Zn    0.45660   0.25000   0.28265   0.00000  Uiso   1.00
Zn355  Zn    0.25000   0.04341   0.71735   0.00000  Uiso   1.00
Zn356  Zn    0.25000   0.45660   0.28265   0.00000  Uiso   1.00
Zn357  Zn    0.29341   0.00000   0.78265   0.00000  Uiso   1.00
Zn358  Zn    0.00000   0.20660   0.21735   0.00000  Uiso   1.00
Zn359  Zn    0.00000   0.29341   0.78265   0.00000  Uiso   1.00
Zn360  Zn    0.29341   0.00000   0.21735   0.00000  Uiso   1.00
Zn361  Zn    0.20660   0.00000   0.78265   0.00000  Uiso   1.00
Zn362  Zn    0.00000   0.29341   0.21735   0.00000  Uiso   1.00
Zn363  Zn    0.00000   0.20660   0.78265   0.00000  Uiso   1.00
Zn364  Zn    0.45660   0.25000   0.71735   0.00000  Uiso   1.00
C365   C     0.52519   0.27244   0.41884   0.00000  Uiso   1.00
C366   C     0.76763   0.47246   0.08034   0.00000  Uiso   1.00
C367   C     0.73809   0.47278   0.54027   0.00000  Uiso   1.00
C368   C     0.52960   0.26639   0.45911   0.00000  Uiso   1.00
C369   C     0.97287   0.23258   0.54082   0.00000  Uiso   1.00
C370   C     0.74111   0.47081   0.45967   0.00000  Uiso   1.00
C371   C     0.77969   0.02438   0.54162   0.00000  Uiso   1.00
C372   C     0.77351   0.47848   0.95888   0.00000  Uiso   1.00
C373   C     0.72867   0.02695   0.04078   0.00000  Uiso   1.00
C374   C     0.51623   0.27880   0.95925   0.00000  Uiso   1.00
C375   C     0.98539   0.21992   0.04081   0.00000  Uiso   1.00
C376   C     0.72779   0.02752   0.95885   0.00000  Uiso   1.00
C377   C     0.97774   0.22504   0.91933   0.00000  Uiso   1.00
C378   C     0.77449   0.47809   0.04022   0.00000  Uiso   1.00
C379   C     0.98460   0.22024   0.95939   0.00000  Uiso   1.00
C380   C     0.51501   0.27977   0.04068   0.00000  Uiso   1.00
C381   C     0.59804   0.34816   0.24998   0.00000  Uiso   1.00
C382   C     0.90232   0.15093   0.74977   0.00000  Uiso   1.00
C383   C     0.65202   0.09843   0.25033   0.00000  Uiso   1.00
C384   C     0.84796   0.40161   0.74969   0.00000  Uiso   1.00
C385   C     0.90201   0.15181   0.25001   0.00000  Uiso   1.00
C386   C     0.59913   0.34750   0.75081   0.00000  Uiso   1.00
C387   C     0.84796   0.40178   0.25049   0.00000  Uiso   1.00
C388   C     0.52127   0.27582   0.08096   0.00000  Uiso   1.00
C389   C     0.65197   0.09813   0.74992   0.00000  Uiso   1.00
C390   C     0.59806   0.15188   0.75012   0.00000  Uiso   1.00
C391   C     0.90224   0.34838   0.25041   0.00000  Uiso   1.00
C392   C     0.65274   0.40136   0.75046   0.00000  Uiso   1.00
C393   C     0.84813   0.09816   0.25025   0.00000  Uiso   1.00
C394   C     0.90208   0.34807   0.74988   0.00000  Uiso   1.00
C395   C     0.59772   0.15181   0.25027   0.00000  Uiso   1.00
C396   C     0.84514   0.10084   0.75146   0.00000  Uiso   1.00
C397   C     0.65187   0.40185   0.25018   0.00000  Uiso   1.00
C398   C     0.50053   0.25033   0.47960   0.00000  Uiso   1.00
C399   C     0.76630   0.47286   0.91927   0.00000  Uiso   1.00
C400   C     0.50078   0.25037   0.52029   0.00000  Uiso   1.00
C401   C     0.76190   0.49732   0.47946   0.00000  Uiso   1.00
C402   C     0.76049   0.49784   0.52043   0.00000  Uiso   1.00
C403   C     0.75107   0.00318   0.97930   0.00000  Uiso   1.00
C404   C     0.75152   0.00289   0.02006   0.00000  Uiso   1.00
C405   C     0.50032   0.24963   0.97974   0.00000  Uiso   1.00
C406   C     0.50024   0.24978   0.02041   0.00000  Uiso   1.00
C407   C     0.54326   0.30524   0.39938   0.00000  Uiso   1.00
C408   C     0.51565   0.33211   0.38217   0.00000  Uiso   1.00
C409   C     0.97017   0.18883   0.59777   0.00000  Uiso   1.00
C410   C     0.73469   0.03053   0.08110   0.00000  Uiso   1.00
C411   C     0.50487   0.16600   0.60225   0.00000  Uiso   1.00
C412   C     0.69710   0.46181   0.40353   0.00000  Uiso   1.00
C413   C     0.67141   0.49235   0.39044   0.00000  Uiso   1.00
C414   C     0.81332   0.03653   0.60561   0.00000  Uiso   1.00
C415   C     0.83572   0.00684   0.62574   0.00000  Uiso   1.00
C416   C     0.95706   0.19514   0.39988   0.00000  Uiso   1.00
C417   C     0.98455   0.16828   0.38246   0.00000  Uiso   1.00
C418   C     0.53987   0.30816   0.59992   0.00000  Uiso   1.00
C419   C     0.51035   0.33372   0.61562   0.00000  Uiso   1.00
C420   C     0.80969   0.04177   0.39128   0.00000  Uiso   1.00
C421   C     0.52291   0.27380   0.91927   0.00000  Uiso   1.00
C422   C     0.79911   0.08209   0.38603   0.00000  Uiso   1.00
C423   C     0.69078   0.47410   0.59394   0.00000  Uiso   1.00
C424   C     0.67002   0.01026   0.59727   0.00000  Uiso   1.00
C425   C     0.72756   0.06735   0.89647   0.00000  Uiso   1.00
C426   C     0.74363   0.09991   0.91828   0.00000  Uiso   1.00
C427   C     0.77214   0.43504   0.09920   0.00000  Uiso   1.00
C428   C     0.75502   0.40453   0.07503   0.00000  Uiso   1.00
C429   C     0.94410   0.20839   0.90072   0.00000  Uiso   1.00
C430   C     0.91742   0.23739   0.88589   0.00000  Uiso   1.00
C431   C     0.55351   0.29499   0.10014   0.00000  Uiso   1.00
C432   C     0.97886   0.22416   0.08098   0.00000  Uiso   1.00
C433   C     0.58120   0.26811   0.11725   0.00000  Uiso   1.00
C434   C     0.76344   0.43401   0.90390   0.00000  Uiso   1.00
C435   C     0.72896   0.41600   0.91930   0.00000  Uiso   1.00
C436   C     0.73028   0.06719   0.10104   0.00000  Uiso   1.00
C437   C     0.76695   0.08305   0.11350   0.00000  Uiso   1.00
C438   C     0.55769   0.28818   0.90096   0.00000  Uiso   1.00
C439   C     0.58348   0.25722   0.88902   0.00000  Uiso   1.00
C440   C     0.94643   0.20521   0.10000   0.00000  Uiso   1.00
C441   C     0.91871   0.23231   0.11661   0.00000  Uiso   1.00
C442   C     0.50010   0.25022   0.39843   0.00000  Uiso   1.00
C443   C     0.50057   0.25062   0.60142   0.00000  Uiso   1.00
C444   C     0.75541   0.49972   0.39847   0.00000  Uiso   1.00
C445   C     0.97842   0.22611   0.58067   0.00000  Uiso   1.00
C446   C     0.75378   0.00060   0.60152   0.00000  Uiso   1.00
C447   C     0.74997   0.00157   0.89828   0.00000  Uiso   1.00
C448   C     0.75034   0.00081   0.10129   0.00000  Uiso   1.00
C449   C     0.50004   0.24972   0.89861   0.00000  Uiso   1.00
C450   C     0.50003   0.25002   0.10154   0.00000  Uiso   1.00
C451   C     0.93927   0.22502   0.48028   0.00000  Uiso   1.00
C452   C     0.56179   0.27594   0.52052   0.00000  Uiso   1.00
C453   C     0.80464   0.04839   0.48126   0.00000  Uiso   1.00
C454   C     0.72653   0.44099   0.52087   0.00000  Uiso   1.00
C455   C     0.56213   0.27466   0.47947   0.00000  Uiso   1.00
C456   C     0.73283   0.47643   0.42034   0.00000  Uiso   1.00
C457   C     0.94046   0.22307   0.52123   0.00000  Uiso   1.00
C458   C     0.72917   0.43956   0.48018   0.00000  Uiso   1.00
C459   C     0.79727   0.05235   0.52111   0.00000  Uiso   1.00
C460   C     0.80226   0.46053   0.97848   0.00000  Uiso   1.00
C461   C     0.70003   0.04510   0.02094   0.00000  Uiso   1.00
C462   C     0.52348   0.31184   0.97905   0.00000  Uiso   1.00
C463   C     0.97865   0.18695   0.02050   0.00000  Uiso   1.00
C464   C     0.69966   0.04566   0.97978   0.00000  Uiso   1.00
C465   C     0.80289   0.46035   0.01948   0.00000  Uiso   1.00
C466   C     0.97776   0.18722   0.97946   0.00000  Uiso   1.00
C467   C     0.78118   0.02124   0.58274   0.00000  Uiso   1.00
C468   C     0.52213   0.31252   0.02006   0.00000  Uiso   1.00
C469   C     0.75115   0.49999   0.35593   0.00000  Uiso   1.00
C470   C     0.75052   0.00016   0.64405   0.00000  Uiso   1.00
C471   C     0.50002   0.25008   0.35588   0.00000  Uiso   1.00
C472   C     0.50011   0.25017   0.64408   0.00000  Uiso   1.00
C473   C     0.50000   0.24995   0.85596   0.00000  Uiso   1.00
C474   C     0.50000   0.25001   0.14408   0.00000  Uiso   1.00
C475   C     0.74998   0.00015   0.85581   0.00000  Uiso   1.00
C476   C     0.75003   0.00025   0.14406   0.00000  Uiso   1.00
C477   C     0.68004   0.07014   0.25000   0.00000  Uiso   1.00
C478   C     0.97525   0.22801   0.41912   0.00000  Uiso   1.00
C479   C     0.82006   0.42997   0.74983   0.00000  Uiso   1.00
C480   C     0.93004   0.17990   0.25004   0.00000  Uiso   1.00
C481   C     0.57035   0.31993   0.75031   0.00000  Uiso   1.00
C482   C     0.81998   0.42996   0.25011   0.00000  Uiso   1.00
C483   C     0.68002   0.07002   0.74997   0.00000  Uiso   1.00
C484   C     0.57000   0.32008   0.25001   0.00000  Uiso   1.00
C485   C     0.93029   0.17941   0.74963   0.00000  Uiso   1.00
C486   C     0.68011   0.42989   0.75003   0.00000  Uiso   1.00
C487   C     0.82004   0.07006   0.25007   0.00000  Uiso   1.00
C488   C     0.93008   0.32004   0.74994   0.00000  Uiso   1.00
C489   C     0.52417   0.27419   0.58083   0.00000  Uiso   1.00
C490   C     0.56977   0.17985   0.25024   0.00000  Uiso   1.00
C491   C     0.81916   0.07087   0.75068   0.00000  Uiso   1.00
C492   C     0.67995   0.42994   0.25006   0.00000  Uiso   1.00
C493   C     0.57000   0.17999   0.75005   0.00000  Uiso   1.00
C494   C     0.93024   0.32024   0.25031   0.00000  Uiso   1.00
C495   C     0.66070   0.36604   0.23837   0.00000  Uiso   1.00
C496   C     0.86632   0.10617   0.78505   0.00000  Uiso   1.00
C497   C     0.62083   0.14856   0.21798   0.00000  Uiso   1.00
C498   C     0.88534   0.35802   0.78516   0.00000  Uiso   1.00
C499   C     0.88371   0.08913   0.26230   0.00000  Uiso   1.00
C500   C     0.78287   0.02120   0.41689   0.00000  Uiso   1.00
C501   C     0.63432   0.39331   0.78526   0.00000  Uiso   1.00
C502   C     0.87951   0.35219   0.21777   0.00000  Uiso   1.00
C503   C     0.63191   0.15915   0.76756   0.00000  Uiso   1.00
C504   C     0.65904   0.13203   0.76754   0.00000  Uiso   1.00
C505   C     0.85163   0.37837   0.21832   0.00000  Uiso   1.00
C506   C     0.60451   0.36984   0.78416   0.00000  Uiso   1.00
C507   C     0.91079   0.11608   0.26216   0.00000  Uiso   1.00
C508   C     0.85818   0.38493   0.78501   0.00000  Uiso   1.00
C509   C     0.64885   0.12255   0.21865   0.00000  Uiso   1.00
C510   C     0.89657   0.12903   0.78339   0.00000  Uiso   1.00
C511   C     0.72926   0.48005   0.57923   0.00000  Uiso   1.00
C512   C     0.63365   0.33908   0.23822   0.00000  Uiso   1.00
C513   C     0.87936   0.14716   0.71694   0.00000  Uiso   1.00
C514   C     0.58920   0.38392   0.26195   0.00000  Uiso   1.00
C515   C     0.86410   0.39089   0.71425   0.00000  Uiso   1.00
C516   C     0.62881   0.10179   0.28268   0.00000  Uiso   1.00
C517   C     0.62200   0.35174   0.71781   0.00000  Uiso   1.00
C518   C     0.86642   0.16088   0.23812   0.00000  Uiso   1.00
C519   C     0.61814   0.09087   0.73243   0.00000  Uiso   1.00
C520   C     0.87058   0.39795   0.28326   0.00000  Uiso   1.00
C521   C     0.89762   0.37075   0.28340   0.00000  Uiso   1.00
C522   C     0.73339   0.03120   0.91806   0.00000  Uiso   1.00
C523   C     0.59096   0.11794   0.73259   0.00000  Uiso   1.00
C524   C     0.83936   0.13396   0.23833   0.00000  Uiso   1.00
C525   C     0.64523   0.38164   0.71623   0.00000  Uiso   1.00
C526   C     0.60185   0.12901   0.28290   0.00000  Uiso   1.00
C527   C     0.89162   0.36432   0.71442   0.00000  Uiso   1.00
C528   C     0.61625   0.41089   0.26205   0.00000  Uiso   1.00
C529   C     0.84970   0.12358   0.71839   0.00000  Uiso   1.00
C530   C     0.97128   0.23408   0.45944   0.00000  Uiso   1.00
C531   C     0.52923   0.26768   0.54065   0.00000  Uiso   1.00
C532   C     0.78406   0.02259   0.45866   0.00000  Uiso   1.00
H533   H     0.50354   0.32127   0.35506   0.00000  Uiso   1.00
H534   H     0.95163   0.17290   0.57896   0.00000  Uiso   1.00
H535   H     0.66856   0.01332   0.41366   0.00000  Uiso   1.00
H536   H     0.68137   0.00533   0.36340   0.00000  Uiso   1.00
H537   H     0.64412   0.48081   0.38413   0.00000  Uiso   1.00
H538   H     0.70234   0.44262   0.37916   0.00000  Uiso   1.00
H539   H     0.68141   0.44668   0.42575   0.00000  Uiso   1.00
H540   H     0.82103   0.49540   0.65101   0.00000  Uiso   1.00
H541   H     0.84252   0.48474   0.60479   0.00000  Uiso   1.00
H542   H     0.86148   0.01868   0.63681   0.00000  Uiso   1.00
H543   H     0.83295   0.05039   0.58629   0.00000  Uiso   1.00
H544   H     0.99378   0.33817   0.40356   0.00000  Uiso   1.00
H545   H     0.80368   0.05675   0.62721   0.00000  Uiso   1.00
H546   H     0.99628   0.17903   0.35513   0.00000  Uiso   1.00
H547   H     0.50670   0.16240   0.40359   0.00000  Uiso   1.00
H548   H     0.97069   0.14225   0.37530   0.00000  Uiso   1.00
H549   H     0.94194   0.17885   0.42163   0.00000  Uiso   1.00
H550   H     0.93729   0.20406   0.37734   0.00000  Uiso   1.00
H551   H     0.98936   0.33900   0.59300   0.00000  Uiso   1.00
H552   H     0.99735   0.32206   0.64185   0.00000  Uiso   1.00
H553   H     0.52272   0.36015   0.62411   0.00000  Uiso   1.00
H554   H     0.55867   0.30030   0.62362   0.00000  Uiso   1.00
H555   H     0.52951   0.35806   0.37468   0.00000  Uiso   1.00
H556   H     0.55525   0.32468   0.57856   0.00000  Uiso   1.00
H557   H     0.82260   0.09732   0.37401   0.00000  Uiso   1.00
H558   H     0.77605   0.08521   0.36554   0.00000  Uiso   1.00
H559   H     0.79073   0.09475   0.41395   0.00000  Uiso   1.00
H560   H     0.83763   0.03792   0.40219   0.00000  Uiso   1.00
H561   H     0.81246   0.02933   0.36203   0.00000  Uiso   1.00
H562   H     0.68289   0.02849   0.61902   0.00000  Uiso   1.00
H563   H     0.66926   0.02429   0.56862   0.00000  Uiso   1.00
H564   H     0.64165   0.00492   0.60673   0.00000  Uiso   1.00
H565   H     0.67476   0.45664   0.57405   0.00000  Uiso   1.00
H566   H     0.55864   0.32146   0.42099   0.00000  Uiso   1.00
H567   H     0.69166   0.46095   0.62272   0.00000  Uiso   1.00
H568   H     0.72858   0.10548   0.94559   0.00000  Uiso   1.00
H569   H     0.77273   0.09464   0.92519   0.00000  Uiso   1.00
H570   H     0.74180   0.12470   0.89972   0.00000  Uiso   1.00
H571   H     0.74151   0.06703   0.86785   0.00000  Uiso   1.00
H572   H     0.69866   0.07213   0.88926   0.00000  Uiso   1.00
H573   H     0.72624   0.41137   0.06813   0.00000  Uiso   1.00
H574   H     0.77023   0.40001   0.04759   0.00000  Uiso   1.00
H575   H     0.75565   0.37863   0.09185   0.00000  Uiso   1.00
H576   H     0.80093   0.42901   0.10523   0.00000  Uiso   1.00
H577   H     0.56278   0.29627   0.37666   0.00000  Uiso   1.00
H578   H     0.75841   0.43405   0.12790   0.00000  Uiso   1.00
H579   H     0.91154   0.25773   0.90906   0.00000  Uiso   1.00
H580   H     0.92831   0.25151   0.85994   0.00000  Uiso   1.00
H581   H     0.89151   0.22416   0.87730   0.00000  Uiso   1.00
H582   H     0.95213   0.19007   0.87670   0.00000  Uiso   1.00
H583   H     0.92855   0.19209   0.92215   0.00000  Uiso   1.00
H584   H     0.57086   0.25549   0.14432   0.00000  Uiso   1.00
H585   H     0.58793   0.24642   0.09579   0.00000  Uiso   1.00
H586   H     0.60659   0.28285   0.12476   0.00000  Uiso   1.00
H587   H     0.56906   0.31087   0.07836   0.00000  Uiso   1.00
H588   H     0.51860   0.16285   0.57365   0.00000  Uiso   1.00
H589   H     0.54416   0.31442   0.12283   0.00000  Uiso   1.00
H590   H     0.73056   0.41277   0.95140   0.00000  Uiso   1.00
H591   H     0.70470   0.43287   0.91200   0.00000  Uiso   1.00
H592   H     0.72585   0.38857   0.90598   0.00000  Uiso   1.00
H593   H     0.76245   0.43339   0.87168   0.00000  Uiso   1.00
H594   H     0.78669   0.41677   0.91275   0.00000  Uiso   1.00
H595   H     0.77904   0.06746   0.13795   0.00000  Uiso   1.00
H596   H     0.78621   0.08302   0.08860   0.00000  Uiso   1.00
H597   H     0.76310   0.11169   0.12335   0.00000  Uiso   1.00
H598   H     0.71818   0.08786   0.08131   0.00000  Uiso   1.00
H599   H     0.52393   0.17891   0.62312   0.00000  Uiso   1.00
H600   H     0.71214   0.06379   0.12638   0.00000  Uiso   1.00
H601   H     0.58930   0.23923   0.91433   0.00000  Uiso   1.00
H602   H     0.57185   0.24064   0.86512   0.00000  Uiso   1.00
H603   H     0.60952   0.26893   0.87857   0.00000  Uiso   1.00
H604   H     0.55113   0.30526   0.87546   0.00000  Uiso   1.00
H605   H     0.57323   0.30514   0.92180   0.00000  Uiso   1.00
H606   H     0.92899   0.24524   0.14354   0.00000  Uiso   1.00
H607   H     0.91207   0.25375   0.09482   0.00000  Uiso   1.00
H608   H     0.89329   0.21768   0.12420   0.00000  Uiso   1.00
H609   H     0.93101   0.18920   0.07821   0.00000  Uiso   1.00
H610   H     0.99787   0.13847   0.61345   0.00000  Uiso   1.00
H611   H     0.95555   0.18592   0.12297   0.00000  Uiso   1.00
H612   H     0.95737   0.19195   0.62652   0.00000  Uiso   1.00
I613   I     0.88733   0.22521   0.45123   0.00000  Uiso   1.00
I614   I     0.65210   0.06144   0.05284   0.00000  Uiso   1.00
I615   I     0.52616   0.36223   0.94707   0.00000  Uiso   1.00
I616   I     0.98069   0.13561   0.05098   0.00000  Uiso   1.00
I617   I     0.65159   0.06526   0.95077   0.00000  Uiso   1.00
I618   I     0.85128   0.44192   0.04866   0.00000  Uiso   1.00
I619   I     0.97673   0.13638   0.94812   0.00000  Uiso   1.00
I620   I     0.51989   0.36419   0.04985   0.00000  Uiso   1.00
I621   I     0.71474   0.35340   0.21916   0.00000  Uiso   1.00
I622   I     0.84843   0.08556   0.84081   0.00000  Uiso   1.00
I623   I     0.61375   0.18396   0.16884   0.00000  Uiso   1.00
I624   I     0.61244   0.27935   0.55175   0.00000  Uiso   1.00
I625   I     0.89953   0.33067   0.83845   0.00000  Uiso   1.00
I626   I     0.89564   0.03502   0.28261   0.00000  Uiso   1.00
I627   I     0.65376   0.41285   0.84070   0.00000  Uiso   1.00
I628   I     0.88677   0.31730   0.16831   0.00000  Uiso   1.00
I629   I     0.64105   0.21095   0.79477   0.00000  Uiso   1.00
I630   I     0.71049   0.14116   0.79518   0.00000  Uiso   1.00
I631   I     0.81264   0.38028   0.17255   0.00000  Uiso   1.00
I632   I     0.56867   0.37140   0.83359   0.00000  Uiso   1.00
I633   I     0.96477   0.10371   0.28200   0.00000  Uiso   1.00
I634   I     0.83033   0.39801   0.83775   0.00000  Uiso   1.00
I635   I     0.85257   0.07848   0.46502   0.00000  Uiso   1.00
I636   I     0.68879   0.12260   0.17411   0.00000  Uiso   1.00
I637   I     0.93400   0.12543   0.83148   0.00000  Uiso   1.00
I638   I     0.64576   0.28480   0.21850   0.00000  Uiso   1.00
I639   I     0.89123   0.17244   0.66188   0.00000  Uiso   1.00
I640   I     0.53517   0.39630   0.28163   0.00000  Uiso   1.00
I641   I     0.84766   0.41519   0.66025   0.00000  Uiso   1.00
I642   I     0.63453   0.06556   0.33095   0.00000  Uiso   1.00
I643   I     0.62516   0.31376   0.66967   0.00000  Uiso   1.00
I644   I     0.85443   0.21512   0.21809   0.00000  Uiso   1.00
I645   I     0.60916   0.03920   0.70486   0.00000  Uiso   1.00
I646   I     0.71421   0.39256   0.55343   0.00000  Uiso   1.00
I647   I     0.86372   0.43384   0.33206   0.00000  Uiso   1.00
I648   I     0.93229   0.36388   0.33283   0.00000  Uiso   1.00
I649   I     0.53934   0.10860   0.70540   0.00000  Uiso   1.00
I650   I     0.78536   0.14669   0.21916   0.00000  Uiso   1.00
I651   I     0.66524   0.39836   0.66046   0.00000  Uiso   1.00
I652   I     0.56654   0.13540   0.33190   0.00000  Uiso   1.00
I653   I     0.91896   0.35023   0.66122   0.00000  Uiso   1.00
I654   I     0.60419   0.46507   0.28201   0.00000  Uiso   1.00
I655   I     0.81070   0.12700   0.67092   0.00000  Uiso   1.00
I656   I     0.61343   0.27409   0.44918   0.00000  Uiso   1.00
I657   I     0.89119   0.21534   0.55367   0.00000  Uiso   1.00
I658   I     0.72535   0.38788   0.45068   0.00000  Uiso   1.00
I659   I     0.79863   0.10657   0.54541   0.00000  Uiso   1.00
I660   I     0.84951   0.44371   0.94613   0.00000  Uiso   1.00
O661   O     0.75000   0.00000   0.25000   0.00000  Uiso   1.00
O662   O     0.75000   0.46964   0.66245   0.00000  Uiso   1.00
O663   O     0.96964   0.25000   0.33755   0.00000  Uiso   1.00
O664   O     0.53037   0.25000   0.66245   0.00000  Uiso   1.00
O665   O     0.50000   0.21964   0.83755   0.00000  Uiso   1.00
O666   O     0.50000   0.28037   0.16245   0.00000  Uiso   1.00
O667   O     0.78037   0.00000   0.83755   0.00000  Uiso   1.00
O668   O     0.71964   0.00000   0.16245   0.00000  Uiso   1.00
O669   O     0.50000   0.28037   0.83755   0.00000  Uiso   1.00
O670   O     0.50000   0.21964   0.16245   0.00000  Uiso   1.00
O671   O     0.71964   0.00000   0.83755   0.00000  Uiso   1.00
O672   O     0.75000   0.00000   0.75000   0.00000  Uiso   1.00
O673   O     0.78037   0.00000   0.16245   0.00000  Uiso   1.00
O674   O     0.70725   0.07308   0.27302   0.00000  Uiso   1.00
O675   O     0.79276   0.42693   0.72698   0.00000  Uiso   1.00
O676   O     0.92693   0.20725   0.27302   0.00000  Uiso   1.00
O677   O     0.57308   0.29276   0.72698   0.00000  Uiso   1.00
O678   O     0.79276   0.42693   0.27302   0.00000  Uiso   1.00
O679   O     0.70725   0.07308   0.72698   0.00000  Uiso   1.00
O680   O     0.57308   0.29276   0.27302   0.00000  Uiso   1.00
O681   O     0.92693   0.20725   0.72698   0.00000  Uiso   1.00
O682   O     0.70725   0.42693   0.72698   0.00000  Uiso   1.00
O683   O     0.50000   0.25000   0.25000   0.00000  Uiso   1.00
O684   O     0.79276   0.07308   0.27302   0.00000  Uiso   1.00
O685   O     0.92693   0.29276   0.72698   0.00000  Uiso   1.00
O686   O     0.57308   0.20725   0.27302   0.00000  Uiso   1.00
O687   O     0.79276   0.07308   0.72698   0.00000  Uiso   1.00
O688   O     0.70725   0.42693   0.27302   0.00000  Uiso   1.00
O689   O     0.57308   0.20725   0.72698   0.00000  Uiso   1.00
O690   O     0.92693   0.29276   0.27302   0.00000  Uiso   1.00
O691   O     0.95725   0.32308   0.77302   0.00000  Uiso   1.00
O692   O     0.54276   0.17693   0.22698   0.00000  Uiso   1.00
O693   O     0.67693   0.45725   0.77302   0.00000  Uiso   1.00
O694   O     0.50000   0.25000   0.75000   0.00000  Uiso   1.00
O695   O     0.82308   0.04276   0.22698   0.00000  Uiso   1.00
O696   O     0.54276   0.17693   0.77302   0.00000  Uiso   1.00
O697   O     0.95725   0.32308   0.22698   0.00000  Uiso   1.00
O698   O     0.82308   0.04276   0.77302   0.00000  Uiso   1.00
O699   O     0.67693   0.45725   0.22698   0.00000  Uiso   1.00
O700   O     0.95725   0.17693   0.22698   0.00000  Uiso   1.00
O701   O     0.54276   0.32308   0.77302   0.00000  Uiso   1.00
O702   O     0.67693   0.04276   0.22698   0.00000  Uiso   1.00
O703   O     0.82308   0.45725   0.77302   0.00000  Uiso   1.00
O704   O     0.54276   0.32308   0.22698   0.00000  Uiso   1.00
O705   O     0.75000   0.46964   0.33755   0.00000  Uiso   1.00
O706   O     0.95725   0.17693   0.77302   0.00000  Uiso   1.00
O707   O     0.82308   0.45725   0.22698   0.00000  Uiso   1.00
O708   O     0.67693   0.04276   0.77302   0.00000  Uiso   1.00
O709   O     0.75000   0.03037   0.66245   0.00000  Uiso   1.00
O710   O     0.53037   0.25000   0.33755   0.00000  Uiso   1.00
O711   O     0.96964   0.25000   0.66245   0.00000  Uiso   1.00
O712   O     0.75000   0.03037   0.33755   0.00000  Uiso   1.00
Zn713  Zn    0.70660   0.00000   0.21735   0.00000  Uiso   1.00
Zn714  Zn    0.54341   0.25000   0.28265   0.00000  Uiso   1.00
Zn715  Zn    0.75000   0.45660   0.71735   0.00000  Uiso   1.00
Zn716  Zn    0.75000   0.04341   0.28265   0.00000  Uiso   1.00
Zn717  Zn    0.54341   0.25000   0.71735   0.00000  Uiso   1.00
Zn718  Zn    0.95660   0.25000   0.28265   0.00000  Uiso   1.00
Zn719  Zn    0.75000   0.04341   0.71735   0.00000  Uiso   1.00
Zn720  Zn    0.75000   0.45660   0.28265   0.00000  Uiso   1.00
Zn721  Zn    0.79341   0.00000   0.78265   0.00000  Uiso   1.00
Zn722  Zn    0.50000   0.20660   0.21735   0.00000  Uiso   1.00
Zn723  Zn    0.50000   0.29341   0.78265   0.00000  Uiso   1.00
Zn724  Zn    0.79341   0.00000   0.21735   0.00000  Uiso   1.00
Zn725  Zn    0.70660   0.00000   0.78265   0.00000  Uiso   1.00
Zn726  Zn    0.50000   0.29341   0.21735   0.00000  Uiso   1.00
Zn727  Zn    0.50000   0.20660   0.78265   0.00000  Uiso   1.00
Zn728  Zn    0.95660   0.25000   0.71735   0.00000  Uiso   1.00
C729   C     0.02519   0.77244   0.41884   0.00000  Uiso   1.00
C730   C     0.26763   0.97246   0.08034   0.00000  Uiso   1.00
C731   C     0.23809   0.97278   0.54027   0.00000  Uiso   1.00
C732   C     0.02960   0.76639   0.45911   0.00000  Uiso   1.00
C733   C     0.47287   0.73258   0.54082   0.00000  Uiso   1.00
C734   C     0.24111   0.97081   0.45967   0.00000  Uiso   1.00
C735   C     0.27969   0.52438   0.54162   0.00000  Uiso   1.00
C736   C     0.27351   0.97848   0.95888   0.00000  Uiso   1.00
C737   C     0.22867   0.52695   0.04078   0.00000  Uiso   1.00
C738   C     0.01623   0.77880   0.95925   0.00000  Uiso   1.00
C739   C     0.48539   0.71992   0.04081   0.00000  Uiso   1.00
C740   C     0.22779   0.52752   0.95885   0.00000  Uiso   1.00
C741   C     0.47774   0.72504   0.91933   0.00000  Uiso   1.00
C742   C     0.27449   0.97809   0.04022   0.00000  Uiso   1.00
C743   C     0.48460   0.72024   0.95939   0.00000  Uiso   1.00
C744   C     0.01501   0.77977   0.04068   0.00000  Uiso   1.00
C745   C     0.09804   0.84816   0.24998   0.00000  Uiso   1.00
C746   C     0.40232   0.65093   0.74977   0.00000  Uiso   1.00
C747   C     0.15202   0.59843   0.25033   0.00000  Uiso   1.00
C748   C     0.34796   0.90161   0.74969   0.00000  Uiso   1.00
C749   C     0.40201   0.65181   0.25001   0.00000  Uiso   1.00
C750   C     0.09913   0.84750   0.75081   0.00000  Uiso   1.00
C751   C     0.34796   0.90178   0.25049   0.00000  Uiso   1.00
C752   C     0.02127   0.77582   0.08096   0.00000  Uiso   1.00
C753   C     0.15197   0.59813   0.74992   0.00000  Uiso   1.00
C754   C     0.09806   0.65188   0.75012   0.00000  Uiso   1.00
C755   C     0.40224   0.84838   0.25041   0.00000  Uiso   1.00
C756   C     0.15274   0.90136   0.75046   0.00000  Uiso   1.00
C757   C     0.34813   0.59816   0.25025   0.00000  Uiso   1.00
C758   C     0.40208   0.84807   0.74988   0.00000  Uiso   1.00
C759   C     0.09772   0.65181   0.25027   0.00000  Uiso   1.00
C760   C     0.34514   0.60084   0.75146   0.00000  Uiso   1.00
C761   C     0.15187   0.90185   0.25018   0.00000  Uiso   1.00
C762   C     0.00053   0.75033   0.47960   0.00000  Uiso   1.00
C763   C     0.26630   0.97286   0.91927   0.00000  Uiso   1.00
C764   C     0.00078   0.75037   0.52029   0.00000  Uiso   1.00
C765   C     0.26190   0.99732   0.47946   0.00000  Uiso   1.00
C766   C     0.26049   0.99784   0.52043   0.00000  Uiso   1.00
C767   C     0.25107   0.50318   0.97930   0.00000  Uiso   1.00
C768   C     0.25152   0.50289   0.02006   0.00000  Uiso   1.00
C769   C     0.00032   0.74963   0.97974   0.00000  Uiso   1.00
C770   C     0.00024   0.74978   0.02041   0.00000  Uiso   1.00
C771   C     0.04326   0.80524   0.39938   0.00000  Uiso   1.00
C772   C     0.01565   0.83211   0.38217   0.00000  Uiso   1.00
C773   C     0.47017   0.68883   0.59777   0.00000  Uiso   1.00
C774   C     0.23469   0.53053   0.08110   0.00000  Uiso   1.00
C775   C     0.00487   0.66600   0.60225   0.00000  Uiso   1.00
C776   C     0.19710   0.96181   0.40353   0.00000  Uiso   1.00
C777   C     0.17141   0.99235   0.39044   0.00000  Uiso   1.00
C778   C     0.31332   0.53653   0.60561   0.00000  Uiso   1.00
C779   C     0.33572   0.50684   0.62574   0.00000  Uiso   1.00
C780   C     0.45706   0.69514   0.39988   0.00000  Uiso   1.00
C781   C     0.48455   0.66828   0.38246   0.00000  Uiso   1.00
C782   C     0.03987   0.80816   0.59992   0.00000  Uiso   1.00
C783   C     0.01035   0.83372   0.61562   0.00000  Uiso   1.00
C784   C     0.30969   0.54177   0.39128   0.00000  Uiso   1.00
C785   C     0.02291   0.77380   0.91927   0.00000  Uiso   1.00
C786   C     0.29911   0.58209   0.38603   0.00000  Uiso   1.00
C787   C     0.19078   0.97410   0.59394   0.00000  Uiso   1.00
C788   C     0.17002   0.51026   0.59727   0.00000  Uiso   1.00
C789   C     0.22756   0.56735   0.89647   0.00000  Uiso   1.00
C790   C     0.24363   0.59991   0.91828   0.00000  Uiso   1.00
C791   C     0.27214   0.93504   0.09920   0.00000  Uiso   1.00
C792   C     0.25502   0.90453   0.07503   0.00000  Uiso   1.00
C793   C     0.44410   0.70839   0.90072   0.00000  Uiso   1.00
C794   C     0.41742   0.73739   0.88589   0.00000  Uiso   1.00
C795   C     0.05351   0.79499   0.10014   0.00000  Uiso   1.00
C796   C     0.47886   0.72416   0.08098   0.00000  Uiso   1.00
C797   C     0.08120   0.76811   0.11725   0.00000  Uiso   1.00
C798   C     0.26344   0.93401   0.90390   0.00000  Uiso   1.00
C799   C     0.22896   0.91600   0.91930   0.00000  Uiso   1.00
C800   C     0.23028   0.56719   0.10104   0.00000  Uiso   1.00
C801   C     0.26695   0.58305   0.11350   0.00000  Uiso   1.00
C802   C     0.05769   0.78818   0.90096   0.00000  Uiso   1.00
C803   C     0.08348   0.75722   0.88902   0.00000  Uiso   1.00
C804   C     0.44643   0.70521   0.10000   0.00000  Uiso   1.00
C805   C     0.41871   0.73231   0.11661   0.00000  Uiso   1.00
C806   C     0.00010   0.75022   0.39843   0.00000  Uiso   1.00
C807   C     0.00057   0.75062   0.60142   0.00000  Uiso   1.00
C808   C     0.25541   0.99972   0.39847   0.00000  Uiso   1.00
C809   C     0.47842   0.72611   0.58067   0.00000  Uiso   1.00
C810   C     0.25378   0.50060   0.60152   0.00000  Uiso   1.00
C811   C     0.24997   0.50157   0.89828   0.00000  Uiso   1.00
C812   C     0.25034   0.50081   0.10129   0.00000  Uiso   1.00
C813   C     0.00004   0.74972   0.89861   0.00000  Uiso   1.00
C814   C     0.00003   0.75002   0.10154   0.00000  Uiso   1.00
C815   C     0.43927   0.72502   0.48028   0.00000  Uiso   1.00
C816   C     0.06179   0.77594   0.52052   0.00000  Uiso   1.00
C817   C     0.30464   0.54839   0.48126   0.00000  Uiso   1.00
C818   C     0.22653   0.94099   0.52087   0.00000  Uiso   1.00
C819   C     0.06213   0.77466   0.47947   0.00000  Uiso   1.00
C820   C     0.23283   0.97643   0.42034   0.00000  Uiso   1.00
C821   C     0.44046   0.72307   0.52123   0.00000  Uiso   1.00
C822   C     0.22917   0.93956   0.48018   0.00000  Uiso   1.00
C823   C     0.29727   0.55235   0.52111   0.00000  Uiso   1.00
C824   C     0.30226   0.96053   0.97848   0.00000  Uiso   1.00
C825   C     0.20003   0.54510   0.02094   0.00000  Uiso   1.00
C826   C     0.02348   0.81184   0.97905   0.00000  Uiso   1.00
C827   C     0.47865   0.68695   0.02050   0.00000  Uiso   1.00
C828   C     0.19966   0.54566   0.97978   0.00000  Uiso   1.00
C829   C     0.30289   0.96035   0.01948   0.00000  Uiso   1.00
C830   C     0.47776   0.68722   0.97946   0.00000  Uiso   1.00
C831   C     0.28118   0.52124   0.58274   0.00000  Uiso   1.00
C832   C     0.02213   0.81252   0.02006   0.00000  Uiso   1.00
C833   C     0.25115   0.99999   0.35593   0.00000  Uiso   1.00
C834   C     0.25052   0.50016   0.64405   0.00000  Uiso   1.00
C835   C     0.00002   0.75008   0.35588   0.00000  Uiso   1.00
C836   C     0.00011   0.75017   0.64408   0.00000  Uiso   1.00
C837   C    -0.00000   0.74995   0.85596   0.00000  Uiso   1.00
C838   C    -0.00000   0.75001   0.14408   0.00000  Uiso   1.00
C839   C     0.24998   0.50015   0.85581   0.00000  Uiso   1.00
C840   C     0.25003   0.50025   0.14406   0.00000  Uiso   1.00
C841   C     0.18004   0.57014   0.25000   0.00000  Uiso   1.00
C842   C     0.47525   0.72801   0.41912   0.00000  Uiso   1.00
C843   C     0.32006   0.92997   0.74983   0.00000  Uiso   1.00
C844   C     0.43004   0.67990   0.25004   0.00000  Uiso   1.00
C845   C     0.07035   0.81993   0.75031   0.00000  Uiso   1.00
C846   C     0.31998   0.92996   0.25011   0.00000  Uiso   1.00
C847   C     0.18002   0.57002   0.74997   0.00000  Uiso   1.00
C848   C     0.07000   0.82008   0.25001   0.00000  Uiso   1.00
C849   C     0.43029   0.67941   0.74963   0.00000  Uiso   1.00
C850   C     0.18011   0.92989   0.75003   0.00000  Uiso   1.00
C851   C     0.32004   0.57006   0.25007   0.00000  Uiso   1.00
C852   C     0.43008   0.82004   0.74994   0.00000  Uiso   1.00
C853   C     0.02417   0.77419   0.58083   0.00000  Uiso   1.00
C854   C     0.06977   0.67985   0.25024   0.00000  Uiso   1.00
C855   C     0.31916   0.57087   0.75068   0.00000  Uiso   1.00
C856   C     0.17995   0.92994   0.25006   0.00000  Uiso   1.00
C857   C     0.07000   0.67999   0.75005   0.00000  Uiso   1.00
C858   C     0.43024   0.82024   0.25031   0.00000  Uiso   1.00
C859   C     0.16070   0.86604   0.23837   0.00000  Uiso   1.00
C860   C     0.36632   0.60617   0.78505   0.00000  Uiso   1.00
C861   C     0.12083   0.64856   0.21798   0.00000  Uiso   1.00
C862   C     0.38534   0.85802   0.78516   0.00000  Uiso   1.00
C863   C     0.38371   0.58913   0.26230   0.00000  Uiso   1.00
C864   C     0.28287   0.52120   0.41689   0.00000  Uiso   1.00
C865   C     0.13432   0.89331   0.78526   0.00000  Uiso   1.00
C866   C     0.37951   0.85219   0.21777   0.00000  Uiso   1.00
C867   C     0.13191   0.65915   0.76756   0.00000  Uiso   1.00
C868   C     0.15904   0.63203   0.76754   0.00000  Uiso   1.00
C869   C     0.35163   0.87837   0.21832   0.00000  Uiso   1.00
C870   C     0.10451   0.86984   0.78416   0.00000  Uiso   1.00
C871   C     0.41079   0.61608   0.26216   0.00000  Uiso   1.00
C872   C     0.35818   0.88493   0.78501   0.00000  Uiso   1.00
C873   C     0.14885   0.62255   0.21865   0.00000  Uiso   1.00
C874   C     0.39657   0.62903   0.78339   0.00000  Uiso   1.00
C875   C     0.22926   0.98005   0.57923   0.00000  Uiso   1.00
C876   C     0.13365   0.83908   0.23822   0.00000  Uiso   1.00
C877   C     0.37936   0.64716   0.71694   0.00000  Uiso   1.00
C878   C     0.08920   0.88392   0.26195   0.00000  Uiso   1.00
C879   C     0.36410   0.89089   0.71425   0.00000  Uiso   1.00
C880   C     0.12881   0.60179   0.28268   0.00000  Uiso   1.00
C881   C     0.12200   0.85174   0.71781   0.00000  Uiso   1.00
C882   C     0.36642   0.66088   0.23812   0.00000  Uiso   1.00
C883   C     0.11814   0.59087   0.73243   0.00000  Uiso   1.00
C884   C     0.37058   0.89795   0.28326   0.00000  Uiso   1.00
C885   C     0.39762   0.87075   0.28340   0.00000  Uiso   1.00
C886   C     0.23339   0.53120   0.91806   0.00000  Uiso   1.00
C887   C     0.09096   0.61794   0.73259   0.00000  Uiso   1.00
C888   C     0.33936   0.63396   0.23833   0.00000  Uiso   1.00
C889   C     0.14523   0.88164   0.71623   0.00000  Uiso   1.00
C890   C     0.10185   0.62901   0.28290   0.00000  Uiso   1.00
C891   C     0.39162   0.86432   0.71442   0.00000  Uiso   1.00
C892   C     0.11625   0.91089   0.26205   0.00000  Uiso   1.00
C893   C     0.34970   0.62358   0.71839   0.00000  Uiso   1.00
C894   C     0.47128   0.73408   0.45944   0.00000  Uiso   1.00
C895   C     0.02923   0.76768   0.54065   0.00000  Uiso   1.00
C896   C     0.28406   0.52259   0.45866   0.00000  Uiso   1.00
H897   H     0.00354   0.82127   0.35506   0.00000  Uiso   1.00
H898   H     0.45163   0.67290   0.57896   0.00000  Uiso   1.00
H899   H     0.16856   0.51332   0.41366   0.00000  Uiso   1.00
H900   H     0.18137   0.50533   0.36340   0.00000  Uiso   1.00
H901   H     0.14412   0.98081   0.38413   0.00000  Uiso   1.00
H902   H     0.20234   0.94262   0.37916   0.00000  Uiso   1.00
H903   H     0.18141   0.94668   0.42575   0.00000  Uiso   1.00
H904   H     0.32103   0.99540   0.65101   0.00000  Uiso   1.00
H905   H     0.34252   0.98474   0.60479   0.00000  Uiso   1.00
H906   H     0.36148   0.51868   0.63681   0.00000  Uiso   1.00
H907   H     0.33295   0.55039   0.58629   0.00000  Uiso   1.00
H908   H     0.49378   0.83817   0.40356   0.00000  Uiso   1.00
H909   H     0.30368   0.55675   0.62721   0.00000  Uiso   1.00
H910   H     0.49628   0.67903   0.35513   0.00000  Uiso   1.00
H911   H     0.00670   0.66240   0.40359   0.00000  Uiso   1.00
H912   H     0.47069   0.64225   0.37530   0.00000  Uiso   1.00
H913   H     0.44194   0.67885   0.42163   0.00000  Uiso   1.00
H914   H     0.43729   0.70406   0.37734   0.00000  Uiso   1.00
H915   H     0.48936   0.83900   0.59300   0.00000  Uiso   1.00
H916   H     0.49735   0.82206   0.64185   0.00000  Uiso   1.00
H917   H     0.02272   0.86015   0.62411   0.00000  Uiso   1.00
H918   H     0.05867   0.80030   0.62362   0.00000  Uiso   1.00
H919   H     0.02951   0.85806   0.37468   0.00000  Uiso   1.00
H920   H     0.05525   0.82468   0.57856   0.00000  Uiso   1.00
H921   H     0.32260   0.59732   0.37401   0.00000  Uiso   1.00
H922   H     0.27605   0.58521   0.36554   0.00000  Uiso   1.00
H923   H     0.29073   0.59475   0.41395   0.00000  Uiso   1.00
H924   H     0.33763   0.53792   0.40219   0.00000  Uiso   1.00
H925   H     0.31246   0.52933   0.36203   0.00000  Uiso   1.00
H926   H     0.18289   0.52849   0.61902   0.00000  Uiso   1.00
H927   H     0.16926   0.52429   0.56862   0.00000  Uiso   1.00
H928   H     0.14165   0.50492   0.60673   0.00000  Uiso   1.00
H929   H     0.17476   0.95664   0.57405   0.00000  Uiso   1.00
H930   H     0.05864   0.82146   0.42099   0.00000  Uiso   1.00
H931   H     0.19166   0.96095   0.62272   0.00000  Uiso   1.00
H932   H     0.22858   0.60548   0.94559   0.00000  Uiso   1.00
H933   H     0.27273   0.59464   0.92519   0.00000  Uiso   1.00
H934   H     0.24180   0.62470   0.89972   0.00000  Uiso   1.00
H935   H     0.24151   0.56703   0.86785   0.00000  Uiso   1.00
H936   H     0.19866   0.57213   0.88926   0.00000  Uiso   1.00
H937   H     0.22624   0.91137   0.06813   0.00000  Uiso   1.00
H938   H     0.27023   0.90001   0.04759   0.00000  Uiso   1.00
H939   H     0.25565   0.87863   0.09185   0.00000  Uiso   1.00
H940   H     0.30093   0.92901   0.10523   0.00000  Uiso   1.00
H941   H     0.06278   0.79627   0.37666   0.00000  Uiso   1.00
H942   H     0.25841   0.93405   0.12790   0.00000  Uiso   1.00
H943   H     0.41154   0.75773   0.90906   0.00000  Uiso   1.00
H944   H     0.42831   0.75151   0.85994   0.00000  Uiso   1.00
H945   H     0.39151   0.72416   0.87730   0.00000  Uiso   1.00
H946   H     0.45213   0.69007   0.87670   0.00000  Uiso   1.00
H947   H     0.42855   0.69209   0.92215   0.00000  Uiso   1.00
H948   H     0.07086   0.75549   0.14432   0.00000  Uiso   1.00
H949   H     0.08793   0.74642   0.09579   0.00000  Uiso   1.00
H950   H     0.10659   0.78285   0.12476   0.00000  Uiso   1.00
H951   H     0.06906   0.81087   0.07836   0.00000  Uiso   1.00
H952   H     0.01860   0.66285   0.57365   0.00000  Uiso   1.00
H953   H     0.04416   0.81442   0.12283   0.00000  Uiso   1.00
H954   H     0.23056   0.91277   0.95140   0.00000  Uiso   1.00
H955   H     0.20470   0.93287   0.91200   0.00000  Uiso   1.00
H956   H     0.22585   0.88857   0.90598   0.00000  Uiso   1.00
H957   H     0.26245   0.93339   0.87168   0.00000  Uiso   1.00
H958   H     0.28669   0.91677   0.91275   0.00000  Uiso   1.00
H959   H     0.27904   0.56746   0.13795   0.00000  Uiso   1.00
H960   H     0.28621   0.58302   0.08860   0.00000  Uiso   1.00
H961   H     0.26310   0.61169   0.12335   0.00000  Uiso   1.00
H962   H     0.21818   0.58786   0.08131   0.00000  Uiso   1.00
H963   H     0.02393   0.67891   0.62312   0.00000  Uiso   1.00
H964   H     0.21214   0.56379   0.12638   0.00000  Uiso   1.00
H965   H     0.08930   0.73923   0.91433   0.00000  Uiso   1.00
H966   H     0.07185   0.74064   0.86512   0.00000  Uiso   1.00
H967   H     0.10952   0.76893   0.87857   0.00000  Uiso   1.00
H968   H     0.05113   0.80526   0.87546   0.00000  Uiso   1.00
H969   H     0.07323   0.80514   0.92180   0.00000  Uiso   1.00
H970   H     0.42899   0.74524   0.14354   0.00000  Uiso   1.00
H971   H     0.41207   0.75375   0.09482   0.00000  Uiso   1.00
H972   H     0.39329   0.71768   0.12420   0.00000  Uiso   1.00
H973   H     0.43101   0.68920   0.07821   0.00000  Uiso   1.00
H974   H     0.49787   0.63847   0.61345   0.00000  Uiso   1.00
H975   H     0.45555   0.68592   0.12297   0.00000  Uiso   1.00
H976   H     0.45737   0.69195   0.62652   0.00000  Uiso   1.00
I977   I     0.38733   0.72521   0.45123   0.00000  Uiso   1.00
I978   I     0.15210   0.56144   0.05284   0.00000  Uiso   1.00
I979   I     0.02616   0.86223   0.94707   0.00000  Uiso   1.00
I980   I     0.48069   0.63561   0.05098   0.00000  Uiso   1.00
I981   I     0.15159   0.56526   0.95077   0.00000  Uiso   1.00
I982   I     0.35128   0.94192   0.04866   0.00000  Uiso   1.00
I983   I     0.47673   0.63638   0.94812   0.00000  Uiso   1.00
I984   I     0.01989   0.86419   0.04985   0.00000  Uiso   1.00
I985   I     0.21474   0.85340   0.21916   0.00000  Uiso   1.00
I986   I     0.34843   0.58556   0.84081   0.00000  Uiso   1.00
I987   I     0.11375   0.68396   0.16884   0.00000  Uiso   1.00
I988   I     0.11244   0.77935   0.55175   0.00000  Uiso   1.00
I989   I     0.39953   0.83067   0.83845   0.00000  Uiso   1.00
I990   I     0.39564   0.53502   0.28261   0.00000  Uiso   1.00
I991   I     0.15376   0.91285   0.84070   0.00000  Uiso   1.00
I992   I     0.38677   0.81730   0.16831   0.00000  Uiso   1.00
I993   I     0.14105   0.71095   0.79477   0.00000  Uiso   1.00
I994   I     0.21049   0.64116   0.79518   0.00000  Uiso   1.00
I995   I     0.31264   0.88028   0.17255   0.00000  Uiso   1.00
I996   I     0.06867   0.87140   0.83359   0.00000  Uiso   1.00
I997   I     0.46477   0.60371   0.28200   0.00000  Uiso   1.00
I998   I     0.33033   0.89801   0.83775   0.00000  Uiso   1.00
I999   I     0.35257   0.57848   0.46502   0.00000  Uiso   1.00
I1000  I     0.18879   0.62260   0.17411   0.00000  Uiso   1.00
I1001  I     0.43400   0.62543   0.83148   0.00000  Uiso   1.00
I1002  I     0.14576   0.78480   0.21850   0.00000  Uiso   1.00
I1003  I     0.39123   0.67244   0.66188   0.00000  Uiso   1.00
I1004  I     0.03517   0.89630   0.28163   0.00000  Uiso   1.00
I1005  I     0.34766   0.91519   0.66025   0.00000  Uiso   1.00
I1006  I     0.13453   0.56556   0.33095   0.00000  Uiso   1.00
I1007  I     0.12516   0.81376   0.66967   0.00000  Uiso   1.00
I1008  I     0.35443   0.71512   0.21809   0.00000  Uiso   1.00
I1009  I     0.10916   0.53920   0.70486   0.00000  Uiso   1.00
I1010  I     0.21421   0.89256   0.55343   0.00000  Uiso   1.00
I1011  I     0.36372   0.93384   0.33206   0.00000  Uiso   1.00
I1012  I     0.43229   0.86388   0.33283   0.00000  Uiso   1.00
I1013  I     0.03934   0.60860   0.70540   0.00000  Uiso   1.00
I1014  I     0.28536   0.64669   0.21916   0.00000  Uiso   1.00
I1015  I     0.16524   0.89836   0.66046   0.00000  Uiso   1.00
I1016  I     0.06654   0.63540   0.33190   0.00000  Uiso   1.00
I1017  I     0.41896   0.85023   0.66122   0.00000  Uiso   1.00
I1018  I     0.10419   0.96507   0.28201   0.00000  Uiso   1.00
I1019  I     0.31070   0.62700   0.67092   0.00000  Uiso   1.00
I1020  I     0.11343   0.77409   0.44918   0.00000  Uiso   1.00
I1021  I     0.39119   0.71534   0.55367   0.00000  Uiso   1.00
I1022  I     0.22535   0.88788   0.45068   0.00000  Uiso   1.00
I1023  I     0.29863   0.60657   0.54541   0.00000  Uiso   1.00
I1024  I     0.34951   0.94371   0.94613   0.00000  Uiso   1.00
O1025  O     0.25000   0.50000   0.25000   0.00000  Uiso   1.00
O1026  O     0.25000   0.96964   0.66245   0.00000  Uiso   1.00
O1027  O     0.46964   0.75000   0.33755   0.00000  Uiso   1.00
O1028  O     0.03037   0.75000   0.66245   0.00000  Uiso   1.00
O1029  O     0.00000   0.71964   0.83755   0.00000  Uiso   1.00
O1030  O     0.00000   0.78037   0.16245   0.00000  Uiso   1.00
O1031  O     0.28037   0.50000   0.83755   0.00000  Uiso   1.00
O1032  O     0.21964   0.50000   0.16245   0.00000  Uiso   1.00
O1033  O     0.00000   0.78037   0.83755   0.00000  Uiso   1.00
O1034  O     0.00000   0.71964   0.16245   0.00000  Uiso   1.00
O1035  O     0.21964   0.50000   0.83755   0.00000  Uiso   1.00
O1036  O     0.25000   0.50000   0.75000   0.00000  Uiso   1.00
O1037  O     0.28037   0.50000   0.16245   0.00000  Uiso   1.00
O1038  O     0.20725   0.57308   0.27302   0.00000  Uiso   1.00
O1039  O     0.29276   0.92693   0.72698   0.00000  Uiso   1.00
O1040  O     0.42693   0.70725   0.27302   0.00000  Uiso   1.00
O1041  O     0.07308   0.79276   0.72698   0.00000  Uiso   1.00
O1042  O     0.29276   0.92693   0.27302   0.00000  Uiso   1.00
O1043  O     0.20725   0.57308   0.72698   0.00000  Uiso   1.00
O1044  O     0.07308   0.79276   0.27302   0.00000  Uiso   1.00
O1045  O     0.42693   0.70725   0.72698   0.00000  Uiso   1.00
O1046  O     0.20725   0.92693   0.72698   0.00000  Uiso   1.00
O1047  O     0.00000   0.75000   0.25000   0.00000  Uiso   1.00
O1048  O     0.29276   0.57308   0.27302   0.00000  Uiso   1.00
O1049  O     0.42693   0.79276   0.72698   0.00000  Uiso   1.00
O1050  O     0.07308   0.70725   0.27302   0.00000  Uiso   1.00
O1051  O     0.29276   0.57308   0.72698   0.00000  Uiso   1.00
O1052  O     0.20725   0.92693   0.27302   0.00000  Uiso   1.00
O1053  O     0.07308   0.70725   0.72698   0.00000  Uiso   1.00
O1054  O     0.42693   0.79276   0.27302   0.00000  Uiso   1.00
O1055  O     0.45725   0.82308   0.77302   0.00000  Uiso   1.00
O1056  O     0.04276   0.67693   0.22698   0.00000  Uiso   1.00
O1057  O     0.17693   0.95725   0.77302   0.00000  Uiso   1.00
O1058  O     0.00000   0.75000   0.75000   0.00000  Uiso   1.00
O1059  O     0.32308   0.54276   0.22698   0.00000  Uiso   1.00
O1060  O     0.04276   0.67693   0.77302   0.00000  Uiso   1.00
O1061  O     0.45725   0.82308   0.22698   0.00000  Uiso   1.00
O1062  O     0.32308   0.54276   0.77302   0.00000  Uiso   1.00
O1063  O     0.17693   0.95725   0.22698   0.00000  Uiso   1.00
O1064  O     0.45725   0.67693   0.22698   0.00000  Uiso   1.00
O1065  O     0.04276   0.82308   0.77302   0.00000  Uiso   1.00
O1066  O     0.17693   0.54276   0.22698   0.00000  Uiso   1.00
O1067  O     0.32308   0.95725   0.77302   0.00000  Uiso   1.00
O1068  O     0.04276   0.82308   0.22698   0.00000  Uiso   1.00
O1069  O     0.25000   0.96964   0.33755   0.00000  Uiso   1.00
O1070  O     0.45725   0.67693   0.77302   0.00000  Uiso   1.00
O1071  O     0.32308   0.95725   0.22698   0.00000  Uiso   1.00
O1072  O     0.17693   0.54276   0.77302   0.00000  Uiso   1.00
O1073  O     0.25000   0.53037   0.66245   0.00000  Uiso   1.00
O1074  O     0.03037   0.75000   0.33755   0.00000  Uiso   1.00
O1075  O     0.46964   0.75000   0.66245   0.00000  Uiso   1.00
O1076  O     0.25000   0.53037   0.33755   0.00000  Uiso   1.00
Zn1077 Zn    0.20660   0.50000   0.21735   0.00000  Uiso   1.00
Zn1078 Zn    0.04341   0.75000   0.28265   0.00000  Uiso   1.00
Zn1079 Zn    0.25000   0.95660   0.71735   0.00000  Uiso   1.00
Zn1080 Zn    0.25000   0.54341   0.28265   0.00000  Uiso   1.00
Zn1081 Zn    0.04341   0.75000   0.71735   0.00000  Uiso   1.00
Zn1082 Zn    0.45660   0.75000   0.28265   0.00000  Uiso   1.00
Zn1083 Zn    0.25000   0.54341   0.71735   0.00000  Uiso   1.00
Zn1084 Zn    0.25000   0.95660   0.28265   0.00000  Uiso   1.00
Zn1085 Zn    0.29341   0.50000   0.78265   0.00000  Uiso   1.00
Zn1086 Zn    0.00000   0.70660   0.21735   0.00000  Uiso   1.00
Zn1087 Zn    0.00000   0.79341   0.78265   0.00000  Uiso   1.00
Zn1088 Zn    0.29341   0.50000   0.21735   0.00000  Uiso   1.00
Zn1089 Zn    0.20660   0.50000   0.78265   0.00000  Uiso   1.00
Zn1090 Zn    0.00000   0.79341   0.21735   0.00000  Uiso   1.00
Zn1091 Zn    0.00000   0.70660   0.78265   0.00000  Uiso   1.00
Zn1092 Zn    0.45660   0.75000   0.71735   0.00000  Uiso   1.00
C1093  C     0.52519   0.77244   0.41884   0.00000  Uiso   1.00
C1094  C     0.76763   0.97246   0.08034   0.00000  Uiso   1.00
C1095  C     0.73809   0.97278   0.54027   0.00000  Uiso   1.00
C1096  C     0.52960   0.76639   0.45911   0.00000  Uiso   1.00
C1097  C     0.97287   0.73258   0.54082   0.00000  Uiso   1.00
C1098  C     0.74111   0.97081   0.45967   0.00000  Uiso   1.00
C1099  C     0.77969   0.52438   0.54162   0.00000  Uiso   1.00
C1100  C     0.77351   0.97848   0.95888   0.00000  Uiso   1.00
C1101  C     0.72867   0.52695   0.04078   0.00000  Uiso   1.00
C1102  C     0.51623   0.77880   0.95925   0.00000  Uiso   1.00
C1103  C     0.98539   0.71992   0.04081   0.00000  Uiso   1.00
C1104  C     0.72779   0.52752   0.95885   0.00000  Uiso   1.00
C1105  C     0.97774   0.72504   0.91933   0.00000  Uiso   1.00
C1106  C     0.77449   0.97809   0.04022   0.00000  Uiso   1.00
C1107  C     0.98460   0.72024   0.95939   0.00000  Uiso   1.00
C1108  C     0.51501   0.77977   0.04068   0.00000  Uiso   1.00
C1109  C     0.59804   0.84816   0.24998   0.00000  Uiso   1.00
C1110  C     0.90232   0.65093   0.74977   0.00000  Uiso   1.00
C1111  C     0.65202   0.59843   0.25033   0.00000  Uiso   1.00
C1112  C     0.84796   0.90161   0.74969   0.00000  Uiso   1.00
C1113  C     0.90201   0.65181   0.25001   0.00000  Uiso   1.00
C1114  C     0.59913   0.84750   0.75081   0.00000  Uiso   1.00
C1115  C     0.84796   0.90178   0.25049   0.00000  Uiso   1.00
C1116  C     0.52127   0.77582   0.08096   0.00000  Uiso   1.00
C1117  C     0.65197   0.59813   0.74992   0.00000  Uiso   1.00
C1118  C     0.59806   0.65188   0.75012   0.00000  Uiso   1.00
C1119  C     0.90224   0.84838   0.25041   0.00000  Uiso   1.00
C1120  C     0.65274   0.90136   0.75046   0.00000  Uiso   1.00
C1121  C     0.84813   0.59816   0.25025   0.00000  Uiso   1.00
C1122  C     0.90208   0.84807   0.74988   0.00000  Uiso   1.00
C1123  C     0.59772   0.65181   0.25027   0.00000  Uiso   1.00
C1124  C     0.84514   0.60084   0.75146   0.00000  Uiso   1.00
C1125  C     0.65187   0.90185   0.25018   0.00000  Uiso   1.00
C1126  C     0.50053   0.75033   0.47960   0.00000  Uiso   1.00
C1127  C     0.76630   0.97286   0.91927   0.00000  Uiso   1.00
C1128  C     0.50078   0.75037   0.52029   0.00000  Uiso   1.00
C1129  C     0.76190   0.99732   0.47946   0.00000  Uiso   1.00
C1130  C     0.76049   0.99784   0.52043   0.00000  Uiso   1.00
C1131  C     0.75107   0.50318   0.97930   0.00000  Uiso   1.00
C1132  C     0.75152   0.50289   0.02006   0.00000  Uiso   1.00
C1133  C     0.50032   0.74963   0.97974   0.00000  Uiso   1.00
C1134  C     0.50024   0.74978   0.02041   0.00000  Uiso   1.00
C1135  C     0.54326   0.80524   0.39938   0.00000  Uiso   1.00
C1136  C     0.51565   0.83211   0.38217   0.00000  Uiso   1.00
C1137  C     0.97017   0.68883   0.59777   0.00000  Uiso   1.00
C1138  C     0.73469   0.53053   0.08110   0.00000  Uiso   1.00
C1139  C     0.50487   0.66600   0.60225   0.00000  Uiso   1.00
C1140  C     0.69710   0.96181   0.40353   0.00000  Uiso   1.00
C1141  C     0.67141   0.99235   0.39044   0.00000  Uiso   1.00
C1142  C     0.81332   0.53653   0.60561   0.00000  Uiso   1.00
C1143  C     0.83572   0.50684   0.62574   0.00000  Uiso   1.00
C1144  C     0.95706   0.69514   0.39988   0.00000  Uiso   1.00
C1145  C     0.98455   0.66828   0.38246   0.00000  Uiso   1.00
C1146  C     0.53987   0.80816   0.59992   0.00000  Uiso   1.00
C1147  C     0.51035   0.83372   0.61562   0.00000  Uiso   1.00
C1148  C     0.80969   0.54177   0.39128   0.00000  Uiso   1.00
C1149  C     0.52291   0.77380   0.91927   0.00000  Uiso   1.00
C1150  C     0.79911   0.58209   0.38603   0.00000  Uiso   1.00
C1151  C     0.69078   0.97410   0.59394   0.00000  Uiso   1.00
C1152  C     0.67002   0.51026   0.59727   0.00000  Uiso   1.00
C1153  C     0.72756   0.56735   0.89647   0.00000  Uiso   1.00
C1154  C     0.74363   0.59991   0.91828   0.00000  Uiso   1.00
C1155  C     0.77214   0.93504   0.09920   0.00000  Uiso   1.00
C1156  C     0.75502   0.90453   0.07503   0.00000  Uiso   1.00
C1157  C     0.94410   0.70839   0.90072   0.00000  Uiso   1.00
C1158  C     0.91742   0.73739   0.88589   0.00000  Uiso   1.00
C1159  C     0.55351   0.79499   0.10014   0.00000  Uiso   1.00
C1160  C     0.97886   0.72416   0.08098   0.00000  Uiso   1.00
C1161  C     0.58120   0.76811   0.11725   0.00000  Uiso   1.00
C1162  C     0.76344   0.93401   0.90390   0.00000  Uiso   1.00
C1163  C     0.72896   0.91600   0.91930   0.00000  Uiso   1.00
C1164  C     0.73028   0.56719   0.10104   0.00000  Uiso   1.00
C1165  C     0.76695   0.58305   0.11350   0.00000  Uiso   1.00
C1166  C     0.55769   0.78818   0.90096   0.00000  Uiso   1.00
C1167  C     0.58348   0.75722   0.88902   0.00000  Uiso   1.00
C1168  C     0.94643   0.70521   0.10000   0.00000  Uiso   1.00
C1169  C     0.91871   0.73231   0.11661   0.00000  Uiso   1.00
C1170  C     0.50010   0.75022   0.39843   0.00000  Uiso   1.00
C1171  C     0.50057   0.75062   0.60142   0.00000  Uiso   1.00
C1172  C     0.75541   0.99972   0.39847   0.00000  Uiso   1.00
C1173  C     0.97842   0.72611   0.58067   0.00000  Uiso   1.00
C1174  C     0.75378   0.50060   0.60152   0.00000  Uiso   1.00
C1175  C     0.74997   0.50157   0.89828   0.00000  Uiso   1.00
C1176  C     0.75034   0.50081   0.10129   0.00000  Uiso   1.00
C1177  C     0.50004   0.74972   0.89861   0.00000  Uiso   1.00
C1178  C     0.50003   0.75002   0.10154   0.00000  Uiso   1.00
C1179  C     0.93927   0.72502   0.48028   0.00000  Uiso   1.00
C1180  C     0.56179   0.77594   0.52052   0.00000  Uiso   1.00
C1181  C     0.80464   0.54839   0.48126   0.00000  Uiso   1.00
C1182  C     0.72653   0.94099   0.52087   0.00000  Uiso   1.00
C1183  C     0.56213   0.77466   0.47947   0.00000  Uiso   1.00
C1184  C     0.73283   0.97643   0.42034   0.00000  Uiso   1.00
C1185  C     0.94046   0.72307   0.52123   0.00000  Uiso   1.00
C1186  C     0.72917   0.93956   0.48018   0.00000  Uiso   1.00
C1187  C     0.79727   0.55235   0.52111   0.00000  Uiso   1.00
C1188  C     0.80226   0.96053   0.97848   0.00000  Uiso   1.00
C1189  C     0.70003   0.54510   0.02094   0.00000  Uiso   1.00
C1190  C     0.52348   0.81184   0.97905   0.00000  Uiso   1.00
C1191  C     0.97865   0.68695   0.02050   0.00000  Uiso   1.00
C1192  C     0.69966   0.54566   0.97978   0.00000  Uiso   1.00
C1193  C     0.80289   0.96035   0.01948   0.00000  Uiso   1.00
C1194  C     0.97776   0.68722   0.97946   0.00000  Uiso   1.00
C1195  C     0.78118   0.52124   0.58274   0.00000  Uiso   1.00
C1196  C     0.52213   0.81252   0.02006   0.00000  Uiso   1.00
C1197  C     0.75115   0.99999   0.35593   0.00000  Uiso   1.00
C1198  C     0.75052   0.50016   0.64405   0.00000  Uiso   1.00
C1199  C     0.50002   0.75008   0.35588   0.00000  Uiso   1.00
C1200  C     0.50011   0.75017   0.64408   0.00000  Uiso   1.00
C1201  C     0.50000   0.74995   0.85596   0.00000  Uiso   1.00
C1202  C     0.50000   0.75001   0.14408   0.00000  Uiso   1.00
C1203  C     0.74998   0.50015   0.85581   0.00000  Uiso   1.00
C1204  C     0.75003   0.50025   0.14406   0.00000  Uiso   1.00
C1205  C     0.68004   0.57014   0.25000   0.00000  Uiso   1.00
C1206  C     0.97525   0.72801   0.41912   0.00000  Uiso   1.00
C1207  C     0.82006   0.92997   0.74983   0.00000  Uiso   1.00
C1208  C     0.93004   0.67990   0.25004   0.00000  Uiso   1.00
C1209  C     0.57035   0.81993   0.75031   0.00000  Uiso   1.00
C1210  C     0.81998   0.92996   0.25011   0.00000  Uiso   1.00
C1211  C     0.68002   0.57002   0.74997   0.00000  Uiso   1.00
C1212  C     0.57000   0.82008   0.25001   0.00000  Uiso   1.00
C1213  C     0.93029   0.67941   0.74963   0.00000  Uiso   1.00
C1214  C     0.68011   0.92989   0.75003   0.00000  Uiso   1.00
C1215  C     0.82004   0.57006   0.25007   0.00000  Uiso   1.00
C1216  C     0.93008   0.82004   0.74994   0.00000  Uiso   1.00
C1217  C     0.52417   0.77419   0.58083   0.00000  Uiso   1.00
C1218  C     0.56977   0.67985   0.25024   0.00000  Uiso   1.00
C1219  C     0.81916   0.57087   0.75068   0.00000  Uiso   1.00
C1220  C     0.67995   0.92994   0.25006   0.00000  Uiso   1.00
C1221  C     0.57000   0.67999   0.75005   0.00000  Uiso   1.00
C1222  C     0.93024   0.82024   0.25031   0.00000  Uiso   1.00
C1223  C     0.66070   0.86604   0.23837   0.00000  Uiso   1.00
C1224  C     0.86632   0.60617   0.78505   0.00000  Uiso   1.00
C1225  C     0.62083   0.64856   0.21798   0.00000  Uiso   1.00
C1226  C     0.88534   0.85802   0.78516   0.00000  Uiso   1.00
C1227  C     0.88371   0.58913   0.26230   0.00000  Uiso   1.00
C1228  C     0.78287   0.52120   0.41689   0.00000  Uiso   1.00
C1229  C     0.63432   0.89331   0.78526   0.00000  Uiso   1.00
C1230  C     0.87951   0.85219   0.21777   0.00000  Uiso   1.00
C1231  C     0.63191   0.65915   0.76756   0.00000  Uiso   1.00
C1232  C     0.65904   0.63203   0.76754   0.00000  Uiso   1.00
C1233  C     0.85163   0.87837   0.21832   0.00000  Uiso   1.00
C1234  C     0.60451   0.86984   0.78416   0.00000  Uiso   1.00
C1235  C     0.91079   0.61608   0.26216   0.00000  Uiso   1.00
C1236  C     0.85818   0.88493   0.78501   0.00000  Uiso   1.00
C1237  C     0.64885   0.62255   0.21865   0.00000  Uiso   1.00
C1238  C     0.89657   0.62903   0.78339   0.00000  Uiso   1.00
C1239  C     0.72926   0.98005   0.57923   0.00000  Uiso   1.00
C1240  C     0.63365   0.83908   0.23822   0.00000  Uiso   1.00
C1241  C     0.87936   0.64716   0.71694   0.00000  Uiso   1.00
C1242  C     0.58920   0.88392   0.26195   0.00000  Uiso   1.00
C1243  C     0.86410   0.89089   0.71425   0.00000  Uiso   1.00
C1244  C     0.62881   0.60179   0.28268   0.00000  Uiso   1.00
C1245  C     0.62200   0.85174   0.71781   0.00000  Uiso   1.00
C1246  C     0.86642   0.66088   0.23812   0.00000  Uiso   1.00
C1247  C     0.61814   0.59087   0.73243   0.00000  Uiso   1.00
C1248  C     0.87058   0.89795   0.28326   0.00000  Uiso   1.00
C1249  C     0.89762   0.87075   0.28340   0.00000  Uiso   1.00
C1250  C     0.73339   0.53120   0.91806   0.00000  Uiso   1.00
C1251  C     0.59096   0.61794   0.73259   0.00000  Uiso   1.00
C1252  C     0.83936   0.63396   0.23833   0.00000  Uiso   1.00
C1253  C     0.64523   0.88164   0.71623   0.00000  Uiso   1.00
C1254  C     0.60185   0.62901   0.28290   0.00000  Uiso   1.00
C1255  C     0.89162   0.86432   0.71442   0.00000  Uiso   1.00
C1256  C     0.61625   0.91089   0.26205   0.00000  Uiso   1.00
C1257  C     0.84970   0.62358   0.71839   0.00000  Uiso   1.00
C1258  C     0.97128   0.73408   0.45944   0.00000  Uiso   1.00
C1259  C     0.52923   0.76768   0.54065   0.00000  Uiso   1.00
C1260  C     0.78406   0.52259   0.45866   0.00000  Uiso   1.00
H1261  H     0.50354   0.82127   0.35506   0.00000  Uiso   1.00
H1262  H     0.95163   0.67290   0.57896   0.00000  Uiso   1.00
H1263  H     0.66856   0.51332   0.41366   0.00000  Uiso   1.00
H1264  H     0.68137   0.50533   0.36340   0.00000  Uiso   1.00
H1265  H     0.64412   0.98081   0.38413   0.00000  Uiso   1.00
H1266  H     0.70234   0.94262   0.37916   0.00000  Uiso   1.00
H1267  H     0.68141   0.94668   0.42575   0.00000  Uiso   1.00
H1268  H     0.82103   0.99540   0.65101   0.00000  Uiso   1.00
H1269  H     0.84252   0.98474   0.60479   0.00000  Uiso   1.00
H1270  H     0.86148   0.51868   0.63681   0.00000  Uiso   1.00
H1271  H     0.83295   0.55039   0.58629   0.00000  Uiso   1.00
H1272  H     0.99378   0.83817   0.40356   0.00000  Uiso   1.00
H1273  H     0.80368   0.55675   0.62721   0.00000  Uiso   1.00
H1274  H     0.99628   0.67903   0.35513   0.00000  Uiso   1.00
H1275  H     0.50670   0.66240   0.40359   0.00000  Uiso   1.00
H1276  H     0.97069   0.64225   0.37530   0.00000  Uiso   1.00
H1277  H     0.94194   0.67885   0.42163   0.00000  Uiso   1.00
H1278  H     0.93729   0.70406   0.37734   0.00000  Uiso   1.00
H1279  H     0.98936   0.83900   0.59300   0.00000  Uiso   1.00
H1280  H     0.99735   0.82206   0.64185   0.00000  Uiso   1.00
H1281  H     0.52272   0.86015   0.62411   0.00000  Uiso   1.00
H1282  H     0.55867   0.80030   0.62362   0.00000  Uiso   1.00
H1283  H     0.52951   0.85806   0.37468   0.00000  Uiso   1.00
H1284  H     0.55525   0.82468   0.57856   0.00000  Uiso   1.00
H1285  H     0.82260   0.59732   0.37401   0.00000  Uiso   1.00
H1286  H     0.77605   0.58521   0.36554   0.00000  Uiso   1.00
H1287  H     0.79073   0.59475   0.41395   0.00000  Uiso   1.00
H1288  H     0.83763   0.53792   0.40219   0.00000  Uiso   1.00
H1289  H     0.81246   0.52933   0.36203   0.00000  Uiso   1.00
H1290  H     0.68289   0.52849   0.61902   0.00000  Uiso   1.00
H1291  H     0.66926   0.52429   0.56862   0.00000  Uiso   1.00
H1292  H     0.64165   0.50492   0.60673   0.00000  Uiso   1.00
H1293  H     0.67476   0.95664   0.57405   0.00000  Uiso   1.00
H1294  H     0.55864   0.82146   0.42099   0.00000  Uiso   1.00
H1295  H     0.69166   0.96095   0.62272   0.00000  Uiso   1.00
H1296  H     0.72858   0.60548   0.94559   0.00000  Uiso   1.00
H1297  H     0.77273   0.59464   0.92519   0.00000  Uiso   1.00
H1298  H     0.74180   0.62470   0.89972   0.00000  Uiso   1.00
H1299  H     0.74151   0.56703   0.86785   0.00000  Uiso   1.00
H1300  H     0.69866   0.57213   0.88926   0.00000  Uiso   1.00
H1301  H     0.72624   0.91137   0.06813   0.00000  Uiso   1.00
H1302  H     0.77023   0.90001   0.04759   0.00000  Uiso   1.00
H1303  H     0.75565   0.87863   0.09185   0.00000  Uiso   1.00
H1304  H     0.80093   0.92901   0.10523   0.00000  Uiso   1.00
H1305  H     0.56278   0.79627   0.37666   0.00000  Uiso   1.00
H1306  H     0.75841   0.93405   0.12790   0.00000  Uiso   1.00
H1307  H     0.91154   0.75773   0.90906   0.00000  Uiso   1.00
H1308  H     0.92831   0.75151   0.85994   0.00000  Uiso   1.00
H1309  H     0.89151   0.72416   0.87730   0.00000  Uiso   1.00
H1310  H     0.95213   0.69007   0.87670   0.00000  Uiso   1.00
H1311  H     0.92855   0.69209   0.92215   0.00000  Uiso   1.00
H1312  H     0.57086   0.75549   0.14432   0.00000  Uiso   1.00
H1313  H     0.58793   0.74642   0.09579   0.00000  Uiso   1.00
H1314  H     0.60659   0.78285   0.12476   0.00000  Uiso   1.00
H1315  H     0.56906   0.81087   0.07836   0.00000  Uiso   1.00
H1316  H     0.51860   0.66285   0.57365   0.00000  Uiso   1.00
H1317  H     0.54416   0.81442   0.12283   0.00000  Uiso   1.00
H1318  H     0.73056   0.91277   0.95140   0.00000  Uiso   1.00
H1319  H     0.70470   0.93287   0.91200   0.00000  Uiso   1.00
H1320  H     0.72585   0.88857   0.90598   0.00000  Uiso   1.00
H1321  H     0.76245   0.93339   0.87168   0.00000  Uiso   1.00
H1322  H     0.78669   0.91677   0.91275   0.00000  Uiso   1.00
H1323  H     0.77904   0.56746   0.13795   0.00000  Uiso   1.00
H1324  H     0.78621   0.58302   0.08860   0.00000  Uiso   1.00
H1325  H     0.76310   0.61169   0.12335   0.00000  Uiso   1.00
H1326  H     0.71818   0.58786   0.08131   0.00000  Uiso   1.00
H1327  H     0.52393   0.67891   0.62312   0.00000  Uiso   1.00
H1328  H     0.71214   0.56379   0.12638   0.00000  Uiso   1.00
H1329  H     0.58930   0.73923   0.91433   0.00000  Uiso   1.00
H1330  H     0.57185   0.74064   0.86512   0.00000  Uiso   1.00
H1331  H     0.60952   0.76893   0.87857   0.00000  Uiso   1.00
H1332  H     0.55113   0.80526   0.87546   0.00000  Uiso   1.00
H1333  H     0.57323   0.80514   0.92180   0.00000  Uiso   1.00
H1334  H     0.92899   0.74524   0.14354   0.00000  Uiso   1.00
H1335  H     0.91207   0.75375   0.09482   0.00000  Uiso   1.00
H1336  H     0.89329   0.71768   0.12420   0.00000  Uiso   1.00
H1337  H     0.93101   0.68920   0.07821   0.00000  Uiso   1.00
H1338  H     0.99787   0.63847   0.61345   0.00000  Uiso   1.00
H1339  H     0.95555   0.68592   0.12297   0.00000  Uiso   1.00
H1340  H     0.95737   0.69195   0.62652   0.00000  Uiso   1.00
I1341  I     0.88733   0.72521   0.45123   0.00000  Uiso   1.00
I1342  I     0.65210   0.56144   0.05284   0.00000  Uiso   1.00
I1343  I     0.52616   0.86223   0.94707   0.00000  Uiso   1.00
I1344  I     0.98069   0.63561   0.05098   0.00000  Uiso   1.00
I1345  I     0.65159   0.56526   0.95077   0.00000  Uiso   1.00
I1346  I     0.85128   0.94192   0.04866   0.00000  Uiso   1.00
I1347  I     0.97673   0.63638   0.94812   0.00000  Uiso   1.00
I1348  I     0.51989   0.86419   0.04985   0.00000  Uiso   1.00
I1349  I     0.71474   0.85340   0.21916   0.00000  Uiso   1.00
I1350  I     0.84843   0.58556   0.84081   0.00000  Uiso   1.00
I1351  I     0.61375   0.68396   0.16884   0.00000  Uiso   1.00
I1352  I     0.61244   0.77935   0.55175   0.00000  Uiso   1.00
I1353  I     0.89953   0.83067   0.83845   0.00000  Uiso   1.00
I1354  I     0.89564   0.53502   0.28261   0.00000  Uiso   1.00
I1355  I     0.65376   0.91285   0.84070   0.00000  Uiso   1.00
I1356  I     0.88677   0.81730   0.16831   0.00000  Uiso   1.00
I1357  I     0.64105   0.71095   0.79477   0.00000  Uiso   1.00
I1358  I     0.71049   0.64116   0.79518   0.00000  Uiso   1.00
I1359  I     0.81264   0.88028   0.17255   0.00000  Uiso   1.00
I1360  I     0.56867   0.87140   0.83359   0.00000  Uiso   1.00
I1361  I     0.96477   0.60371   0.28200   0.00000  Uiso   1.00
I1362  I     0.83033   0.89801   0.83775   0.00000  Uiso   1.00
I1363  I     0.85257   0.57848   0.46502   0.00000  Uiso   1.00
I1364  I     0.68879   0.62260   0.17411   0.00000  Uiso   1.00
I1365  I     0.93400   0.62543   0.83148   0.00000  Uiso   1.00
I1366  I     0.64576   0.78480   0.21850   0.00000  Uiso   1.00
I1367  I     0.89123   0.67244   0.66188   0.00000  Uiso   1.00
I1368  I     0.53517   0.89630   0.28163   0.00000  Uiso   1.00
I1369  I     0.84766   0.91519   0.66025   0.00000  Uiso   1.00
I1370  I     0.63453   0.56556   0.33095   0.00000  Uiso   1.00
I1371  I     0.62516   0.81376   0.66967   0.00000  Uiso   1.00
I1372  I     0.85443   0.71512   0.21809   0.00000  Uiso   1.00
I1373  I     0.60916   0.53920   0.70486   0.00000  Uiso   1.00
I1374  I     0.71421   0.89256   0.55343   0.00000  Uiso   1.00
I1375  I     0.86372   0.93384   0.33206   0.00000  Uiso   1.00
I1376  I     0.93229   0.86388   0.33283   0.00000  Uiso   1.00
I1377  I     0.53934   0.60860   0.70540   0.00000  Uiso   1.00
I1378  I     0.78536   0.64669   0.21916   0.00000  Uiso   1.00
I1379  I     0.66524   0.89836   0.66046   0.00000  Uiso   1.00
I1380  I     0.56654   0.63540   0.33190   0.00000  Uiso   1.00
I1381  I     0.91896   0.85023   0.66122   0.00000  Uiso   1.00
I1382  I     0.60419   0.96507   0.28201   0.00000  Uiso   1.00
I1383  I     0.81070   0.62700   0.67092   0.00000  Uiso   1.00
I1384  I     0.61343   0.77409   0.44918   0.00000  Uiso   1.00
I1385  I     0.89119   0.71534   0.55367   0.00000  Uiso   1.00
I1386  I     0.72535   0.88788   0.45068   0.00000  Uiso   1.00
I1387  I     0.79863   0.60657   0.54541   0.00000  Uiso   1.00
I1388  I     0.84951   0.94371   0.94613   0.00000  Uiso   1.00
O1389  O     0.75000   0.50000   0.25000   0.00000  Uiso   1.00
O1390  O     0.75000   0.96964   0.66245   0.00000  Uiso   1.00
O1391  O     0.96964   0.75000   0.33755   0.00000  Uiso   1.00
O1392  O     0.53037   0.75000   0.66245   0.00000  Uiso   1.00
O1393  O     0.50000   0.71964   0.83755   0.00000  Uiso   1.00
O1394  O     0.50000   0.78037   0.16245   0.00000  Uiso   1.00
O1395  O     0.78037   0.50000   0.83755   0.00000  Uiso   1.00
O1396  O     0.71964   0.50000   0.16245   0.00000  Uiso   1.00
O1397  O     0.50000   0.78037   0.83755   0.00000  Uiso   1.00
O1398  O     0.50000   0.71964   0.16245   0.00000  Uiso   1.00
O1399  O     0.71964   0.50000   0.83755   0.00000  Uiso   1.00
O1400  O     0.75000   0.50000   0.75000   0.00000  Uiso   1.00
O1401  O     0.78037   0.50000   0.16245   0.00000  Uiso   1.00
O1402  O     0.70725   0.57308   0.27302   0.00000  Uiso   1.00
O1403  O     0.79276   0.92693   0.72698   0.00000  Uiso   1.00
O1404  O     0.92693   0.70725   0.27302   0.00000  Uiso   1.00
O1405  O     0.57308   0.79276   0.72698   0.00000  Uiso   1.00
O1406  O     0.79276   0.92693   0.27302   0.00000  Uiso   1.00
O1407  O     0.70725   0.57308   0.72698   0.00000  Uiso   1.00
O1408  O     0.57308   0.79276   0.27302   0.00000  Uiso   1.00
O1409  O     0.92693   0.70725   0.72698   0.00000  Uiso   1.00
O1410  O     0.70725   0.92693   0.72698   0.00000  Uiso   1.00
O1411  O     0.50000   0.75000   0.25000   0.00000  Uiso   1.00
O1412  O     0.79276   0.57308   0.27302   0.00000  Uiso   1.00
O1413  O     0.92693   0.79276   0.72698   0.00000  Uiso   1.00
O1414  O     0.57308   0.70725   0.27302   0.00000  Uiso   1.00
O1415  O     0.79276   0.57308   0.72698   0.00000  Uiso   1.00
O1416  O     0.70725   0.92693   0.27302   0.00000  Uiso   1.00
O1417  O     0.57308   0.70725   0.72698   0.00000  Uiso   1.00
O1418  O     0.92693   0.79276   0.27302   0.00000  Uiso   1.00
O1419  O     0.95725   0.82308   0.77302   0.00000  Uiso   1.00
O1420  O     0.54276   0.67693   0.22698   0.00000  Uiso   1.00
O1421  O     0.67693   0.95725   0.77302   0.00000  Uiso   1.00
O1422  O     0.50000   0.75000   0.75000   0.00000  Uiso   1.00
O1423  O     0.82308   0.54276   0.22698   0.00000  Uiso   1.00
O1424  O     0.54276   0.67693   0.77302   0.00000  Uiso   1.00
O1425  O     0.95725   0.82308   0.22698   0.00000  Uiso   1.00
O1426  O     0.82308   0.54276   0.77302   0.00000  Uiso   1.00
O1427  O     0.67693   0.95725   0.22698   0.00000  Uiso   1.00
O1428  O     0.95725   0.67693   0.22698   0.00000  Uiso   1.00
O1429  O     0.54276   0.82308   0.77302   0.00000  Uiso   1.00
O1430  O     0.67693   0.54276   0.22698   0.00000  Uiso   1.00
O1431  O     0.82308   0.95725   0.77302   0.00000  Uiso   1.00
O1432  O     0.54276   0.82308   0.22698   0.00000  Uiso   1.00
O1433  O     0.75000   0.96964   0.33755   0.00000  Uiso   1.00
O1434  O     0.95725   0.67693   0.77302   0.00000  Uiso   1.00
O1435  O     0.82308   0.95725   0.22698   0.00000  Uiso   1.00
O1436  O     0.67693   0.54276   0.77302   0.00000  Uiso   1.00
O1437  O     0.75000   0.53037   0.66245   0.00000  Uiso   1.00
O1438  O     0.53037   0.75000   0.33755   0.00000  Uiso   1.00
O1439  O     0.96964   0.75000   0.66245   0.00000  Uiso   1.00
O1440  O     0.75000   0.53037   0.33755   0.00000  Uiso   1.00
Zn1441 Zn    0.70660   0.50000   0.21735   0.00000  Uiso   1.00
Zn1442 Zn    0.54341   0.75000   0.28265   0.00000  Uiso   1.00
Zn1443 Zn    0.75000   0.95660   0.71735   0.00000  Uiso   1.00
Zn1444 Zn    0.75000   0.54341   0.28265   0.00000  Uiso   1.00
Zn1445 Zn    0.54341   0.75000   0.71735   0.00000  Uiso   1.00
Zn1446 Zn    0.95660   0.75000   0.28265   0.00000  Uiso   1.00
Zn1447 Zn    0.75000   0.54341   0.71735   0.00000  Uiso   1.00
Zn1448 Zn    0.75000   0.95660   0.28265   0.00000  Uiso   1.00
Zn1449 Zn    0.79341   0.50000   0.78265   0.00000  Uiso   1.00
Zn1450 Zn    0.50000   0.70660   0.21735   0.00000  Uiso   1.00
Zn1451 Zn    0.50000   0.79341   0.78265   0.00000  Uiso   1.00
Zn1452 Zn    0.79341   0.50000   0.21735   0.00000  Uiso   1.00
Zn1453 Zn    0.70660   0.50000   0.78265   0.00000  Uiso   1.00
Zn1454 Zn    0.50000   0.79341   0.21735   0.00000  Uiso   1.00
Zn1455 Zn    0.50000   0.70660   0.78265   0.00000  Uiso   1.00
Zn1456 Zn    0.95660   0.75000   0.71735   0.00000  Uiso   1.00
loop_
_geom_bond_atom_site_label_1
_geom_bond_atom_site_label_2
_geom_bond_distance
_geom_bond_site_symmetry_2
_ccdc_geom_bond_type
C1     C43     1.530   .     S
C1     C78     1.418   .     A
C1     C4      1.411   .     A
C2     C14     1.418   .     A
C2     C63     1.524   .     S
C2     C812    1.412   .     S
C3     C147    1.403   .     A
C3     C90     1.409   .     A
C3     C38     1.412   .     A
C4     C91     1.419   .     A
C4     C34     1.411   .     A
C5     C81     1.405   .     A
C5     C93     1.413   .     A
C5     C400    1.408   .     S
C6     C94     1.416   .     A
C6     C92     1.400   .     A
C6     C37     1.413   .     A
C7     C103    1.419   .     A
C7     C95     1.404   .     A
C7     C766    1.407   1_545 S
C8     C35     1.402   .     A
C8     C96     1.411   .     A
C8     C767    1.408   .     S
C9     C46     1.409   .     A
C9     C97     1.416   .     A
C9     C40     1.408   .     A
C10    C41     1.409   .     A
C10    C57     1.408   .     A
C10    C98     1.415   .     A
C11    C68     1.410   .     A
C11    C99     1.418   .     A
C11    C406    1.411   .     S
C12    C158    1.424   .     A
C12    C39     1.418   .     A
C12    C100    1.422   .     A
C13    C65     1.523   .     S
C13    C15     1.410   .     A
C13    C449    1.416   .     S
C14    C101    1.419   .     A
C14    C768    1.417   .     S
C15    C102    1.416   .     A
C15    C405    1.410   .     S
C16    C104    1.418   .     A
C16    C24     1.411   .     A
C16    C42     1.412   .     A
C17    C150    1.409   .     A
C17    C120    1.460   .     S
C17    C148    1.408   .     A
C18    C121    1.468   .     S
C18    C149    1.416   .     A
C18    C146    1.423   .     A
C19    C113    1.457   .     S
C19    C145    1.406   .     A
C19    C152    1.407   .     A
C20    C144    1.409   .     A
C20    C151    1.410   .     A
C20    C115    1.455   .     S
C21    C116    1.460   .     S
C21    C154    1.408   .     A
C21    C143    1.409   .     A
C22    C142    1.423   .     A
C22    C153    1.421   .     A
C22    C117    1.466   .     S
C23    C118    1.453   .     S
C23    C141    1.405   .     A
C23    C156    1.406   .     A
C24    C86     1.418   .     A
C24    C67     1.530   .     S
C25    C119    1.452   .     S
C25    C140    1.407   .     A
C25    C155    1.407   .     A
C26    C139    1.407   .     A
C26    C159    1.407   .     A
C26    C129    1.453   .     S
C27    C138    1.405   .     A
C27    C157    1.409   .     A
C27    C130    1.452   .     S
C28    C137    1.407   .     A
C28    C122    1.454   .     S
C28    C161    1.409   .     A
C29    C135    1.409   .     A
C29    C160    1.409   .     A
C29    C123    1.462   .     S
C30    C134    1.407   .     A
C30    C163    1.409   .     A
C30    C124    1.449   .     S
C31    C162    1.406   .     A
C31    C133    1.403   .     A
C31    C126    1.448   .     S
C32    C127    1.459   .     S
C32    C165    1.420   .     A
C32    C132    1.406   .     A
C33    C131    1.409   .     A
C33    C164    1.409   .     A
C33    C128    1.461   .     S
C34    C36     1.399   .     A
C34    C530    1.413   1_455 S
C35    C70     1.522   .     S
C35    C811    1.406   .     S
C36    C167    1.411   .     A
C36    C369    1.408   1_455 S
C37    C38     1.410   .     A
C37    C896    1.428   .     S
C38    C735    1.407   .     S
C39    C736    1.408   1_545 S
C39    C40     1.401   1_556 S
C40    C742    1.417   1_545 S
C40    C39     1.401   1_554 S
C41    C379    1.410   1_455 S
C41    C42     1.398   1_556 S
C42    C375    1.411   1_455 S
C42    C41     1.398   1_554 S
C43    C44     1.528   .     S
C43    H202    1.108   .     S
C43    H213    1.109   .     S
C44    H169    1.107   .     S
C44    H191    1.111   .     S
C44    H544    1.111   1_455 S
C45    H170    1.108   .     S
C45    C81     1.518   .     S
C45    H248    1.100   .     S
C45    C411    1.529   .     S
C46    C84     1.410   .     A
C46    C72     1.515   .     S
C47    H235    1.110   .     S
C47    H224    1.111   .     S
C47    C409    1.529   1_455 S
C47    H610    1.111   1_455 S
C48    H175    1.108   .     S
C48    H174    1.110   .     S
C48    C92     1.534   .     S
C48    C49     1.527   .     S
C49    H173    1.112   .     S
C49    H899    1.113   .     S
C49    H900    1.107   .     S
C50    C103    1.528   .     S
C50    H179    1.106   .     S
C50    C51     1.525   .     S
C50    H181    1.106   .     S
C51    H178    1.111   .     S
C51    H904    1.107   1_545 S
C51    H905    1.111   1_545 S
C52    H186    1.110   .     S
C52    C53     1.528   .     S
C52    C114    1.530   .     S
C52    H185    1.108   .     S
C53    H182    1.107   .     S
C53    H184    1.111   .     S
C53    H547    1.111   .     S
C54    C125    1.523   .     S
C54    H192    1.108   .     S
C54    C55     1.527   .     S
C54    H190    1.105   .     S
C55    H189    1.111   .     S
C55    H551    1.111   1_455 S
C55    H552    1.107   1_455 S
C56    C136    1.524   .     S
C56    C58     1.535   .     S
C56    H196    1.101   .     S
C56    H197    1.108   .     S
C57    C85     1.413   .     A
C57    C74     1.522   .     S
C58    H195    1.109   .     S
C58    H193    1.110   .     S
C58    H194    1.107   .     S
C59    C147    1.519   .     S
C59    H203    1.101   .     S
C59    H201    1.108   .     S
C59    C788    1.529   .     S
C60    H198    1.110   .     S
C60    H200    1.111   .     S
C60    H199    1.111   .     S
C60    C787    1.529   1_545 S
C61    C158    1.531   .     S
C61    H208    1.103   .     S
C61    C62     1.530   .     S
C61    H207    1.110   .     S
C62    H206    1.111   .     S
C62    H204    1.108   .     S
C62    H205    1.111   .     S
C63    H212    1.099   .     S
C63    H214    1.109   .     S
C63    C64     1.530   .     S
C64    H210    1.109   .     S
C64    H209    1.111   .     S
C64    H211    1.111   .     S
C65    H219    1.109   .     S
C65    H218    1.103   .     S
C65    C66     1.528   .     S
C66    H215    1.111   .     S
C66    H217    1.111   .     S
C66    H216    1.107   .     S
C67    H223    1.108   .     S
C67    H225    1.109   .     S
C67    C69     1.529   .     S
C68    C76     1.530   .     S
C68    C450    1.418   .     S
C69    H221    1.111   .     S
C69    H220    1.107   .     S
C69    H222    1.111   .     S
C70    H229    1.108   .     S
C70    C71     1.527   .     S
C70    H230    1.102   .     S
C71    H228    1.110   .     S
C71    H226    1.111   .     S
C71    H227    1.110   .     S
C72    H236    1.105   .     S
C72    C73     1.531   .     S
C72    H234    1.107   .     S
C73    H231    1.107   .     S
C73    H233    1.110   .     S
C73    H232    1.111   .     S
C74    H240    1.102   .     S
C74    H241    1.108   .     S
C74    C75     1.530   .     S
C75    H238    1.109   .     S
C75    H239    1.111   .     S
C75    H237    1.111   .     S
C76    H245    1.109   .     S
C76    H247    1.109   .     S
C76    C77     1.529   .     S
C77    H244    1.111   .     S
C77    H243    1.111   .     S
C77    H242    1.107   .     S
C78    C107    1.463   .     S
C78    C478    1.418   1_455 S
C79    C108    1.467   .     S
C79    C125    1.417   .     A
C79    C445    1.409   1_455 S
C80    C92     1.410   .     A
C80    C105    1.471   .     S
C80    C864    1.431   .     S
C81    C443    1.409   .     S
C82    C106    1.467   .     S
C82    C103    1.418   .     A
C82    C875    1.405   1_545 S
C83    C111    1.461   .     S
C83    C158    1.416   .     A
C83    C763    1.406   1_545 S
C84    C112    1.470   .     S
C84    C730    1.412   1_545 S
C85    C377    1.416   1_455 S
C85    C109    1.466   .     S
C86    C432    1.418   1_455 S
C86    C110    1.462   .     S
C87    I249    2.153   .     S
C87    C93     1.410   .     A
C87    C166    1.419   .     A
C88    C91     1.412   .     A
C88    C167    1.417   .     A
C88    I260    2.152   .     S
C89    C95     1.404   .     A
C89    C168    1.441   .     A
C89    I271    2.157   .     S
C90    I282    2.147   .     S
C90    C94     1.403   .     A
C91    I292    2.154   .     S
C93    I293    2.147   .     S
C94    I294    2.152   .     S
C95    I295    2.155   .     S
C96    I296    2.150   .     S
C96    C101    1.410   1_556 S
C97    I250    2.157   .     S
C97    C100    1.415   1_554 S
C98    I251    2.150   .     S
C98    C104    1.411   1_556 S
C99    I252    2.153   .     S
C99    C102    1.411   1_554 S
C100   I253    2.148   .     S
C100   C97     1.415   1_556 S
C101   I254    2.147   .     S
C101   C96     1.410   1_554 S
C102   I255    2.151   .     S
C102   C99     1.411   1_556 S
C104   I256    2.153   .     S
C104   C98     1.411   1_554 S
C105   O341    1.280   .     A
C105   O1076   1.280   .     S
C106   O345    1.274   .     A
C106   O1026   1.284   1_545 S
C107   O346    1.281   .     A
C107   O663    1.282   1_455 S
C108   O300    1.278   .     A
C108   O711    1.286   1_455 S
C109   O301    1.278   .     S
C109   O305    1.281   .     S
C110   O302    1.278   .     S
C110   O306    1.279   .     S
C111   O303    1.281   .     S
C111   O307    1.279   .     S
C112   O304    1.284   .     S
C112   O309    1.281   .     S
C113   O310    1.280   .     A
C113   O338    1.283   .     A
C114   C166    1.411   .     A
C114   C442    1.418   .     S
C115   O311    1.279   .     A
C115   O339    1.283   .     A
C116   O336    1.281   .     A
C116   O312    1.280   .     A
C117   O337    1.285   .     A
C117   O313    1.282   .     A
C118   O314    1.279   .     A
C118   O343    1.282   .     A
C119   O344    1.280   .     A
C119   O315    1.281   .     A
C120   O340    1.280   .     A
C120   O316    1.280   .     A
C121   O317    1.288   .     A
C121   O342    1.278   .     A
C122   O329    1.281   .     A
C122   O318    1.278   .     A
C123   O331    1.281   .     A
C123   O320    1.281   .     A
C124   O321    1.279   .     A
C124   O327    1.280   .     A
C125   C167    1.414   .     A
C126   O322    1.279   .     A
C126   O328    1.279   .     A
C127   O323    1.269   .     A
C127   O334    1.292   .     A
C128   O335    1.280   .     A
C128   O324    1.280   .     A
C129   O332    1.281   .     A
C129   O325    1.280   .     A
C130   O333    1.281   .     A
C130   O326    1.280   .     A
C131   I257    2.142   .     S
C131   C148    1.405   .     A
C132   I258    2.164   .     S
C132   C146    1.397   .     A
C133   C145    1.399   .     A
C133   I259    2.144   .     S
C134   I261    2.150   .     S
C134   C144    1.399   .     A
C135   C143    1.405   .     A
C135   I262    2.143   .     S
C136   C168    1.437   .     A
C136   C808    1.431   1_545 S
C137   C142    1.397   .     A
C137   I263    2.158   .     S
C138   C141    1.399   .     A
C138   I264    2.143   .     S
C139   C140    1.403   .     A
C139   I265    2.143   .     S
C140   I266    2.144   .     S
C141   I267    2.128   .     S
C142   I268    2.151   .     S
C143   I269    2.143   .     S
C144   I270    2.136   .     S
C145   I272    2.122   .     S
C146   I273    2.154   .     S
C147   C810    1.405   .     S
C148   I274    2.144   .     S
C149   C165    1.396   .     A
C149   I275    2.153   .     S
C150   I276    2.144   .     S
C150   C164    1.405   .     A
C151   C163    1.399   .     A
C151   I277    2.143   .     S
C152   I278    2.134   .     S
C152   C162    1.401   .     A
C153   C161    1.393   .     A
C153   I279    2.165   .     S
C154   I280    2.145   .     S
C154   C160    1.404   .     A
C155   C159    1.403   .     A
C155   I281    2.144   .     S
C156   I283    2.145   .     S
C156   C157    1.403   .     A
C157   I284    2.137   .     S
C159   I285    2.143   .     S
C160   I286    2.139   .     S
C161   I287    2.144   .     S
C162   I288    2.139   .     S
C163   I289    2.149   .     S
C164   I290    2.143   .     S
C165   I291    2.174   .     S
C166   C398    1.413   .     S
C168   C765    1.428   1_545 S
H171   C777    1.113   1_545 S
H172   C777    1.107   1_545 S
H176   C779    1.107   .     S
H177   C779    1.111   .     S
H180   C408    1.111   .     S
H183   C417    1.111   1_455 S
H187   C419    1.111   .     S
H188   C419    1.107   .     S
H246   C411    1.111   .     S
O297   Zn1084  1.945   1_545 S
O297   Zn360   1.951   .     S
O297   Zn349   1.950   .     S
O297   Zn352   1.946   .     S
O298   Zn351   1.947   .     S
O298   C834    1.284   .     S
O299   Zn354   1.947   .     S
O299   C471    1.282   .     S
O300   Zn353   1.947   .     S
O301   Zn363   1.947   .     S
O302   Zn362   1.947   .     S
O303   Zn357   1.947   .     S
O304   Zn349   1.947   .     S
O305   Zn359   1.947   .     S
O306   Zn358   1.947   .     S
O307   Zn361   1.947   .     S
O308   Zn1079  1.946   1_545 S
O308   Zn355   1.945   .     S
O308   Zn357   1.950   .     S
O308   Zn361   1.951   .     S
O309   Zn360   1.947   .     S
O310   Zn352   1.933   .     S
O311   Zn351   1.933   .     S
O312   Zn354   1.941   .     S
O313   Zn353   1.941   .     S
O314   Zn356   1.934   .     S
O315   Zn355   1.934   .     S
O316   Zn350   1.941   .     S
O317   Zn364   1.941   .     S
O318   Zn351   1.944   .     S
O319   Zn350   1.950   .     S
O319   Zn358   1.946   .     S
O319   Zn718   1.951   1_455 S
O319   Zn362   1.945   .     S
O320   Zn352   1.944   .     S
O321   Zn364   1.931   .     S
O322   Zn350   1.931   .     S
O323   Zn355   1.944   .     S
O324   Zn356   1.944   .     S
O325   Zn353   1.931   .     S
O326   Zn354   1.931   .     S
O327   Zn723   1.933   .     S
O328   Zn358   1.933   .     S
O329   Zn1089  1.941   .     S
O330   Zn359   1.946   .     S
O330   Zn363   1.945   .     S
O330   Zn353   1.951   .     S
O330   Zn728   1.950   1_455 S
O331   Zn360   1.941   .     S
O332   Zn363   1.934   .     S
O333   Zn726   1.934   .     S
O334   Zn357   1.941   .     S
O335   Zn1077  1.941   .     S
O336   Zn722   1.944   .     S
O337   Zn359   1.944   .     S
O338   Zn349   1.931   .     S
O339   Zn1085  1.931   .     S
O340   Zn362   1.944   .     S
O341   Zn356   1.947   .     S
O342   Zn727   1.944   .     S
O343   Zn1088  1.931   .     S
O344   Zn361   1.931   .     S
O345   Zn355   1.947   .     S
O346   Zn350   1.947   .     S
O347   Zn364   1.947   .     S
O347   C472    1.286   .     S
O348   Zn352   1.947   .     S
O348   C833    1.280   1_545 S
Zn349  O1063   1.941   1_545 S
Zn351  O1036   1.946   .     S
Zn354  O683    1.951   .     S
Zn356  O1025   1.945   .     S
Zn357  O1067   1.931   1_545 S
Zn358  O700    1.944   1_455 S
Zn359  O691    1.933   1_455 S
Zn360  O1071   1.931   1_545 S
Zn361  O1057   1.941   1_545 S
Zn362  O697    1.934   1_455 S
Zn363  O706    1.944   1_455 S
Zn364  O694    1.950   .     S
C365   C407    1.530   .     S
C365   C442    1.418   .     A
C365   C368    1.411   .     A
C366   C378    1.418   .     A
C366   C427    1.524   .     S
C366   C1176   1.412   .     S
C367   C511    1.403   .     A
C367   C454    1.409   .     A
C367   C402    1.412   .     A
C368   C455    1.419   .     A
C368   C398    1.411   .     A
C369   C445    1.405   .     A
C369   C457    1.413   .     A
C369   C36     1.408   1_655 S
C370   C458    1.416   .     A
C370   C456    1.400   .     A
C370   C401    1.413   .     A
C371   C467    1.419   .     A
C371   C459    1.404   .     A
C371   C1130   1.407   1_545 S
C372   C399    1.402   .     A
C372   C460    1.411   .     A
C372   C1131   1.408   .     S
C373   C410    1.409   .     A
C373   C461    1.416   .     A
C373   C404    1.408   .     A
C374   C405    1.409   .     A
C374   C421    1.408   .     A
C374   C462    1.415   .     A
C375   C432    1.410   .     A
C375   C463    1.418   .     A
C375   C42     1.411   1_655 S
C376   C522    1.424   .     A
C376   C403    1.418   .     A
C376   C464    1.422   .     A
C377   C429    1.523   .     S
C377   C379    1.410   .     A
C377   C85     1.416   1_655 S
C378   C465    1.419   .     A
C378   C1132   1.417   .     S
C379   C466    1.416   .     A
C379   C41     1.410   1_655 S
C380   C468    1.418   .     A
C380   C388    1.411   .     A
C380   C406    1.412   .     A
C381   C514    1.409   .     A
C381   C484    1.460   .     S
C381   C512    1.408   .     A
C382   C485    1.468   .     S
C382   C513    1.416   .     A
C382   C510    1.423   .     A
C383   C477    1.457   .     S
C383   C509    1.406   .     A
C383   C516    1.407   .     A
C384   C508    1.409   .     A
C384   C515    1.410   .     A
C384   C479    1.455   .     S
C385   C480    1.460   .     S
C385   C518    1.408   .     A
C385   C507    1.409   .     A
C386   C506    1.423   .     A
C386   C517    1.421   .     A
C386   C481    1.466   .     S
C387   C482    1.453   .     S
C387   C505    1.405   .     A
C387   C520    1.406   .     A
C388   C450    1.418   .     A
C388   C431    1.530   .     S
C389   C483    1.452   .     S
C389   C504    1.407   .     A
C389   C519    1.407   .     A
C390   C503    1.407   .     A
C390   C523    1.407   .     A
C390   C493    1.453   .     S
C391   C502    1.405   .     A
C391   C521    1.409   .     A
C391   C494    1.452   .     S
C392   C501    1.407   .     A
C392   C486    1.454   .     S
C392   C525    1.409   .     A
C393   C499    1.409   .     A
C393   C524    1.409   .     A
C393   C487    1.462   .     S
C394   C498    1.407   .     A
C394   C527    1.409   .     A
C394   C488    1.449   .     S
C395   C526    1.406   .     A
C395   C497    1.403   .     A
C395   C490    1.448   .     S
C396   C491    1.459   .     S
C396   C529    1.420   .     A
C396   C496    1.406   .     A
C397   C495    1.409   .     A
C397   C528    1.409   .     A
C397   C492    1.461   .     S
C398   C400    1.399   .     A
C399   C434    1.522   .     S
C399   C1175   1.406   .     S
C400   C531    1.411   .     A
C401   C402    1.410   .     A
C401   C1260   1.428   .     S
C402   C1099   1.407   .     S
C403   C1100   1.408   1_545 S
C403   C404    1.401   1_556 S
C404   C1106   1.417   1_545 S
C404   C403    1.401   1_554 S
C405   C406    1.398   1_556 S
C406   C405    1.398   1_554 S
C407   C408    1.528   .     S
C407   H566    1.108   .     S
C407   H577    1.109   .     S
C408   H533    1.107   .     S
C408   H555    1.111   .     S
C409   H534    1.108   .     S
C409   C445    1.518   .     S
C409   H612    1.100   .     S
C409   C47     1.529   1_655 S
C410   C448    1.410   .     A
C410   C436    1.515   .     S
C411   H599    1.110   .     S
C411   H588    1.111   .     S
C412   H539    1.108   .     S
C412   H538    1.110   .     S
C412   C456    1.534   .     S
C412   C413    1.527   .     S
C413   H537    1.112   .     S
C413   H1263   1.113   .     S
C413   H1264   1.107   .     S
C414   C467    1.528   .     S
C414   H543    1.106   .     S
C414   C415    1.525   .     S
C414   H545    1.106   .     S
C415   H542    1.111   .     S
C415   H1268   1.107   1_545 S
C415   H1269   1.111   1_545 S
C416   H550    1.110   .     S
C416   C417    1.528   .     S
C416   C478    1.530   .     S
C416   H549    1.108   .     S
C417   H546    1.107   .     S
C417   H548    1.111   .     S
C417   H183    1.111   1_655 S
C418   C489    1.523   .     S
C418   H556    1.108   .     S
C418   C419    1.527   .     S
C418   H554    1.105   .     S
C419   H553    1.111   .     S
C420   C500    1.524   .     S
C420   C422    1.535   .     S
C420   H560    1.101   .     S
C420   H561    1.108   .     S
C421   C449    1.413   .     A
C421   C438    1.522   .     S
C422   H559    1.109   .     S
C422   H557    1.110   .     S
C422   H558    1.107   .     S
C423   C511    1.519   .     S
C423   H567    1.101   .     S
C423   H565    1.108   .     S
C423   C1152   1.529   .     S
C424   H562    1.110   .     S
C424   H564    1.111   .     S
C424   H563    1.111   .     S
C424   C1151   1.529   1_545 S
C425   C522    1.531   .     S
C425   H572    1.103   .     S
C425   C426    1.530   .     S
C425   H571    1.110   .     S
C426   H570    1.111   .     S
C426   H568    1.108   .     S
C426   H569    1.111   .     S
C427   H576    1.099   .     S
C427   H578    1.109   .     S
C427   C428    1.530   .     S
C428   H574    1.109   .     S
C428   H573    1.111   .     S
C428   H575    1.111   .     S
C429   H583    1.109   .     S
C429   H582    1.103   .     S
C429   C430    1.528   .     S
C430   H579    1.111   .     S
C430   H581    1.111   .     S
C430   H580    1.107   .     S
C431   H587    1.108   .     S
C431   H589    1.109   .     S
C431   C433    1.529   .     S
C432   C440    1.530   .     S
C432   C86     1.418   1_655 S
C433   H585    1.111   .     S
C433   H584    1.107   .     S
C433   H586    1.111   .     S
C434   H593    1.108   .     S
C434   C435    1.527   .     S
C434   H594    1.102   .     S
C435   H592    1.110   .     S
C435   H590    1.111   .     S
C435   H591    1.110   .     S
C436   H600    1.105   .     S
C436   C437    1.531   .     S
C436   H598    1.107   .     S
C437   H595    1.107   .     S
C437   H597    1.110   .     S
C437   H596    1.111   .     S
C438   H604    1.102   .     S
C438   H605    1.108   .     S
C438   C439    1.530   .     S
C439   H602    1.109   .     S
C439   H603    1.111   .     S
C439   H601    1.111   .     S
C440   H609    1.109   .     S
C440   H611    1.109   .     S
C440   C441    1.529   .     S
C441   H608    1.111   .     S
C441   H607    1.111   .     S
C441   H606    1.107   .     S
C442   C471    1.463   .     S
C443   C472    1.467   .     S
C443   C489    1.417   .     A
C444   C456    1.410   .     A
C444   C469    1.471   .     S
C444   C1228   1.431   .     S
C445   C79     1.409   1_655 S
C446   C470    1.467   .     S
C446   C467    1.418   .     A
C446   C1239   1.405   1_545 S
C447   C475    1.461   .     S
C447   C522    1.416   .     A
C447   C1127   1.406   1_545 S
C448   C476    1.470   .     S
C448   C1094   1.412   1_545 S
C449   C473    1.466   .     S
C450   C474    1.462   .     S
C451   I613    2.153   .     S
C451   C457    1.410   .     A
C451   C530    1.419   .     A
C452   C455    1.412   .     A
C452   C531    1.417   .     A
C452   I624    2.152   .     S
C453   C459    1.404   .     A
C453   C532    1.441   .     A
C453   I635    2.157   .     S
C454   I646    2.147   .     S
C454   C458    1.403   .     A
C455   I656    2.154   .     S
C457   I657    2.147   .     S
C458   I658    2.152   .     S
C459   I659    2.155   .     S
C460   I660    2.150   .     S
C460   C465    1.410   1_556 S
C461   I614    2.157   .     S
C461   C464    1.415   1_554 S
C462   I615    2.150   .     S
C462   C468    1.411   1_556 S
C463   I616    2.153   .     S
C463   C466    1.411   1_554 S
C464   I617    2.148   .     S
C464   C461    1.415   1_556 S
C465   I618    2.147   .     S
C465   C460    1.410   1_554 S
C466   I619    2.151   .     S
C466   C463    1.411   1_556 S
C468   I620    2.153   .     S
C468   C462    1.411   1_554 S
C469   O705    1.280   .     A
C469   O1440   1.280   .     S
C470   O709    1.274   .     A
C470   O1390   1.284   1_545 S
C471   O710    1.281   .     A
C472   O664    1.278   .     A
C473   O665    1.278   .     S
C473   O669    1.281   .     S
C474   O666    1.278   .     S
C474   O670    1.279   .     S
C475   O667    1.281   .     S
C475   O671    1.279   .     S
C476   O668    1.284   .     S
C476   O673    1.281   .     S
C477   O674    1.280   .     A
C477   O702    1.283   .     A
C478   C530    1.411   .     A
C478   C78     1.418   1_655 S
C479   O675    1.279   .     A
C479   O703    1.283   .     A
C480   O700    1.281   .     A
C480   O676    1.280   .     A
C481   O701    1.285   .     A
C481   O677    1.282   .     A
C482   O678    1.279   .     A
C482   O707    1.282   .     A
C483   O708    1.280   .     A
C483   O679    1.281   .     A
C484   O704    1.280   .     A
C484   O680    1.280   .     A
C485   O681    1.288   .     A
C485   O706    1.278   .     A
C486   O693    1.281   .     A
C486   O682    1.278   .     A
C487   O695    1.281   .     A
C487   O684    1.281   .     A
C488   O685    1.279   .     A
C488   O691    1.280   .     A
C489   C531    1.414   .     A
C490   O686    1.279   .     A
C490   O692    1.279   .     A
C491   O687    1.269   .     A
C491   O698    1.292   .     A
C492   O699    1.280   .     A
C492   O688    1.280   .     A
C493   O696    1.281   .     A
C493   O689    1.280   .     A
C494   O697    1.281   .     A
C494   O690    1.280   .     A
C495   I621    2.142   .     S
C495   C512    1.405   .     A
C496   I622    2.164   .     S
C496   C510    1.397   .     A
C497   C509    1.399   .     A
C497   I623    2.144   .     S
C498   I625    2.150   .     S
C498   C508    1.399   .     A
C499   C507    1.405   .     A
C499   I626    2.143   .     S
C500   C532    1.437   .     A
C500   C1172   1.431   1_545 S
C501   C506    1.397   .     A
C501   I627    2.158   .     S
C502   C505    1.399   .     A
C502   I628    2.143   .     S
C503   C504    1.403   .     A
C503   I629    2.143   .     S
C504   I630    2.144   .     S
C505   I631    2.128   .     S
C506   I632    2.151   .     S
C507   I633    2.143   .     S
C508   I634    2.136   .     S
C509   I636    2.122   .     S
C510   I637    2.154   .     S
C511   C1174   1.405   .     S
C512   I638    2.144   .     S
C513   C529    1.396   .     A
C513   I639    2.153   .     S
C514   I640    2.144   .     S
C514   C528    1.405   .     A
C515   C527    1.399   .     A
C515   I641    2.143   .     S
C516   I642    2.134   .     S
C516   C526    1.401   .     A
C517   C525    1.393   .     A
C517   I643    2.165   .     S
C518   I644    2.145   .     S
C518   C524    1.404   .     A
C519   C523    1.403   .     A
C519   I645    2.144   .     S
C520   I647    2.145   .     S
C520   C521    1.403   .     A
C521   I648    2.137   .     S
C523   I649    2.143   .     S
C524   I650    2.139   .     S
C525   I651    2.144   .     S
C526   I652    2.139   .     S
C527   I653    2.149   .     S
C528   I654    2.143   .     S
C529   I655    2.174   .     S
C530   C34     1.413   1_655 S
C532   C1129   1.428   1_545 S
H535   C1141   1.113   1_545 S
H536   C1141   1.107   1_545 S
H540   C1143   1.107   .     S
H541   C1143   1.111   .     S
H544   C44     1.111   1_655 S
H551   C55     1.111   1_655 S
H552   C55     1.107   1_655 S
H610   C47     1.111   1_655 S
O661   Zn1448  1.945   1_545 S
O661   Zn724   1.951   .     S
O661   Zn713   1.950   .     S
O661   Zn716   1.946   .     S
O662   Zn715   1.947   .     S
O662   C1198   1.284   .     S
O663   Zn718   1.947   .     S
O663   C107    1.282   1_655 S
O664   Zn717   1.947   .     S
O665   Zn727   1.947   .     S
O666   Zn726   1.947   .     S
O667   Zn721   1.947   .     S
O668   Zn713   1.947   .     S
O669   Zn723   1.947   .     S
O670   Zn722   1.947   .     S
O671   Zn725   1.947   .     S
O672   Zn1443  1.946   1_545 S
O672   Zn719   1.945   .     S
O672   Zn721   1.950   .     S
O672   Zn725   1.951   .     S
O673   Zn724   1.947   .     S
O674   Zn716   1.933   .     S
O675   Zn715   1.933   .     S
O676   Zn718   1.941   .     S
O677   Zn717   1.941   .     S
O678   Zn720   1.934   .     S
O679   Zn719   1.934   .     S
O680   Zn714   1.941   .     S
O681   Zn728   1.941   .     S
O682   Zn715   1.944   .     S
O683   Zn714   1.950   .     S
O683   Zn722   1.946   .     S
O683   Zn726   1.945   .     S
O684   Zn716   1.944   .     S
O685   Zn728   1.931   .     S
O686   Zn714   1.931   .     S
O687   Zn719   1.944   .     S
O688   Zn720   1.944   .     S
O689   Zn717   1.931   .     S
O690   Zn718   1.931   .     S
O691   Zn359   1.933   1_655 S
O692   Zn722   1.933   .     S
O693   Zn1453  1.941   .     S
O694   Zn723   1.946   .     S
O694   Zn727   1.945   .     S
O694   Zn717   1.951   .     S
O695   Zn724   1.941   .     S
O696   Zn727   1.934   .     S
O697   Zn362   1.934   1_655 S
O698   Zn721   1.941   .     S
O699   Zn1441  1.941   .     S
O700   Zn358   1.944   1_655 S
O701   Zn723   1.944   .     S
O702   Zn713   1.931   .     S
O703   Zn1449  1.931   .     S
O704   Zn726   1.944   .     S
O705   Zn720   1.947   .     S
O706   Zn363   1.944   1_655 S
O707   Zn1452  1.931   .     S
O708   Zn725   1.931   .     S
O709   Zn719   1.947   .     S
O710   Zn714   1.947   .     S
O711   Zn728   1.947   .     S
O711   C108    1.286   1_655 S
O712   Zn716   1.947   .     S
O712   C1197   1.280   1_545 S
Zn713  O1427   1.941   1_545 S
Zn715  O1400   1.946   .     S
Zn718  O319    1.951   1_655 S
Zn720  O1389   1.945   .     S
Zn721  O1431   1.931   1_545 S
Zn724  O1435   1.931   1_545 S
Zn725  O1421   1.941   1_545 S
Zn728  O330    1.950   1_655 S
C729   C771    1.530   .     S
C729   C806    1.418   .     A
C729   C732    1.411   .     A
C730   C742    1.418   .     A
C730   C791    1.524   .     S
C730   C84     1.412   1_565 S
C731   C875    1.403   .     A
C731   C818    1.409   .     A
C731   C766    1.412   .     A
C732   C819    1.419   .     A
C732   C762    1.411   .     A
C733   C809    1.405   .     A
C733   C821    1.413   .     A
C733   C1128   1.408   .     S
C734   C822    1.416   .     A
C734   C820    1.400   .     A
C734   C765    1.413   .     A
C735   C831    1.419   .     A
C735   C823    1.404   .     A
C736   C763    1.402   .     A
C736   C824    1.411   .     A
C736   C39     1.408   1_565 S
C737   C774    1.409   .     A
C737   C825    1.416   .     A
C737   C768    1.408   .     A
C738   C769    1.409   .     A
C738   C785    1.408   .     A
C738   C826    1.415   .     A
C739   C796    1.410   .     A
C739   C827    1.418   .     A
C739   C1134   1.411   .     S
C740   C886    1.424   .     A
C740   C767    1.418   .     A
C740   C828    1.422   .     A
C741   C793    1.523   .     S
C741   C743    1.410   .     A
C741   C1177   1.416   .     S
C742   C829    1.419   .     A
C742   C40     1.417   1_565 S
C743   C830    1.416   .     A
C743   C1133   1.410   .     S
C744   C832    1.418   .     A
C744   C752    1.411   .     A
C744   C770    1.412   .     A
C745   C878    1.409   .     A
C745   C848    1.460   .     S
C745   C876    1.408   .     A
C746   C849    1.468   .     S
C746   C877    1.416   .     A
C746   C874    1.423   .     A
C747   C841    1.457   .     S
C747   C873    1.406   .     A
C747   C880    1.407   .     A
C748   C872    1.409   .     A
C748   C879    1.410   .     A
C748   C843    1.455   .     S
C749   C844    1.460   .     S
C749   C882    1.408   .     A
C749   C871    1.409   .     A
C750   C870    1.423   .     A
C750   C881    1.421   .     A
C750   C845    1.466   .     S
C751   C846    1.453   .     S
C751   C869    1.405   .     A
C751   C884    1.406   .     A
C752   C814    1.418   .     A
C752   C795    1.530   .     S
C753   C847    1.452   .     S
C753   C868    1.407   .     A
C753   C883    1.407   .     A
C754   C867    1.407   .     A
C754   C887    1.407   .     A
C754   C857    1.453   .     S
C755   C866    1.405   .     A
C755   C885    1.409   .     A
C755   C858    1.452   .     S
C756   C865    1.407   .     A
C756   C850    1.454   .     S
C756   C889    1.409   .     A
C757   C863    1.409   .     A
C757   C888    1.409   .     A
C757   C851    1.462   .     S
C758   C862    1.407   .     A
C758   C891    1.409   .     A
C758   C852    1.449   .     S
C759   C890    1.406   .     A
C759   C861    1.403   .     A
C759   C854    1.448   .     S
C760   C855    1.459   .     S
C760   C893    1.420   .     A
C760   C860    1.406   .     A
C761   C859    1.409   .     A
C761   C892    1.409   .     A
C761   C856    1.461   .     S
C762   C764    1.399   .     A
C762   C1258   1.413   1_455 S
C763   C798    1.522   .     S
C763   C83     1.406   1_565 S
C764   C895    1.411   .     A
C764   C1097   1.408   1_455 S
C765   C766    1.410   .     A
C765   C168    1.428   1_565 S
C766   C7      1.407   1_565 S
C767   C768    1.401   1_556 S
C768   C767    1.401   1_554 S
C769   C1107   1.410   1_455 S
C769   C770    1.398   1_556 S
C770   C1103   1.411   1_455 S
C770   C769    1.398   1_554 S
C771   C772    1.528   .     S
C771   H930    1.108   .     S
C771   H941    1.109   .     S
C772   H897    1.107   .     S
C772   H919    1.111   .     S
C772   H1272   1.111   1_455 S
C773   H898    1.108   .     S
C773   C809    1.518   .     S
C773   H976    1.100   .     S
C773   C1139   1.529   .     S
C774   C812    1.410   .     A
C774   C800    1.515   .     S
C775   H963    1.110   .     S
C775   H952    1.111   .     S
C775   C1137   1.529   1_455 S
C775   H1338   1.111   1_455 S
C776   H903    1.108   .     S
C776   H902    1.110   .     S
C776   C820    1.534   .     S
C776   C777    1.527   .     S
C777   H901    1.112   .     S
C777   H171    1.113   1_565 S
C777   H172    1.107   1_565 S
C778   C831    1.528   .     S
C778   H907    1.106   .     S
C778   C779    1.525   .     S
C778   H909    1.106   .     S
C779   H906    1.111   .     S
C780   H914    1.110   .     S
C780   C781    1.528   .     S
C780   C842    1.530   .     S
C780   H913    1.108   .     S
C781   H910    1.107   .     S
C781   H912    1.111   .     S
C781   H1275   1.111   .     S
C782   C853    1.523   .     S
C782   H920    1.108   .     S
C782   C783    1.527   .     S
C782   H918    1.105   .     S
C783   H917    1.111   .     S
C783   H1279   1.111   1_455 S
C783   H1280   1.107   1_455 S
C784   C864    1.524   .     S
C784   C786    1.535   .     S
C784   H924    1.101   .     S
C784   H925    1.108   .     S
C785   C813    1.413   .     A
C785   C802    1.522   .     S
C786   H923    1.109   .     S
C786   H921    1.110   .     S
C786   H922    1.107   .     S
C787   C875    1.519   .     S
C787   H931    1.101   .     S
C787   H929    1.108   .     S
C787   C60     1.529   1_565 S
C788   H926    1.110   .     S
C788   H928    1.111   .     S
C788   H927    1.111   .     S
C789   C886    1.531   .     S
C789   H936    1.103   .     S
C789   C790    1.530   .     S
C789   H935    1.110   .     S
C790   H934    1.111   .     S
C790   H932    1.108   .     S
C790   H933    1.111   .     S
C791   H940    1.099   .     S
C791   H942    1.109   .     S
C791   C792    1.530   .     S
C792   H938    1.109   .     S
C792   H937    1.111   .     S
C792   H939    1.111   .     S
C793   H947    1.109   .     S
C793   H946    1.103   .     S
C793   C794    1.528   .     S
C794   H943    1.111   .     S
C794   H945    1.111   .     S
C794   H944    1.107   .     S
C795   H951    1.108   .     S
C795   H953    1.109   .     S
C795   C797    1.529   .     S
C796   C804    1.530   .     S
C796   C1178   1.418   .     S
C797   H949    1.111   .     S
C797   H948    1.107   .     S
C797   H950    1.111   .     S
C798   H957    1.108   .     S
C798   C799    1.527   .     S
C798   H958    1.102   .     S
C799   H956    1.110   .     S
C799   H954    1.111   .     S
C799   H955    1.110   .     S
C800   H964    1.105   .     S
C800   C801    1.531   .     S
C800   H962    1.107   .     S
C801   H959    1.107   .     S
C801   H961    1.110   .     S
C801   H960    1.111   .     S
C802   H968    1.102   .     S
C802   H969    1.108   .     S
C802   C803    1.530   .     S
C803   H966    1.109   .     S
C803   H967    1.111   .     S
C803   H965    1.111   .     S
C804   H973    1.109   .     S
C804   H975    1.109   .     S
C804   C805    1.529   .     S
C805   H972    1.111   .     S
C805   H971    1.111   .     S
C805   H970    1.107   .     S
C806   C835    1.463   .     S
C806   C1206   1.418   1_455 S
C807   C836    1.467   .     S
C807   C853    1.417   .     A
C807   C1173   1.409   1_455 S
C808   C820    1.410   .     A
C808   C833    1.471   .     S
C808   C136    1.431   1_565 S
C809   C1171   1.409   .     S
C810   C834    1.467   .     S
C810   C831    1.418   .     A
C811   C839    1.461   .     S
C811   C886    1.416   .     A
C812   C840    1.470   .     S
C813   C1105   1.416   1_455 S
C813   C837    1.466   .     S
C814   C1160   1.418   1_455 S
C814   C838    1.462   .     S
C815   I977    2.153   .     S
C815   C821    1.410   .     A
C815   C894    1.419   .     A
C816   C819    1.412   .     A
C816   C895    1.417   .     A
C816   I988    2.152   .     S
C817   C823    1.404   .     A
C817   C896    1.441   .     A
C817   I999    2.157   .     S
C818   I1010   2.147   .     S
C818   C822    1.403   .     A
C819   I1020   2.154   .     S
C821   I1021   2.147   .     S
C822   I1022   2.152   .     S
C823   I1023   2.155   .     S
C824   I1024   2.150   .     S
C824   C829    1.410   1_556 S
C825   I978    2.157   .     S
C825   C828    1.415   1_554 S
C826   I979    2.150   .     S
C826   C832    1.411   1_556 S
C827   I980    2.153   .     S
C827   C830    1.411   1_554 S
C828   I981    2.148   .     S
C828   C825    1.415   1_556 S
C829   I982    2.147   .     S
C829   C824    1.410   1_554 S
C830   I983    2.151   .     S
C830   C827    1.411   1_556 S
C832   I984    2.153   .     S
C832   C826    1.411   1_554 S
C833   O1069   1.280   .     A
C833   O348    1.280   1_565 S
C834   O1073   1.274   .     A
C835   O1074   1.281   .     A
C835   O1391   1.282   1_455 S
C836   O1028   1.278   .     A
C836   O1439   1.286   1_455 S
C837   O1029   1.278   .     S
C837   O1033   1.281   .     S
C838   O1030   1.278   .     S
C838   O1034   1.279   .     S
C839   O1031   1.281   .     S
C839   O1035   1.279   .     S
C840   O1032   1.284   .     S
C840   O1037   1.281   .     S
C841   O1038   1.280   .     A
C841   O1066   1.283   .     A
C842   C894    1.411   .     A
C842   C1170   1.418   .     S
C843   O1039   1.279   .     A
C843   O1067   1.283   .     A
C844   O1064   1.281   .     A
C844   O1040   1.280   .     A
C845   O1065   1.285   .     A
C845   O1041   1.282   .     A
C846   O1042   1.279   .     A
C846   O1071   1.282   .     A
C847   O1072   1.280   .     A
C847   O1043   1.281   .     A
C848   O1068   1.280   .     A
C848   O1044   1.280   .     A
C849   O1045   1.288   .     A
C849   O1070   1.278   .     A
C850   O1057   1.281   .     A
C850   O1046   1.278   .     A
C851   O1059   1.281   .     A
C851   O1048   1.281   .     A
C852   O1049   1.279   .     A
C852   O1055   1.280   .     A
C853   C895    1.414   .     A
C854   O1050   1.279   .     A
C854   O1056   1.279   .     A
C855   O1051   1.269   .     A
C855   O1062   1.292   .     A
C856   O1063   1.280   .     A
C856   O1052   1.280   .     A
C857   O1060   1.281   .     A
C857   O1053   1.280   .     A
C858   O1061   1.281   .     A
C858   O1054   1.280   .     A
C859   I985    2.142   .     S
C859   C876    1.405   .     A
C860   I986    2.164   .     S
C860   C874    1.397   .     A
C861   C873    1.399   .     A
C861   I987    2.144   .     S
C862   I989    2.150   .     S
C862   C872    1.399   .     A
C863   C871    1.405   .     A
C863   I990    2.143   .     S
C864   C896    1.437   .     A
C865   C870    1.397   .     A
C865   I991    2.158   .     S
C866   C869    1.399   .     A
C866   I992    2.143   .     S
C867   C868    1.403   .     A
C867   I993    2.143   .     S
C868   I994    2.144   .     S
C869   I995    2.128   .     S
C870   I996    2.151   .     S
C871   I997    2.143   .     S
C872   I998    2.136   .     S
C873   I1000   2.122   .     S
C874   I1001   2.154   .     S
C875   C82     1.405   1_565 S
C876   I1002   2.144   .     S
C877   C893    1.396   .     A
C877   I1003   2.153   .     S
C878   I1004   2.144   .     S
C878   C892    1.405   .     A
C879   C891    1.399   .     A
C879   I1005   2.143   .     S
C880   I1006   2.134   .     S
C880   C890    1.401   .     A
C881   C889    1.393   .     A
C881   I1007   2.165   .     S
C882   I1008   2.145   .     S
C882   C888    1.404   .     A
C883   C887    1.403   .     A
C883   I1009   2.144   .     S
C884   I1011   2.145   .     S
C884   C885    1.403   .     A
C885   I1012   2.137   .     S
C887   I1013   2.143   .     S
C888   I1014   2.139   .     S
C889   I1015   2.144   .     S
C890   I1016   2.139   .     S
C891   I1017   2.149   .     S
C892   I1018   2.143   .     S
C893   I1019   2.174   .     S
C894   C1126   1.413   .     S
H904   C51     1.107   1_565 S
H905   C51     1.111   1_565 S
H908   C1136   1.111   .     S
H911   C1145   1.111   1_455 S
H915   C1147   1.111   .     S
H916   C1147   1.107   .     S
H974   C1139   1.111   .     S
O1025  Zn1088  1.951   .     S
O1025  Zn1077  1.950   .     S
O1025  Zn1080  1.946   .     S
O1026  Zn1079  1.947   .     S
O1026  C106    1.284   1_565 S
O1027  Zn1082  1.947   .     S
O1027  C1199   1.282   .     S
O1028  Zn1081  1.947   .     S
O1029  Zn1091  1.947   .     S
O1030  Zn1090  1.947   .     S
O1031  Zn1085  1.947   .     S
O1032  Zn1077  1.947   .     S
O1033  Zn1087  1.947   .     S
O1034  Zn1086  1.947   .     S
O1035  Zn1089  1.947   .     S
O1036  Zn1083  1.945   .     S
O1036  Zn1085  1.950   .     S
O1036  Zn1089  1.951   .     S
O1037  Zn1088  1.947   .     S
O1038  Zn1080  1.933   .     S
O1039  Zn1079  1.933   .     S
O1040  Zn1082  1.941   .     S
O1041  Zn1081  1.941   .     S
O1042  Zn1084  1.934   .     S
O1043  Zn1083  1.934   .     S
O1044  Zn1078  1.941   .     S
O1045  Zn1092  1.941   .     S
O1046  Zn1079  1.944   .     S
O1047  Zn1078  1.950   .     S
O1047  Zn1086  1.946   .     S
O1047  Zn1446  1.951   1_455 S
O1047  Zn1090  1.945   .     S
O1048  Zn1080  1.944   .     S
O1049  Zn1092  1.931   .     S
O1050  Zn1078  1.931   .     S
O1051  Zn1083  1.944   .     S
O1052  Zn1084  1.944   .     S
O1053  Zn1081  1.931   .     S
O1054  Zn1082  1.931   .     S
O1055  Zn1451  1.933   .     S
O1056  Zn1086  1.933   .     S
O1057  Zn361   1.941   1_565 S
O1058  Zn1087  1.946   .     S
O1058  Zn1091  1.945   .     S
O1058  Zn1081  1.951   .     S
O1058  Zn1456  1.950   1_455 S
O1059  Zn1088  1.941   .     S
O1060  Zn1091  1.934   .     S
O1061  Zn1454  1.934   .     S
O1062  Zn1085  1.941   .     S
O1063  Zn349   1.941   1_565 S
O1064  Zn1450  1.944   .     S
O1065  Zn1087  1.944   .     S
O1066  Zn1077  1.931   .     S
O1067  Zn357   1.931   1_565 S
O1068  Zn1090  1.944   .     S
O1069  Zn1084  1.947   .     S
O1070  Zn1455  1.944   .     S
O1071  Zn360   1.931   1_565 S
O1072  Zn1089  1.931   .     S
O1073  Zn1083  1.947   .     S
O1074  Zn1078  1.947   .     S
O1075  Zn1092  1.947   .     S
O1075  C1200   1.286   .     S
O1076  Zn1080  1.947   .     S
Zn1079 O308    1.946   1_565 S
Zn1082 O1411   1.951   .     S
Zn1084 O297    1.945   1_565 S
Zn1086 O1428   1.944   1_455 S
Zn1087 O1419   1.933   1_455 S
Zn1090 O1425   1.934   1_455 S
Zn1091 O1434   1.944   1_455 S
Zn1092 O1422   1.950   .     S
C1093  C1135   1.530   .     S
C1093  C1170   1.418   .     A
C1093  C1096   1.411   .     A
C1094  C1106   1.418   .     A
C1094  C1155   1.524   .     S
C1094  C448    1.412   1_565 S
C1095  C1239   1.403   .     A
C1095  C1182   1.409   .     A
C1095  C1130   1.412   .     A
C1096  C1183   1.419   .     A
C1096  C1126   1.411   .     A
C1097  C1173   1.405   .     A
C1097  C1185   1.413   .     A
C1097  C764    1.408   1_655 S
C1098  C1186   1.416   .     A
C1098  C1184   1.400   .     A
C1098  C1129   1.413   .     A
C1099  C1195   1.419   .     A
C1099  C1187   1.404   .     A
C1100  C1127   1.402   .     A
C1100  C1188   1.411   .     A
C1100  C403    1.408   1_565 S
C1101  C1138   1.409   .     A
C1101  C1189   1.416   .     A
C1101  C1132   1.408   .     A
C1102  C1133   1.409   .     A
C1102  C1149   1.408   .     A
C1102  C1190   1.415   .     A
C1103  C1160   1.410   .     A
C1103  C1191   1.418   .     A
C1103  C770    1.411   1_655 S
C1104  C1250   1.424   .     A
C1104  C1131   1.418   .     A
C1104  C1192   1.422   .     A
C1105  C1157   1.523   .     S
C1105  C1107   1.410   .     A
C1105  C813    1.416   1_655 S
C1106  C1193   1.419   .     A
C1106  C404    1.417   1_565 S
C1107  C1194   1.416   .     A
C1107  C769    1.410   1_655 S
C1108  C1196   1.418   .     A
C1108  C1116   1.411   .     A
C1108  C1134   1.412   .     A
C1109  C1242   1.409   .     A
C1109  C1212   1.460   .     S
C1109  C1240   1.408   .     A
C1110  C1213   1.468   .     S
C1110  C1241   1.416   .     A
C1110  C1238   1.423   .     A
C1111  C1205   1.457   .     S
C1111  C1237   1.406   .     A
C1111  C1244   1.407   .     A
C1112  C1236   1.409   .     A
C1112  C1243   1.410   .     A
C1112  C1207   1.455   .     S
C1113  C1208   1.460   .     S
C1113  C1246   1.408   .     A
C1113  C1235   1.409   .     A
C1114  C1234   1.423   .     A
C1114  C1245   1.421   .     A
C1114  C1209   1.466   .     S
C1115  C1210   1.453   .     S
C1115  C1233   1.405   .     A
C1115  C1248   1.406   .     A
C1116  C1178   1.418   .     A
C1116  C1159   1.530   .     S
C1117  C1211   1.452   .     S
C1117  C1232   1.407   .     A
C1117  C1247   1.407   .     A
C1118  C1231   1.407   .     A
C1118  C1251   1.407   .     A
C1118  C1221   1.453   .     S
C1119  C1230   1.405   .     A
C1119  C1249   1.409   .     A
C1119  C1222   1.452   .     S
C1120  C1229   1.407   .     A
C1120  C1214   1.454   .     S
C1120  C1253   1.409   .     A
C1121  C1227   1.409   .     A
C1121  C1252   1.409   .     A
C1121  C1215   1.462   .     S
C1122  C1226   1.407   .     A
C1122  C1255   1.409   .     A
C1122  C1216   1.449   .     S
C1123  C1254   1.406   .     A
C1123  C1225   1.403   .     A
C1123  C1218   1.448   .     S
C1124  C1219   1.459   .     S
C1124  C1257   1.420   .     A
C1124  C1224   1.406   .     A
C1125  C1223   1.409   .     A
C1125  C1256   1.409   .     A
C1125  C1220   1.461   .     S
C1126  C1128   1.399   .     A
C1127  C1162   1.522   .     S
C1127  C447    1.406   1_565 S
C1128  C1259   1.411   .     A
C1129  C1130   1.410   .     A
C1129  C532    1.428   1_565 S
C1130  C371    1.407   1_565 S
C1131  C1132   1.401   1_556 S
C1132  C1131   1.401   1_554 S
C1133  C1134   1.398   1_556 S
C1134  C1133   1.398   1_554 S
C1135  C1136   1.528   .     S
C1135  H1294   1.108   .     S
C1135  H1305   1.109   .     S
C1136  H1261   1.107   .     S
C1136  H1283   1.111   .     S
C1137  H1262   1.108   .     S
C1137  C1173   1.518   .     S
C1137  H1340   1.100   .     S
C1137  C775    1.529   1_655 S
C1138  C1176   1.410   .     A
C1138  C1164   1.515   .     S
C1139  H1327   1.110   .     S
C1139  H1316   1.111   .     S
C1140  H1267   1.108   .     S
C1140  H1266   1.110   .     S
C1140  C1184   1.534   .     S
C1140  C1141   1.527   .     S
C1141  H1265   1.112   .     S
C1141  H535    1.113   1_565 S
C1141  H536    1.107   1_565 S
C1142  C1195   1.528   .     S
C1142  H1271   1.106   .     S
C1142  C1143   1.525   .     S
C1142  H1273   1.106   .     S
C1143  H1270   1.111   .     S
C1144  H1278   1.110   .     S
C1144  C1145   1.528   .     S
C1144  C1206   1.530   .     S
C1144  H1277   1.108   .     S
C1145  H1274   1.107   .     S
C1145  H1276   1.111   .     S
C1145  H911    1.111   1_655 S
C1146  C1217   1.523   .     S
C1146  H1284   1.108   .     S
C1146  C1147   1.527   .     S
C1146  H1282   1.105   .     S
C1147  H1281   1.111   .     S
C1148  C1228   1.524   .     S
C1148  C1150   1.535   .     S
C1148  H1288   1.101   .     S
C1148  H1289   1.108   .     S
C1149  C1177   1.413   .     A
C1149  C1166   1.522   .     S
C1150  H1287   1.109   .     S
C1150  H1285   1.110   .     S
C1150  H1286   1.107   .     S
C1151  C1239   1.519   .     S
C1151  H1295   1.101   .     S
C1151  H1293   1.108   .     S
C1151  C424    1.529   1_565 S
C1152  H1290   1.110   .     S
C1152  H1292   1.111   .     S
C1152  H1291   1.111   .     S
C1153  C1250   1.531   .     S
C1153  H1300   1.103   .     S
C1153  C1154   1.530   .     S
C1153  H1299   1.110   .     S
C1154  H1298   1.111   .     S
C1154  H1296   1.108   .     S
C1154  H1297   1.111   .     S
C1155  H1304   1.099   .     S
C1155  H1306   1.109   .     S
C1155  C1156   1.530   .     S
C1156  H1302   1.109   .     S
C1156  H1301   1.111   .     S
C1156  H1303   1.111   .     S
C1157  H1311   1.109   .     S
C1157  H1310   1.103   .     S
C1157  C1158   1.528   .     S
C1158  H1307   1.111   .     S
C1158  H1309   1.111   .     S
C1158  H1308   1.107   .     S
C1159  H1315   1.108   .     S
C1159  H1317   1.109   .     S
C1159  C1161   1.529   .     S
C1160  C1168   1.530   .     S
C1160  C814    1.418   1_655 S
C1161  H1313   1.111   .     S
C1161  H1312   1.107   .     S
C1161  H1314   1.111   .     S
C1162  H1321   1.108   .     S
C1162  C1163   1.527   .     S
C1162  H1322   1.102   .     S
C1163  H1320   1.110   .     S
C1163  H1318   1.111   .     S
C1163  H1319   1.110   .     S
C1164  H1328   1.105   .     S
C1164  C1165   1.531   .     S
C1164  H1326   1.107   .     S
C1165  H1323   1.107   .     S
C1165  H1325   1.110   .     S
C1165  H1324   1.111   .     S
C1166  H1332   1.102   .     S
C1166  H1333   1.108   .     S
C1166  C1167   1.530   .     S
C1167  H1330   1.109   .     S
C1167  H1331   1.111   .     S
C1167  H1329   1.111   .     S
C1168  H1337   1.109   .     S
C1168  H1339   1.109   .     S
C1168  C1169   1.529   .     S
C1169  H1336   1.111   .     S
C1169  H1335   1.111   .     S
C1169  H1334   1.107   .     S
C1170  C1199   1.463   .     S
C1171  C1200   1.467   .     S
C1171  C1217   1.417   .     A
C1172  C1184   1.410   .     A
C1172  C1197   1.471   .     S
C1172  C500    1.431   1_565 S
C1173  C807    1.409   1_655 S
C1174  C1198   1.467   .     S
C1174  C1195   1.418   .     A
C1175  C1203   1.461   .     S
C1175  C1250   1.416   .     A
C1176  C1204   1.470   .     S
C1177  C1201   1.466   .     S
C1178  C1202   1.462   .     S
C1179  I1341   2.153   .     S
C1179  C1185   1.410   .     A
C1179  C1258   1.419   .     A
C1180  C1183   1.412   .     A
C1180  C1259   1.417   .     A
C1180  I1352   2.152   .     S
C1181  C1187   1.404   .     A
C1181  C1260   1.441   .     A
C1181  I1363   2.157   .     S
C1182  I1374   2.147   .     S
C1182  C1186   1.403   .     A
C1183  I1384   2.154   .     S
C1185  I1385   2.147   .     S
C1186  I1386   2.152   .     S
C1187  I1387   2.155   .     S
C1188  I1388   2.150   .     S
C1188  C1193   1.410   1_556 S
C1189  I1342   2.157   .     S
C1189  C1192   1.415   1_554 S
C1190  I1343   2.150   .     S
C1190  C1196   1.411   1_556 S
C1191  I1344   2.153   .     S
C1191  C1194   1.411   1_554 S
C1192  I1345   2.148   .     S
C1192  C1189   1.415   1_556 S
C1193  I1346   2.147   .     S
C1193  C1188   1.410   1_554 S
C1194  I1347   2.151   .     S
C1194  C1191   1.411   1_556 S
C1196  I1348   2.153   .     S
C1196  C1190   1.411   1_554 S
C1197  O1433   1.280   .     A
C1197  O712    1.280   1_565 S
C1198  O1437   1.274   .     A
C1199  O1438   1.281   .     A
C1200  O1392   1.278   .     A
C1201  O1393   1.278   .     S
C1201  O1397   1.281   .     S
C1202  O1394   1.278   .     S
C1202  O1398   1.279   .     S
C1203  O1395   1.281   .     S
C1203  O1399   1.279   .     S
C1204  O1396   1.284   .     S
C1204  O1401   1.281   .     S
C1205  O1402   1.280   .     A
C1205  O1430   1.283   .     A
C1206  C1258   1.411   .     A
C1206  C806    1.418   1_655 S
C1207  O1403   1.279   .     A
C1207  O1431   1.283   .     A
C1208  O1428   1.281   .     A
C1208  O1404   1.280   .     A
C1209  O1429   1.285   .     A
C1209  O1405   1.282   .     A
C1210  O1406   1.279   .     A
C1210  O1435   1.282   .     A
C1211  O1436   1.280   .     A
C1211  O1407   1.281   .     A
C1212  O1432   1.280   .     A
C1212  O1408   1.280   .     A
C1213  O1409   1.288   .     A
C1213  O1434   1.278   .     A
C1214  O1421   1.281   .     A
C1214  O1410   1.278   .     A
C1215  O1423   1.281   .     A
C1215  O1412   1.281   .     A
C1216  O1413   1.279   .     A
C1216  O1419   1.280   .     A
C1217  C1259   1.414   .     A
C1218  O1414   1.279   .     A
C1218  O1420   1.279   .     A
C1219  O1415   1.269   .     A
C1219  O1426   1.292   .     A
C1220  O1427   1.280   .     A
C1220  O1416   1.280   .     A
C1221  O1424   1.281   .     A
C1221  O1417   1.280   .     A
C1222  O1425   1.281   .     A
C1222  O1418   1.280   .     A
C1223  I1349   2.142   .     S
C1223  C1240   1.405   .     A
C1224  I1350   2.164   .     S
C1224  C1238   1.397   .     A
C1225  C1237   1.399   .     A
C1225  I1351   2.144   .     S
C1226  I1353   2.150   .     S
C1226  C1236   1.399   .     A
C1227  C1235   1.405   .     A
C1227  I1354   2.143   .     S
C1228  C1260   1.437   .     A
C1229  C1234   1.397   .     A
C1229  I1355   2.158   .     S
C1230  C1233   1.399   .     A
C1230  I1356   2.143   .     S
C1231  C1232   1.403   .     A
C1231  I1357   2.143   .     S
C1232  I1358   2.144   .     S
C1233  I1359   2.128   .     S
C1234  I1360   2.151   .     S
C1235  I1361   2.143   .     S
C1236  I1362   2.136   .     S
C1237  I1364   2.122   .     S
C1238  I1365   2.154   .     S
C1239  C446    1.405   1_565 S
C1240  I1366   2.144   .     S
C1241  C1257   1.396   .     A
C1241  I1367   2.153   .     S
C1242  I1368   2.144   .     S
C1242  C1256   1.405   .     A
C1243  C1255   1.399   .     A
C1243  I1369   2.143   .     S
C1244  I1370   2.134   .     S
C1244  C1254   1.401   .     A
C1245  C1253   1.393   .     A
C1245  I1371   2.165   .     S
C1246  I1372   2.145   .     S
C1246  C1252   1.404   .     A
C1247  C1251   1.403   .     A
C1247  I1373   2.144   .     S
C1248  I1375   2.145   .     S
C1248  C1249   1.403   .     A
C1249  I1376   2.137   .     S
C1251  I1377   2.143   .     S
C1252  I1378   2.139   .     S
C1253  I1379   2.144   .     S
C1254  I1380   2.139   .     S
C1255  I1381   2.149   .     S
C1256  I1382   2.143   .     S
C1257  I1383   2.174   .     S
C1258  C762    1.413   1_655 S
H1268  C415    1.107   1_565 S
H1269  C415    1.111   1_565 S
H1272  C772    1.111   1_655 S
H1279  C783    1.111   1_655 S
H1280  C783    1.107   1_655 S
H1338  C775    1.111   1_655 S
O1389  Zn1452  1.951   .     S
O1389  Zn1441  1.950   .     S
O1389  Zn1444  1.946   .     S
O1390  Zn1443  1.947   .     S
O1390  C470    1.284   1_565 S
O1391  Zn1446  1.947   .     S
O1391  C835    1.282   1_655 S
O1392  Zn1445  1.947   .     S
O1393  Zn1455  1.947   .     S
O1394  Zn1454  1.947   .     S
O1395  Zn1449  1.947   .     S
O1396  Zn1441  1.947   .     S
O1397  Zn1451  1.947   .     S
O1398  Zn1450  1.947   .     S
O1399  Zn1453  1.947   .     S
O1400  Zn1447  1.945   .     S
O1400  Zn1449  1.950   .     S
O1400  Zn1453  1.951   .     S
O1401  Zn1452  1.947   .     S
O1402  Zn1444  1.933   .     S
O1403  Zn1443  1.933   .     S
O1404  Zn1446  1.941   .     S
O1405  Zn1445  1.941   .     S
O1406  Zn1448  1.934   .     S
O1407  Zn1447  1.934   .     S
O1408  Zn1442  1.941   .     S
O1409  Zn1456  1.941   .     S
O1410  Zn1443  1.944   .     S
O1411  Zn1442  1.950   .     S
O1411  Zn1450  1.946   .     S
O1411  Zn1454  1.945   .     S
O1412  Zn1444  1.944   .     S
O1413  Zn1456  1.931   .     S
O1414  Zn1442  1.931   .     S
O1415  Zn1447  1.944   .     S
O1416  Zn1448  1.944   .     S
O1417  Zn1445  1.931   .     S
O1418  Zn1446  1.931   .     S
O1419  Zn1087  1.933   1_655 S
O1420  Zn1450  1.933   .     S
O1421  Zn725   1.941   1_565 S
O1422  Zn1451  1.946   .     S
O1422  Zn1455  1.945   .     S
O1422  Zn1445  1.951   .     S
O1423  Zn1452  1.941   .     S
O1424  Zn1455  1.934   .     S
O1425  Zn1090  1.934   1_655 S
O1426  Zn1449  1.941   .     S
O1427  Zn713   1.941   1_565 S
O1428  Zn1086  1.944   1_655 S
O1429  Zn1451  1.944   .     S
O1430  Zn1441  1.931   .     S
O1431  Zn721   1.931   1_565 S
O1432  Zn1454  1.944   .     S
O1433  Zn1448  1.947   .     S
O1434  Zn1091  1.944   1_655 S
O1435  Zn724   1.931   1_565 S
O1436  Zn1453  1.931   .     S
O1437  Zn1447  1.947   .     S
O1438  Zn1442  1.947   .     S
O1439  Zn1456  1.947   .     S
O1439  C836    1.286   1_655 S
O1440  Zn1444  1.947   .     S
Zn1443 O672    1.946   1_565 S
Zn1446 O1047   1.951   1_655 S
Zn1448 O661    1.945   1_565 S
Zn1456 O1058   1.950   1_655 S
