data_str_m2_o1_o2_pcu_sym.143
_audit_creation_date              2020-01-03
_audit_creation_method            'Materials Studio'
_symmetry_space_group_name_H-M    'P1'
_symmetry_Int_Tables_number       1
_symmetry_cell_setting            triclinic
loop_
_symmetry_equiv_pos_as_xyz
  x,y,z
_cell_length_a                    32.2748
_cell_length_b                    29.0706
_cell_length_c                    30.2631
_cell_angle_alpha                 90.0000
_cell_angle_beta                  95.0041
_cell_angle_gamma                 90.0000
loop_
_atom_site_label
_atom_site_type_symbol
_atom_site_fract_x
_atom_site_fract_y
_atom_site_fract_z
_atom_site_U_iso_or_equiv
_atom_site_adp_type
_atom_site_occupancy
C1     C     0.08771   0.16667   0.24992   0.00000  Uiso   1.00
C2     C     0.24562   0.16667   0.25008   0.00000  Uiso   1.00
C3     C     0.16645   0.16665   0.16514   0.00000  Uiso   1.00
C4     C     0.16688   0.16665   0.33486   0.00000  Uiso   1.00
C5     C     0.13944   0.02472   0.22114   0.00000  Uiso   1.00
C6     C     0.19408   0.30864   0.27866   0.00000  Uiso   1.00
C7     C     0.19389   0.02472   0.27886   0.00000  Uiso   1.00
C8     C     0.13925   0.30864   0.22134   0.00000  Uiso   1.00
C9     C     0.02533   0.16660   0.29084   0.00000  Uiso   1.00
C10    C     0.30801   0.16660   0.20916   0.00000  Uiso   1.00
C11    C     0.31507   0.16669   0.29119   0.00000  Uiso   1.00
C12    C     0.01826   0.16669   0.20881   0.00000  Uiso   1.00
C13    C     0.15394   0.20573   0.04642   0.00000  Uiso   1.00
C14    C     0.15422   0.12708   0.45109   0.00000  Uiso   1.00
C15    C     0.17939   0.20573   0.45358   0.00000  Uiso   1.00
C16    C     0.17912   0.12708   0.04891   0.00000  Uiso   1.00
C17    C     0.15417   0.20591   0.09237   0.00000  Uiso   1.00
C18    C     0.15458   0.12705   0.40517   0.00000  Uiso   1.00
C19    C     0.17917   0.20591   0.40763   0.00000  Uiso   1.00
C20    C     0.17876   0.12705   0.09483   0.00000  Uiso   1.00
C21    C     0.16644   0.16654   0.11684   0.00000  Uiso   1.00
C22    C     0.16689   0.16654   0.38316   0.00000  Uiso   1.00
C23    C     0.16658   0.16638   0.02430   0.00000  Uiso   1.00
C24    C     0.16675   0.16638   0.47569   0.00000  Uiso   1.00
C25    C     0.29040   0.16667   0.25027   0.00000  Uiso   1.00
C26    C     0.04293   0.16667   0.24973   0.00000  Uiso   1.00
Cu27   Cu    0.16667   0.21355   0.25000   0.00000  Uiso   1.00
Cu28   Cu    0.16667   0.11978   0.25000   0.00000  Uiso   1.00
H29    H     0.14342   0.23621   0.02818   0.00000  Uiso   1.00
H30    H     0.14363   0.09655   0.46725   0.00000  Uiso   1.00
H31    H     0.18992   0.23621   0.47182   0.00000  Uiso   1.00
H32    H     0.18970   0.09655   0.03275   0.00000  Uiso   1.00
H33    H     0.14424   0.23665   0.10864   0.00000  Uiso   1.00
H34    H     0.14463   0.09638   0.38689   0.00000  Uiso   1.00
H35    H     0.18909   0.23665   0.39136   0.00000  Uiso   1.00
H36    H     0.18871   0.09638   0.11311   0.00000  Uiso   1.00
N37    N     0.16667   0.28402   0.25000   0.00000  Uiso   1.00
N38    N     0.16667   0.04931   0.25000   0.00000  Uiso   1.00
O39    O     0.10655   0.20625   0.24999   0.00000  Uiso   1.00
O40    O     0.22679   0.12709   0.25000   0.00000  Uiso   1.00
O41    O     0.22679   0.20625   0.25000   0.00000  Uiso   1.00
O42    O     0.10655   0.12709   0.24999   0.00000  Uiso   1.00
O43    O     0.16666   0.20626   0.18573   0.00000  Uiso   1.00
O44    O     0.16667   0.12707   0.31427   0.00000  Uiso   1.00
O45    O     0.16667   0.20626   0.31427   0.00000  Uiso   1.00
O46    O     0.16666   0.12707   0.18573   0.00000  Uiso   1.00
C47    C     0.10871   0.04860   0.18776   0.00000  Uiso   1.00
H48    H     0.10850   0.08581   0.18818   0.00000  Uiso   1.00
H49    H     0.11538   0.03930   0.15354   0.00000  Uiso   1.00
H50    H     0.07644   0.03849   0.19334   0.00000  Uiso   1.00
C51    C     0.22588   0.28479   0.31088   0.00000  Uiso   1.00
H52    H     0.22474   0.24761   0.31196   0.00000  Uiso   1.00
H53    H     0.25778   0.29349   0.30263   0.00000  Uiso   1.00
H54    H     0.22182   0.29561   0.34536   0.00000  Uiso   1.00
C55    C     0.22462   0.04860   0.31224   0.00000  Uiso   1.00
H56    H     0.22483   0.08581   0.31182   0.00000  Uiso   1.00
H57    H     0.21796   0.03930   0.34646   0.00000  Uiso   1.00
H58    H     0.25689   0.03849   0.30666   0.00000  Uiso   1.00
C59    C     0.10746   0.28479   0.18911   0.00000  Uiso   1.00
H60    H     0.10859   0.24761   0.18804   0.00000  Uiso   1.00
H61    H     0.07556   0.29349   0.19737   0.00000  Uiso   1.00
H62    H     0.11152   0.29561   0.15464   0.00000  Uiso   1.00
C63    C     0.05397   0.16639   0.33355   0.00000  Uiso   1.00
H64    H     0.07392   0.13523   0.33454   0.00000  Uiso   1.00
H65    H     0.07412   0.19741   0.33475   0.00000  Uiso   1.00
H66    H     0.03785   0.16634   0.36430   0.00000  Uiso   1.00
C67    C     0.27936   0.16640   0.16645   0.00000  Uiso   1.00
H68    H     0.25922   0.19742   0.16525   0.00000  Uiso   1.00
H69    H     0.29548   0.16634   0.13570   0.00000  Uiso   1.00
H70    H     0.25941   0.13523   0.16545   0.00000  Uiso   1.00
C71    C     0.29530   0.16679   0.33500   0.00000  Uiso   1.00
H72    H     0.26088   0.16696   0.33157   0.00000  Uiso   1.00
H73    H     0.30490   0.13548   0.35426   0.00000  Uiso   1.00
H74    H     0.30514   0.19801   0.35428   0.00000  Uiso   1.00
C75    C     0.03804   0.16679   0.16500   0.00000  Uiso   1.00
H76    H     0.07245   0.16696   0.16843   0.00000  Uiso   1.00
H77    H     0.02843   0.13548   0.14574   0.00000  Uiso   1.00
H78    H     0.02819   0.19801   0.14572   0.00000  Uiso   1.00
C79    C     0.42104   0.16667   0.24992   0.00000  Uiso   1.00
C80    C     0.57896   0.16667   0.25008   0.00000  Uiso   1.00
C81    C     0.49979   0.16665   0.16514   0.00000  Uiso   1.00
C82    C     0.50021   0.16665   0.33486   0.00000  Uiso   1.00
C83    C     0.47277   0.02472   0.22114   0.00000  Uiso   1.00
C84    C     0.52741   0.30864   0.27866   0.00000  Uiso   1.00
C85    C     0.52723   0.02472   0.27886   0.00000  Uiso   1.00
C86    C     0.47259   0.30864   0.22134   0.00000  Uiso   1.00
C87    C     0.35866   0.16660   0.29084   0.00000  Uiso   1.00
C88    C     0.64134   0.16660   0.20916   0.00000  Uiso   1.00
C89    C     0.64841   0.16669   0.29119   0.00000  Uiso   1.00
C90    C     0.35159   0.16669   0.20881   0.00000  Uiso   1.00
C91    C     0.48727   0.20573   0.04642   0.00000  Uiso   1.00
C92    C     0.48755   0.12708   0.45109   0.00000  Uiso   1.00
C93    C     0.51273   0.20573   0.45358   0.00000  Uiso   1.00
C94    C     0.51245   0.12708   0.04891   0.00000  Uiso   1.00
C95    C     0.48750   0.20591   0.09237   0.00000  Uiso   1.00
C96    C     0.48791   0.12705   0.40517   0.00000  Uiso   1.00
C97    C     0.51250   0.20591   0.40763   0.00000  Uiso   1.00
C98    C     0.51209   0.12705   0.09483   0.00000  Uiso   1.00
C99    C     0.49977   0.16654   0.11684   0.00000  Uiso   1.00
C100   C     0.50023   0.16654   0.38316   0.00000  Uiso   1.00
C101   C     0.49992   0.16638   0.02430   0.00000  Uiso   1.00
C102   C     0.50008   0.16638   0.47569   0.00000  Uiso   1.00
C103   C     0.62374   0.16667   0.25027   0.00000  Uiso   1.00
C104   C     0.37626   0.16667   0.24973   0.00000  Uiso   1.00
Cu105  Cu    0.50000   0.21355   0.25000   0.00000  Uiso   1.00
Cu106  Cu    0.50000   0.11978   0.25000   0.00000  Uiso   1.00
H107   H     0.47675   0.23621   0.02818   0.00000  Uiso   1.00
H108   H     0.47696   0.09655   0.46725   0.00000  Uiso   1.00
H109   H     0.52325   0.23621   0.47182   0.00000  Uiso   1.00
H110   H     0.52303   0.09655   0.03275   0.00000  Uiso   1.00
H111   H     0.47758   0.23665   0.10864   0.00000  Uiso   1.00
H112   H     0.47796   0.09638   0.38689   0.00000  Uiso   1.00
H113   H     0.52242   0.23665   0.39136   0.00000  Uiso   1.00
H114   H     0.52204   0.09638   0.11311   0.00000  Uiso   1.00
N115   N     0.50000   0.28402   0.25000   0.00000  Uiso   1.00
N116   N     0.50000   0.04931   0.25000   0.00000  Uiso   1.00
O117   O     0.43988   0.20625   0.24999   0.00000  Uiso   1.00
O118   O     0.56012   0.12709   0.25000   0.00000  Uiso   1.00
O119   O     0.56012   0.20625   0.25000   0.00000  Uiso   1.00
O120   O     0.43988   0.12709   0.24999   0.00000  Uiso   1.00
O121   O     0.50000   0.20626   0.18573   0.00000  Uiso   1.00
O122   O     0.50000   0.12707   0.31427   0.00000  Uiso   1.00
O123   O     0.50000   0.20626   0.31427   0.00000  Uiso   1.00
O124   O     0.50000   0.12707   0.18573   0.00000  Uiso   1.00
C125   C     0.44204   0.04860   0.18776   0.00000  Uiso   1.00
H126   H     0.44184   0.08581   0.18818   0.00000  Uiso   1.00
H127   H     0.44871   0.03930   0.15354   0.00000  Uiso   1.00
H128   H     0.40977   0.03849   0.19334   0.00000  Uiso   1.00
C129   C     0.55921   0.28479   0.31088   0.00000  Uiso   1.00
H130   H     0.55807   0.24761   0.31196   0.00000  Uiso   1.00
H131   H     0.59111   0.29349   0.30263   0.00000  Uiso   1.00
H132   H     0.55515   0.29561   0.34536   0.00000  Uiso   1.00
C133   C     0.55796   0.04860   0.31224   0.00000  Uiso   1.00
H134   H     0.55816   0.08581   0.31182   0.00000  Uiso   1.00
H135   H     0.55129   0.03930   0.34646   0.00000  Uiso   1.00
H136   H     0.59023   0.03849   0.30666   0.00000  Uiso   1.00
C137   C     0.44079   0.28479   0.18911   0.00000  Uiso   1.00
H138   H     0.44193   0.24761   0.18804   0.00000  Uiso   1.00
H139   H     0.40889   0.29349   0.19737   0.00000  Uiso   1.00
H140   H     0.44485   0.29561   0.15464   0.00000  Uiso   1.00
C141   C     0.38731   0.16639   0.33355   0.00000  Uiso   1.00
H142   H     0.40726   0.13523   0.33454   0.00000  Uiso   1.00
H143   H     0.40745   0.19741   0.33475   0.00000  Uiso   1.00
H144   H     0.37118   0.16634   0.36430   0.00000  Uiso   1.00
C145   C     0.61269   0.16640   0.16645   0.00000  Uiso   1.00
H146   H     0.59255   0.19742   0.16525   0.00000  Uiso   1.00
H147   H     0.62881   0.16634   0.13570   0.00000  Uiso   1.00
H148   H     0.59274   0.13523   0.16545   0.00000  Uiso   1.00
C149   C     0.62863   0.16679   0.33500   0.00000  Uiso   1.00
H150   H     0.59421   0.16696   0.33157   0.00000  Uiso   1.00
H151   H     0.63823   0.13548   0.35426   0.00000  Uiso   1.00
H152   H     0.63848   0.19801   0.35428   0.00000  Uiso   1.00
C153   C     0.37137   0.16679   0.16500   0.00000  Uiso   1.00
H154   H     0.40579   0.16696   0.16843   0.00000  Uiso   1.00
H155   H     0.36177   0.13548   0.14574   0.00000  Uiso   1.00
H156   H     0.36152   0.19801   0.14572   0.00000  Uiso   1.00
C157   C     0.75438   0.16667   0.24992   0.00000  Uiso   1.00
C158   C     0.91229   0.16667   0.25008   0.00000  Uiso   1.00
C159   C     0.83312   0.16665   0.16514   0.00000  Uiso   1.00
C160   C     0.83355   0.16665   0.33486   0.00000  Uiso   1.00
C161   C     0.80611   0.02472   0.22114   0.00000  Uiso   1.00
C162   C     0.86075   0.30864   0.27866   0.00000  Uiso   1.00
C163   C     0.86056   0.02472   0.27886   0.00000  Uiso   1.00
C164   C     0.80592   0.30864   0.22134   0.00000  Uiso   1.00
C165   C     0.69199   0.16660   0.29084   0.00000  Uiso   1.00
C166   C     0.97467   0.16660   0.20916   0.00000  Uiso   1.00
C167   C     0.98174   0.16669   0.29119   0.00000  Uiso   1.00
C168   C     0.68493   0.16669   0.20881   0.00000  Uiso   1.00
C169   C     0.82061   0.20573   0.04642   0.00000  Uiso   1.00
C170   C     0.82088   0.12708   0.45109   0.00000  Uiso   1.00
C171   C     0.84606   0.20573   0.45358   0.00000  Uiso   1.00
C172   C     0.84578   0.12708   0.04891   0.00000  Uiso   1.00
C173   C     0.82083   0.20591   0.09237   0.00000  Uiso   1.00
C174   C     0.82124   0.12705   0.40517   0.00000  Uiso   1.00
C175   C     0.84583   0.20591   0.40763   0.00000  Uiso   1.00
C176   C     0.84542   0.12705   0.09483   0.00000  Uiso   1.00
C177   C     0.83310   0.16654   0.11684   0.00000  Uiso   1.00
C178   C     0.83356   0.16654   0.38316   0.00000  Uiso   1.00
C179   C     0.83325   0.16638   0.02430   0.00000  Uiso   1.00
C180   C     0.83342   0.16638   0.47569   0.00000  Uiso   1.00
C181   C     0.95707   0.16667   0.25027   0.00000  Uiso   1.00
C182   C     0.70960   0.16667   0.24973   0.00000  Uiso   1.00
Cu183  Cu    0.83333   0.21355   0.25000   0.00000  Uiso   1.00
Cu184  Cu    0.83333   0.11978   0.25000   0.00000  Uiso   1.00
H185   H     0.81008   0.23621   0.02818   0.00000  Uiso   1.00
H186   H     0.81030   0.09655   0.46725   0.00000  Uiso   1.00
H187   H     0.85658   0.23621   0.47182   0.00000  Uiso   1.00
H188   H     0.85637   0.09655   0.03275   0.00000  Uiso   1.00
H189   H     0.81091   0.23665   0.10864   0.00000  Uiso   1.00
H190   H     0.81129   0.09638   0.38689   0.00000  Uiso   1.00
H191   H     0.85576   0.23665   0.39136   0.00000  Uiso   1.00
H192   H     0.85537   0.09638   0.11311   0.00000  Uiso   1.00
N193   N     0.83333   0.28402   0.25000   0.00000  Uiso   1.00
N194   N     0.83333   0.04931   0.25000   0.00000  Uiso   1.00
O195   O     0.77321   0.20625   0.24999   0.00000  Uiso   1.00
O196   O     0.89345   0.12709   0.25000   0.00000  Uiso   1.00
O197   O     0.89345   0.20625   0.25000   0.00000  Uiso   1.00
O198   O     0.77321   0.12709   0.24999   0.00000  Uiso   1.00
O199   O     0.83333   0.20626   0.18573   0.00000  Uiso   1.00
O200   O     0.83334   0.12707   0.31427   0.00000  Uiso   1.00
O201   O     0.83334   0.20626   0.31427   0.00000  Uiso   1.00
O202   O     0.83333   0.12707   0.18573   0.00000  Uiso   1.00
C203   C     0.77538   0.04860   0.18776   0.00000  Uiso   1.00
H204   H     0.77517   0.08581   0.18818   0.00000  Uiso   1.00
H205   H     0.78204   0.03930   0.15354   0.00000  Uiso   1.00
H206   H     0.74311   0.03849   0.19334   0.00000  Uiso   1.00
C207   C     0.89254   0.28479   0.31088   0.00000  Uiso   1.00
H208   H     0.89141   0.24761   0.31196   0.00000  Uiso   1.00
H209   H     0.92444   0.29349   0.30263   0.00000  Uiso   1.00
H210   H     0.88848   0.29561   0.34536   0.00000  Uiso   1.00
C211   C     0.89129   0.04860   0.31224   0.00000  Uiso   1.00
H212   H     0.89150   0.08581   0.31182   0.00000  Uiso   1.00
H213   H     0.88462   0.03930   0.34646   0.00000  Uiso   1.00
H214   H     0.92356   0.03849   0.30666   0.00000  Uiso   1.00
C215   C     0.77412   0.28479   0.18911   0.00000  Uiso   1.00
H216   H     0.77526   0.24761   0.18804   0.00000  Uiso   1.00
H217   H     0.74222   0.29349   0.19737   0.00000  Uiso   1.00
H218   H     0.77818   0.29561   0.15464   0.00000  Uiso   1.00
C219   C     0.72064   0.16639   0.33355   0.00000  Uiso   1.00
H220   H     0.74059   0.13523   0.33454   0.00000  Uiso   1.00
H221   H     0.74078   0.19741   0.33475   0.00000  Uiso   1.00
H222   H     0.70452   0.16634   0.36430   0.00000  Uiso   1.00
C223   C     0.94603   0.16640   0.16645   0.00000  Uiso   1.00
H224   H     0.92588   0.19742   0.16525   0.00000  Uiso   1.00
H225   H     0.96215   0.16634   0.13570   0.00000  Uiso   1.00
H226   H     0.92608   0.13523   0.16545   0.00000  Uiso   1.00
C227   C     0.96196   0.16679   0.33500   0.00000  Uiso   1.00
H228   H     0.92755   0.16696   0.33157   0.00000  Uiso   1.00
H229   H     0.97157   0.13548   0.35426   0.00000  Uiso   1.00
H230   H     0.97181   0.19801   0.35428   0.00000  Uiso   1.00
C231   C     0.70470   0.16679   0.16500   0.00000  Uiso   1.00
H232   H     0.73912   0.16696   0.16843   0.00000  Uiso   1.00
H233   H     0.69510   0.13548   0.14574   0.00000  Uiso   1.00
H234   H     0.69486   0.19801   0.14572   0.00000  Uiso   1.00
C235   C     0.08771   0.50000   0.24992   0.00000  Uiso   1.00
C236   C     0.24562   0.50000   0.25008   0.00000  Uiso   1.00
C237   C     0.16645   0.49998   0.16514   0.00000  Uiso   1.00
C238   C     0.16688   0.49998   0.33486   0.00000  Uiso   1.00
C239   C     0.13944   0.35805   0.22114   0.00000  Uiso   1.00
C240   C     0.19408   0.64197   0.27866   0.00000  Uiso   1.00
C241   C     0.19389   0.35805   0.27886   0.00000  Uiso   1.00
C242   C     0.13925   0.64197   0.22134   0.00000  Uiso   1.00
C243   C     0.02533   0.49993   0.29084   0.00000  Uiso   1.00
C244   C     0.30801   0.49994   0.20916   0.00000  Uiso   1.00
C245   C     0.31507   0.50002   0.29119   0.00000  Uiso   1.00
C246   C     0.01826   0.50002   0.20881   0.00000  Uiso   1.00
C247   C     0.15394   0.53907   0.04642   0.00000  Uiso   1.00
C248   C     0.15422   0.46041   0.45109   0.00000  Uiso   1.00
C249   C     0.17939   0.53907   0.45358   0.00000  Uiso   1.00
C250   C     0.17912   0.46041   0.04891   0.00000  Uiso   1.00
C251   C     0.15417   0.53925   0.09237   0.00000  Uiso   1.00
C252   C     0.15458   0.46039   0.40517   0.00000  Uiso   1.00
C253   C     0.17917   0.53925   0.40763   0.00000  Uiso   1.00
C254   C     0.17876   0.46039   0.09483   0.00000  Uiso   1.00
C255   C     0.16644   0.49988   0.11684   0.00000  Uiso   1.00
C256   C     0.16689   0.49988   0.38316   0.00000  Uiso   1.00
C257   C     0.16658   0.49971   0.02430   0.00000  Uiso   1.00
C258   C     0.16675   0.49971   0.47569   0.00000  Uiso   1.00
C259   C     0.29040   0.50000   0.25027   0.00000  Uiso   1.00
C260   C     0.04293   0.50000   0.24973   0.00000  Uiso   1.00
Cu261  Cu    0.16667   0.54689   0.25000   0.00000  Uiso   1.00
Cu262  Cu    0.16667   0.45311   0.25000   0.00000  Uiso   1.00
H263   H     0.14342   0.56955   0.02818   0.00000  Uiso   1.00
H264   H     0.14363   0.42989   0.46725   0.00000  Uiso   1.00
H265   H     0.18992   0.56955   0.47182   0.00000  Uiso   1.00
H266   H     0.18970   0.42989   0.03275   0.00000  Uiso   1.00
H267   H     0.14424   0.56998   0.10864   0.00000  Uiso   1.00
H268   H     0.14463   0.42971   0.38689   0.00000  Uiso   1.00
H269   H     0.18909   0.56998   0.39136   0.00000  Uiso   1.00
H270   H     0.18871   0.42971   0.11311   0.00000  Uiso   1.00
N271   N     0.16667   0.61736   0.25000   0.00000  Uiso   1.00
N272   N     0.16667   0.38264   0.25000   0.00000  Uiso   1.00
O273   O     0.10655   0.53958   0.24999   0.00000  Uiso   1.00
O274   O     0.22679   0.46042   0.25000   0.00000  Uiso   1.00
O275   O     0.22679   0.53958   0.25000   0.00000  Uiso   1.00
O276   O     0.10655   0.46042   0.24999   0.00000  Uiso   1.00
O277   O     0.16666   0.53959   0.18573   0.00000  Uiso   1.00
O278   O     0.16667   0.46041   0.31427   0.00000  Uiso   1.00
O279   O     0.16667   0.53959   0.31427   0.00000  Uiso   1.00
O280   O     0.16666   0.46041   0.18573   0.00000  Uiso   1.00
C281   C     0.10871   0.38194   0.18776   0.00000  Uiso   1.00
H282   H     0.10850   0.41914   0.18818   0.00000  Uiso   1.00
H283   H     0.11538   0.37263   0.15354   0.00000  Uiso   1.00
H284   H     0.07644   0.37182   0.19334   0.00000  Uiso   1.00
C285   C     0.22588   0.61812   0.31088   0.00000  Uiso   1.00
H286   H     0.22474   0.58094   0.31196   0.00000  Uiso   1.00
H287   H     0.25778   0.62682   0.30263   0.00000  Uiso   1.00
H288   H     0.22182   0.62894   0.34536   0.00000  Uiso   1.00
C289   C     0.22462   0.38194   0.31224   0.00000  Uiso   1.00
H290   H     0.22483   0.41914   0.31182   0.00000  Uiso   1.00
H291   H     0.21796   0.37263   0.34646   0.00000  Uiso   1.00
H292   H     0.25689   0.37182   0.30666   0.00000  Uiso   1.00
C293   C     0.10746   0.61812   0.18911   0.00000  Uiso   1.00
H294   H     0.10859   0.58094   0.18804   0.00000  Uiso   1.00
H295   H     0.07556   0.62682   0.19737   0.00000  Uiso   1.00
H296   H     0.11152   0.62894   0.15464   0.00000  Uiso   1.00
C297   C     0.05397   0.49973   0.33355   0.00000  Uiso   1.00
H298   H     0.07392   0.46856   0.33454   0.00000  Uiso   1.00
H299   H     0.07412   0.53075   0.33475   0.00000  Uiso   1.00
H300   H     0.03785   0.49967   0.36430   0.00000  Uiso   1.00
C301   C     0.27936   0.49973   0.16645   0.00000  Uiso   1.00
H302   H     0.25922   0.53075   0.16525   0.00000  Uiso   1.00
H303   H     0.29548   0.49967   0.13570   0.00000  Uiso   1.00
H304   H     0.25941   0.46857   0.16545   0.00000  Uiso   1.00
C305   C     0.29530   0.50012   0.33500   0.00000  Uiso   1.00
H306   H     0.26088   0.50029   0.33157   0.00000  Uiso   1.00
H307   H     0.30490   0.46881   0.35426   0.00000  Uiso   1.00
H308   H     0.30514   0.53134   0.35428   0.00000  Uiso   1.00
C309   C     0.03804   0.50012   0.16500   0.00000  Uiso   1.00
H310   H     0.07245   0.50030   0.16843   0.00000  Uiso   1.00
H311   H     0.02843   0.46881   0.14574   0.00000  Uiso   1.00
H312   H     0.02819   0.53134   0.14572   0.00000  Uiso   1.00
C313   C     0.42104   0.50000   0.24992   0.00000  Uiso   1.00
C314   C     0.57896   0.50000   0.25008   0.00000  Uiso   1.00
C315   C     0.49979   0.49998   0.16514   0.00000  Uiso   1.00
C316   C     0.50021   0.49998   0.33486   0.00000  Uiso   1.00
C317   C     0.47277   0.35805   0.22114   0.00000  Uiso   1.00
C318   C     0.52741   0.64197   0.27866   0.00000  Uiso   1.00
C319   C     0.52723   0.35805   0.27886   0.00000  Uiso   1.00
C320   C     0.47259   0.64197   0.22134   0.00000  Uiso   1.00
C321   C     0.35866   0.49993   0.29084   0.00000  Uiso   1.00
C322   C     0.64134   0.49994   0.20916   0.00000  Uiso   1.00
C323   C     0.64841   0.50002   0.29119   0.00000  Uiso   1.00
C324   C     0.35159   0.50002   0.20881   0.00000  Uiso   1.00
C325   C     0.48727   0.53907   0.04642   0.00000  Uiso   1.00
C326   C     0.48755   0.46041   0.45109   0.00000  Uiso   1.00
C327   C     0.51273   0.53907   0.45358   0.00000  Uiso   1.00
C328   C     0.51245   0.46041   0.04891   0.00000  Uiso   1.00
C329   C     0.48750   0.53925   0.09237   0.00000  Uiso   1.00
C330   C     0.48791   0.46039   0.40517   0.00000  Uiso   1.00
C331   C     0.51250   0.53925   0.40763   0.00000  Uiso   1.00
C332   C     0.51209   0.46039   0.09483   0.00000  Uiso   1.00
C333   C     0.49977   0.49988   0.11684   0.00000  Uiso   1.00
C334   C     0.50023   0.49988   0.38316   0.00000  Uiso   1.00
C335   C     0.49992   0.49971   0.02430   0.00000  Uiso   1.00
C336   C     0.50008   0.49971   0.47569   0.00000  Uiso   1.00
C337   C     0.62374   0.50000   0.25027   0.00000  Uiso   1.00
C338   C     0.37626   0.50000   0.24973   0.00000  Uiso   1.00
Cu339  Cu    0.50000   0.54689   0.25000   0.00000  Uiso   1.00
Cu340  Cu    0.50000   0.45311   0.25000   0.00000  Uiso   1.00
H341   H     0.47675   0.56955   0.02818   0.00000  Uiso   1.00
H342   H     0.47696   0.42989   0.46725   0.00000  Uiso   1.00
H343   H     0.52325   0.56955   0.47182   0.00000  Uiso   1.00
H344   H     0.52303   0.42989   0.03275   0.00000  Uiso   1.00
H345   H     0.47758   0.56998   0.10864   0.00000  Uiso   1.00
H346   H     0.47796   0.42971   0.38689   0.00000  Uiso   1.00
H347   H     0.52242   0.56998   0.39136   0.00000  Uiso   1.00
H348   H     0.52204   0.42971   0.11311   0.00000  Uiso   1.00
N349   N     0.50000   0.61736   0.25000   0.00000  Uiso   1.00
N350   N     0.50000   0.38264   0.25000   0.00000  Uiso   1.00
O351   O     0.43988   0.53958   0.24999   0.00000  Uiso   1.00
O352   O     0.56012   0.46042   0.25000   0.00000  Uiso   1.00
O353   O     0.56012   0.53958   0.25000   0.00000  Uiso   1.00
O354   O     0.43988   0.46042   0.24999   0.00000  Uiso   1.00
O355   O     0.50000   0.53959   0.18573   0.00000  Uiso   1.00
O356   O     0.50000   0.46041   0.31427   0.00000  Uiso   1.00
O357   O     0.50000   0.53959   0.31427   0.00000  Uiso   1.00
O358   O     0.50000   0.46041   0.18573   0.00000  Uiso   1.00
C359   C     0.44204   0.38194   0.18776   0.00000  Uiso   1.00
H360   H     0.44184   0.41914   0.18818   0.00000  Uiso   1.00
H361   H     0.44871   0.37263   0.15354   0.00000  Uiso   1.00
H362   H     0.40977   0.37182   0.19334   0.00000  Uiso   1.00
C363   C     0.55921   0.61812   0.31088   0.00000  Uiso   1.00
H364   H     0.55807   0.58094   0.31196   0.00000  Uiso   1.00
H365   H     0.59111   0.62682   0.30263   0.00000  Uiso   1.00
H366   H     0.55515   0.62894   0.34536   0.00000  Uiso   1.00
C367   C     0.55796   0.38194   0.31224   0.00000  Uiso   1.00
H368   H     0.55816   0.41914   0.31182   0.00000  Uiso   1.00
H369   H     0.55129   0.37263   0.34646   0.00000  Uiso   1.00
H370   H     0.59023   0.37182   0.30666   0.00000  Uiso   1.00
C371   C     0.44079   0.61812   0.18911   0.00000  Uiso   1.00
H372   H     0.44193   0.58094   0.18804   0.00000  Uiso   1.00
H373   H     0.40889   0.62682   0.19737   0.00000  Uiso   1.00
H374   H     0.44485   0.62894   0.15464   0.00000  Uiso   1.00
C375   C     0.38731   0.49973   0.33355   0.00000  Uiso   1.00
H376   H     0.40726   0.46856   0.33454   0.00000  Uiso   1.00
H377   H     0.40745   0.53075   0.33475   0.00000  Uiso   1.00
H378   H     0.37118   0.49967   0.36430   0.00000  Uiso   1.00
C379   C     0.61269   0.49973   0.16645   0.00000  Uiso   1.00
H380   H     0.59255   0.53075   0.16525   0.00000  Uiso   1.00
H381   H     0.62881   0.49967   0.13570   0.00000  Uiso   1.00
H382   H     0.59274   0.46857   0.16545   0.00000  Uiso   1.00
C383   C     0.62863   0.50012   0.33500   0.00000  Uiso   1.00
H384   H     0.59421   0.50029   0.33157   0.00000  Uiso   1.00
H385   H     0.63823   0.46881   0.35426   0.00000  Uiso   1.00
H386   H     0.63848   0.53134   0.35428   0.00000  Uiso   1.00
C387   C     0.37137   0.50012   0.16500   0.00000  Uiso   1.00
H388   H     0.40579   0.50030   0.16843   0.00000  Uiso   1.00
H389   H     0.36177   0.46881   0.14574   0.00000  Uiso   1.00
H390   H     0.36152   0.53134   0.14572   0.00000  Uiso   1.00
C391   C     0.75438   0.50000   0.24992   0.00000  Uiso   1.00
C392   C     0.91229   0.50000   0.25008   0.00000  Uiso   1.00
C393   C     0.83312   0.49998   0.16514   0.00000  Uiso   1.00
C394   C     0.83355   0.49998   0.33486   0.00000  Uiso   1.00
C395   C     0.80611   0.35805   0.22114   0.00000  Uiso   1.00
C396   C     0.86075   0.64197   0.27866   0.00000  Uiso   1.00
C397   C     0.86056   0.35805   0.27886   0.00000  Uiso   1.00
C398   C     0.80592   0.64197   0.22134   0.00000  Uiso   1.00
C399   C     0.69199   0.49993   0.29084   0.00000  Uiso   1.00
C400   C     0.97467   0.49994   0.20916   0.00000  Uiso   1.00
C401   C     0.98174   0.50002   0.29119   0.00000  Uiso   1.00
C402   C     0.68493   0.50002   0.20881   0.00000  Uiso   1.00
C403   C     0.82061   0.53907   0.04642   0.00000  Uiso   1.00
C404   C     0.82088   0.46041   0.45109   0.00000  Uiso   1.00
C405   C     0.84606   0.53907   0.45358   0.00000  Uiso   1.00
C406   C     0.84578   0.46041   0.04891   0.00000  Uiso   1.00
C407   C     0.82083   0.53925   0.09237   0.00000  Uiso   1.00
C408   C     0.82124   0.46039   0.40517   0.00000  Uiso   1.00
C409   C     0.84583   0.53925   0.40763   0.00000  Uiso   1.00
C410   C     0.84542   0.46039   0.09483   0.00000  Uiso   1.00
C411   C     0.83310   0.49988   0.11684   0.00000  Uiso   1.00
C412   C     0.83356   0.49988   0.38316   0.00000  Uiso   1.00
C413   C     0.83325   0.49971   0.02430   0.00000  Uiso   1.00
C414   C     0.83342   0.49971   0.47569   0.00000  Uiso   1.00
C415   C     0.95707   0.50000   0.25027   0.00000  Uiso   1.00
C416   C     0.70960   0.50000   0.24973   0.00000  Uiso   1.00
Cu417  Cu    0.83333   0.54689   0.25000   0.00000  Uiso   1.00
Cu418  Cu    0.83333   0.45311   0.25000   0.00000  Uiso   1.00
H419   H     0.81008   0.56955   0.02818   0.00000  Uiso   1.00
H420   H     0.81030   0.42989   0.46725   0.00000  Uiso   1.00
H421   H     0.85658   0.56955   0.47182   0.00000  Uiso   1.00
H422   H     0.85637   0.42989   0.03275   0.00000  Uiso   1.00
H423   H     0.81091   0.56998   0.10864   0.00000  Uiso   1.00
H424   H     0.81129   0.42971   0.38689   0.00000  Uiso   1.00
H425   H     0.85576   0.56998   0.39136   0.00000  Uiso   1.00
H426   H     0.85537   0.42971   0.11311   0.00000  Uiso   1.00
N427   N     0.83333   0.61736   0.25000   0.00000  Uiso   1.00
N428   N     0.83333   0.38264   0.25000   0.00000  Uiso   1.00
O429   O     0.77321   0.53958   0.24999   0.00000  Uiso   1.00
O430   O     0.89345   0.46042   0.25000   0.00000  Uiso   1.00
O431   O     0.89345   0.53958   0.25000   0.00000  Uiso   1.00
O432   O     0.77321   0.46042   0.24999   0.00000  Uiso   1.00
O433   O     0.83333   0.53959   0.18573   0.00000  Uiso   1.00
O434   O     0.83334   0.46041   0.31427   0.00000  Uiso   1.00
O435   O     0.83334   0.53959   0.31427   0.00000  Uiso   1.00
O436   O     0.83333   0.46041   0.18573   0.00000  Uiso   1.00
C437   C     0.77538   0.38194   0.18776   0.00000  Uiso   1.00
H438   H     0.77517   0.41914   0.18818   0.00000  Uiso   1.00
H439   H     0.78204   0.37263   0.15354   0.00000  Uiso   1.00
H440   H     0.74311   0.37182   0.19334   0.00000  Uiso   1.00
C441   C     0.89254   0.61812   0.31088   0.00000  Uiso   1.00
H442   H     0.89141   0.58094   0.31196   0.00000  Uiso   1.00
H443   H     0.92444   0.62682   0.30263   0.00000  Uiso   1.00
H444   H     0.88848   0.62894   0.34536   0.00000  Uiso   1.00
C445   C     0.89129   0.38194   0.31224   0.00000  Uiso   1.00
H446   H     0.89150   0.41914   0.31182   0.00000  Uiso   1.00
H447   H     0.88462   0.37263   0.34646   0.00000  Uiso   1.00
H448   H     0.92356   0.37182   0.30666   0.00000  Uiso   1.00
C449   C     0.77412   0.61812   0.18911   0.00000  Uiso   1.00
H450   H     0.77526   0.58094   0.18804   0.00000  Uiso   1.00
H451   H     0.74222   0.62682   0.19737   0.00000  Uiso   1.00
H452   H     0.77818   0.62894   0.15464   0.00000  Uiso   1.00
C453   C     0.72064   0.49973   0.33355   0.00000  Uiso   1.00
H454   H     0.74059   0.46856   0.33454   0.00000  Uiso   1.00
H455   H     0.74078   0.53075   0.33475   0.00000  Uiso   1.00
H456   H     0.70452   0.49967   0.36430   0.00000  Uiso   1.00
C457   C     0.94603   0.49973   0.16645   0.00000  Uiso   1.00
H458   H     0.92588   0.53075   0.16525   0.00000  Uiso   1.00
H459   H     0.96215   0.49967   0.13570   0.00000  Uiso   1.00
H460   H     0.92608   0.46857   0.16545   0.00000  Uiso   1.00
C461   C     0.96196   0.50012   0.33500   0.00000  Uiso   1.00
H462   H     0.92755   0.50029   0.33157   0.00000  Uiso   1.00
H463   H     0.97157   0.46881   0.35426   0.00000  Uiso   1.00
H464   H     0.97181   0.53134   0.35428   0.00000  Uiso   1.00
C465   C     0.70470   0.50012   0.16500   0.00000  Uiso   1.00
H466   H     0.73912   0.50030   0.16843   0.00000  Uiso   1.00
H467   H     0.69510   0.46881   0.14574   0.00000  Uiso   1.00
H468   H     0.69486   0.53134   0.14572   0.00000  Uiso   1.00
C469   C     0.08771   0.83333   0.24992   0.00000  Uiso   1.00
C470   C     0.24562   0.83333   0.25008   0.00000  Uiso   1.00
C471   C     0.16645   0.83332   0.16514   0.00000  Uiso   1.00
C472   C     0.16688   0.83332   0.33486   0.00000  Uiso   1.00
C473   C     0.13944   0.69138   0.22114   0.00000  Uiso   1.00
C474   C     0.19408   0.97531   0.27866   0.00000  Uiso   1.00
C475   C     0.19389   0.69138   0.27886   0.00000  Uiso   1.00
C476   C     0.13925   0.97531   0.22134   0.00000  Uiso   1.00
C477   C     0.02533   0.83327   0.29084   0.00000  Uiso   1.00
C478   C     0.30801   0.83327   0.20916   0.00000  Uiso   1.00
C479   C     0.31507   0.83336   0.29119   0.00000  Uiso   1.00
C480   C     0.01826   0.83336   0.20881   0.00000  Uiso   1.00
C481   C     0.15394   0.87240   0.04642   0.00000  Uiso   1.00
C482   C     0.15422   0.79374   0.45109   0.00000  Uiso   1.00
C483   C     0.17939   0.87240   0.45358   0.00000  Uiso   1.00
C484   C     0.17912   0.79374   0.04891   0.00000  Uiso   1.00
C485   C     0.15417   0.87258   0.09237   0.00000  Uiso   1.00
C486   C     0.15458   0.79372   0.40517   0.00000  Uiso   1.00
C487   C     0.17917   0.87258   0.40763   0.00000  Uiso   1.00
C488   C     0.17876   0.79372   0.09483   0.00000  Uiso   1.00
C489   C     0.16644   0.83321   0.11684   0.00000  Uiso   1.00
C490   C     0.16689   0.83321   0.38316   0.00000  Uiso   1.00
C491   C     0.16658   0.83305   0.02430   0.00000  Uiso   1.00
C492   C     0.16675   0.83305   0.47569   0.00000  Uiso   1.00
C493   C     0.29040   0.83333   0.25027   0.00000  Uiso   1.00
C494   C     0.04293   0.83333   0.24973   0.00000  Uiso   1.00
Cu495  Cu    0.16667   0.88022   0.25000   0.00000  Uiso   1.00
Cu496  Cu    0.16667   0.78645   0.25000   0.00000  Uiso   1.00
H497   H     0.14342   0.90288   0.02818   0.00000  Uiso   1.00
H498   H     0.14363   0.76322   0.46725   0.00000  Uiso   1.00
H499   H     0.18992   0.90288   0.47182   0.00000  Uiso   1.00
H500   H     0.18970   0.76322   0.03275   0.00000  Uiso   1.00
H501   H     0.14424   0.90332   0.10864   0.00000  Uiso   1.00
H502   H     0.14463   0.76305   0.38689   0.00000  Uiso   1.00
H503   H     0.18909   0.90332   0.39136   0.00000  Uiso   1.00
H504   H     0.18871   0.76305   0.11311   0.00000  Uiso   1.00
N505   N     0.16667   0.95069   0.25000   0.00000  Uiso   1.00
N506   N     0.16667   0.71598   0.25000   0.00000  Uiso   1.00
O507   O     0.10655   0.87291   0.24999   0.00000  Uiso   1.00
O508   O     0.22679   0.79375   0.25000   0.00000  Uiso   1.00
O509   O     0.22679   0.87291   0.25000   0.00000  Uiso   1.00
O510   O     0.10655   0.79375   0.24999   0.00000  Uiso   1.00
O511   O     0.16666   0.87293   0.18573   0.00000  Uiso   1.00
O512   O     0.16667   0.79374   0.31427   0.00000  Uiso   1.00
O513   O     0.16667   0.87293   0.31427   0.00000  Uiso   1.00
O514   O     0.16666   0.79374   0.18573   0.00000  Uiso   1.00
C515   C     0.10871   0.71527   0.18776   0.00000  Uiso   1.00
H516   H     0.10850   0.75248   0.18818   0.00000  Uiso   1.00
H517   H     0.11538   0.70596   0.15354   0.00000  Uiso   1.00
H518   H     0.07644   0.70515   0.19334   0.00000  Uiso   1.00
C519   C     0.22588   0.95145   0.31088   0.00000  Uiso   1.00
H520   H     0.22474   0.91428   0.31196   0.00000  Uiso   1.00
H521   H     0.25778   0.96016   0.30263   0.00000  Uiso   1.00
H522   H     0.22182   0.96228   0.34536   0.00000  Uiso   1.00
C523   C     0.22462   0.71527   0.31224   0.00000  Uiso   1.00
H524   H     0.22483   0.75248   0.31182   0.00000  Uiso   1.00
H525   H     0.21796   0.70596   0.34646   0.00000  Uiso   1.00
H526   H     0.25689   0.70515   0.30666   0.00000  Uiso   1.00
C527   C     0.10746   0.95145   0.18911   0.00000  Uiso   1.00
H528   H     0.10859   0.91428   0.18804   0.00000  Uiso   1.00
H529   H     0.07556   0.96016   0.19737   0.00000  Uiso   1.00
H530   H     0.11152   0.96228   0.15464   0.00000  Uiso   1.00
C531   C     0.05397   0.83306   0.33355   0.00000  Uiso   1.00
H532   H     0.07392   0.80190   0.33454   0.00000  Uiso   1.00
H533   H     0.07412   0.86408   0.33475   0.00000  Uiso   1.00
H534   H     0.03785   0.83300   0.36430   0.00000  Uiso   1.00
C535   C     0.27936   0.83306   0.16645   0.00000  Uiso   1.00
H536   H     0.25922   0.86408   0.16525   0.00000  Uiso   1.00
H537   H     0.29548   0.83301   0.13570   0.00000  Uiso   1.00
H538   H     0.25941   0.80190   0.16545   0.00000  Uiso   1.00
C539   C     0.29530   0.83345   0.33500   0.00000  Uiso   1.00
H540   H     0.26088   0.83363   0.33157   0.00000  Uiso   1.00
H541   H     0.30490   0.80214   0.35426   0.00000  Uiso   1.00
H542   H     0.30514   0.86468   0.35428   0.00000  Uiso   1.00
C543   C     0.03804   0.83345   0.16500   0.00000  Uiso   1.00
H544   H     0.07245   0.83363   0.16843   0.00000  Uiso   1.00
H545   H     0.02843   0.80214   0.14574   0.00000  Uiso   1.00
H546   H     0.02819   0.86468   0.14572   0.00000  Uiso   1.00
C547   C     0.42104   0.83333   0.24992   0.00000  Uiso   1.00
C548   C     0.57896   0.83333   0.25008   0.00000  Uiso   1.00
C549   C     0.49979   0.83332   0.16514   0.00000  Uiso   1.00
C550   C     0.50021   0.83332   0.33486   0.00000  Uiso   1.00
C551   C     0.47277   0.69138   0.22114   0.00000  Uiso   1.00
C552   C     0.52741   0.97531   0.27866   0.00000  Uiso   1.00
C553   C     0.52723   0.69138   0.27886   0.00000  Uiso   1.00
C554   C     0.47259   0.97531   0.22134   0.00000  Uiso   1.00
C555   C     0.35866   0.83327   0.29084   0.00000  Uiso   1.00
C556   C     0.64134   0.83327   0.20916   0.00000  Uiso   1.00
C557   C     0.64841   0.83336   0.29119   0.00000  Uiso   1.00
C558   C     0.35159   0.83336   0.20881   0.00000  Uiso   1.00
C559   C     0.48727   0.87240   0.04642   0.00000  Uiso   1.00
C560   C     0.48755   0.79374   0.45109   0.00000  Uiso   1.00
C561   C     0.51273   0.87240   0.45358   0.00000  Uiso   1.00
C562   C     0.51245   0.79374   0.04891   0.00000  Uiso   1.00
C563   C     0.48750   0.87258   0.09237   0.00000  Uiso   1.00
C564   C     0.48791   0.79372   0.40517   0.00000  Uiso   1.00
C565   C     0.51250   0.87258   0.40763   0.00000  Uiso   1.00
C566   C     0.51209   0.79372   0.09483   0.00000  Uiso   1.00
C567   C     0.49977   0.83321   0.11684   0.00000  Uiso   1.00
C568   C     0.50023   0.83321   0.38316   0.00000  Uiso   1.00
C569   C     0.49992   0.83305   0.02430   0.00000  Uiso   1.00
C570   C     0.50008   0.83305   0.47569   0.00000  Uiso   1.00
C571   C     0.62374   0.83333   0.25027   0.00000  Uiso   1.00
C572   C     0.37626   0.83333   0.24973   0.00000  Uiso   1.00
Cu573  Cu    0.50000   0.88022   0.25000   0.00000  Uiso   1.00
Cu574  Cu    0.50000   0.78645   0.25000   0.00000  Uiso   1.00
H575   H     0.47675   0.90288   0.02818   0.00000  Uiso   1.00
H576   H     0.47696   0.76322   0.46725   0.00000  Uiso   1.00
H577   H     0.52325   0.90288   0.47182   0.00000  Uiso   1.00
H578   H     0.52303   0.76322   0.03275   0.00000  Uiso   1.00
H579   H     0.47758   0.90332   0.10864   0.00000  Uiso   1.00
H580   H     0.47796   0.76305   0.38689   0.00000  Uiso   1.00
H581   H     0.52242   0.90332   0.39136   0.00000  Uiso   1.00
H582   H     0.52204   0.76305   0.11311   0.00000  Uiso   1.00
N583   N     0.50000   0.95069   0.25000   0.00000  Uiso   1.00
N584   N     0.50000   0.71598   0.25000   0.00000  Uiso   1.00
O585   O     0.43988   0.87291   0.24999   0.00000  Uiso   1.00
O586   O     0.56012   0.79375   0.25000   0.00000  Uiso   1.00
O587   O     0.56012   0.87291   0.25000   0.00000  Uiso   1.00
O588   O     0.43988   0.79375   0.24999   0.00000  Uiso   1.00
O589   O     0.50000   0.87293   0.18573   0.00000  Uiso   1.00
O590   O     0.50000   0.79374   0.31427   0.00000  Uiso   1.00
O591   O     0.50000   0.87293   0.31427   0.00000  Uiso   1.00
O592   O     0.50000   0.79374   0.18573   0.00000  Uiso   1.00
C593   C     0.44204   0.71527   0.18776   0.00000  Uiso   1.00
H594   H     0.44184   0.75248   0.18818   0.00000  Uiso   1.00
H595   H     0.44871   0.70596   0.15354   0.00000  Uiso   1.00
H596   H     0.40977   0.70515   0.19334   0.00000  Uiso   1.00
C597   C     0.55921   0.95145   0.31088   0.00000  Uiso   1.00
H598   H     0.55807   0.91428   0.31196   0.00000  Uiso   1.00
H599   H     0.59111   0.96016   0.30263   0.00000  Uiso   1.00
H600   H     0.55515   0.96228   0.34536   0.00000  Uiso   1.00
C601   C     0.55796   0.71527   0.31224   0.00000  Uiso   1.00
H602   H     0.55816   0.75248   0.31182   0.00000  Uiso   1.00
H603   H     0.55129   0.70596   0.34646   0.00000  Uiso   1.00
H604   H     0.59023   0.70515   0.30666   0.00000  Uiso   1.00
C605   C     0.44079   0.95145   0.18911   0.00000  Uiso   1.00
H606   H     0.44193   0.91428   0.18804   0.00000  Uiso   1.00
H607   H     0.40889   0.96016   0.19737   0.00000  Uiso   1.00
H608   H     0.44485   0.96228   0.15464   0.00000  Uiso   1.00
C609   C     0.38731   0.83306   0.33355   0.00000  Uiso   1.00
H610   H     0.40726   0.80190   0.33454   0.00000  Uiso   1.00
H611   H     0.40745   0.86408   0.33475   0.00000  Uiso   1.00
H612   H     0.37118   0.83300   0.36430   0.00000  Uiso   1.00
C613   C     0.61269   0.83306   0.16645   0.00000  Uiso   1.00
H614   H     0.59255   0.86408   0.16525   0.00000  Uiso   1.00
H615   H     0.62881   0.83301   0.13570   0.00000  Uiso   1.00
H616   H     0.59274   0.80190   0.16545   0.00000  Uiso   1.00
C617   C     0.62863   0.83345   0.33500   0.00000  Uiso   1.00
H618   H     0.59421   0.83363   0.33157   0.00000  Uiso   1.00
H619   H     0.63823   0.80214   0.35426   0.00000  Uiso   1.00
H620   H     0.63848   0.86468   0.35428   0.00000  Uiso   1.00
C621   C     0.37137   0.83345   0.16500   0.00000  Uiso   1.00
H622   H     0.40579   0.83363   0.16843   0.00000  Uiso   1.00
H623   H     0.36177   0.80214   0.14574   0.00000  Uiso   1.00
H624   H     0.36152   0.86468   0.14572   0.00000  Uiso   1.00
C625   C     0.75438   0.83333   0.24992   0.00000  Uiso   1.00
C626   C     0.91229   0.83333   0.25008   0.00000  Uiso   1.00
C627   C     0.83312   0.83332   0.16514   0.00000  Uiso   1.00
C628   C     0.83355   0.83332   0.33486   0.00000  Uiso   1.00
C629   C     0.80611   0.69138   0.22114   0.00000  Uiso   1.00
C630   C     0.86075   0.97531   0.27866   0.00000  Uiso   1.00
C631   C     0.86056   0.69138   0.27886   0.00000  Uiso   1.00
C632   C     0.80592   0.97531   0.22134   0.00000  Uiso   1.00
C633   C     0.69199   0.83327   0.29084   0.00000  Uiso   1.00
C634   C     0.97467   0.83327   0.20916   0.00000  Uiso   1.00
C635   C     0.98174   0.83336   0.29119   0.00000  Uiso   1.00
C636   C     0.68493   0.83336   0.20881   0.00000  Uiso   1.00
C637   C     0.82061   0.87240   0.04642   0.00000  Uiso   1.00
C638   C     0.82088   0.79374   0.45109   0.00000  Uiso   1.00
C639   C     0.84606   0.87240   0.45358   0.00000  Uiso   1.00
C640   C     0.84578   0.79374   0.04891   0.00000  Uiso   1.00
C641   C     0.82083   0.87258   0.09237   0.00000  Uiso   1.00
C642   C     0.82124   0.79372   0.40517   0.00000  Uiso   1.00
C643   C     0.84583   0.87258   0.40763   0.00000  Uiso   1.00
C644   C     0.84542   0.79372   0.09483   0.00000  Uiso   1.00
C645   C     0.83310   0.83321   0.11684   0.00000  Uiso   1.00
C646   C     0.83356   0.83321   0.38316   0.00000  Uiso   1.00
C647   C     0.83325   0.83305   0.02430   0.00000  Uiso   1.00
C648   C     0.83342   0.83305   0.47569   0.00000  Uiso   1.00
C649   C     0.95707   0.83333   0.25027   0.00000  Uiso   1.00
C650   C     0.70960   0.83333   0.24973   0.00000  Uiso   1.00
Cu651  Cu    0.83333   0.88022   0.25000   0.00000  Uiso   1.00
Cu652  Cu    0.83333   0.78645   0.25000   0.00000  Uiso   1.00
H653   H     0.81008   0.90288   0.02818   0.00000  Uiso   1.00
H654   H     0.81030   0.76322   0.46725   0.00000  Uiso   1.00
H655   H     0.85658   0.90288   0.47182   0.00000  Uiso   1.00
H656   H     0.85637   0.76322   0.03275   0.00000  Uiso   1.00
H657   H     0.81091   0.90332   0.10864   0.00000  Uiso   1.00
H658   H     0.81129   0.76305   0.38689   0.00000  Uiso   1.00
H659   H     0.85576   0.90332   0.39136   0.00000  Uiso   1.00
H660   H     0.85537   0.76305   0.11311   0.00000  Uiso   1.00
N661   N     0.83333   0.95069   0.25000   0.00000  Uiso   1.00
N662   N     0.83333   0.71598   0.25000   0.00000  Uiso   1.00
O663   O     0.77321   0.87291   0.24999   0.00000  Uiso   1.00
O664   O     0.89345   0.79375   0.25000   0.00000  Uiso   1.00
O665   O     0.89345   0.87291   0.25000   0.00000  Uiso   1.00
O666   O     0.77321   0.79375   0.24999   0.00000  Uiso   1.00
O667   O     0.83333   0.87293   0.18573   0.00000  Uiso   1.00
O668   O     0.83334   0.79374   0.31427   0.00000  Uiso   1.00
O669   O     0.83334   0.87293   0.31427   0.00000  Uiso   1.00
O670   O     0.83333   0.79374   0.18573   0.00000  Uiso   1.00
C671   C     0.77538   0.71527   0.18776   0.00000  Uiso   1.00
H672   H     0.77517   0.75248   0.18818   0.00000  Uiso   1.00
H673   H     0.78204   0.70596   0.15354   0.00000  Uiso   1.00
H674   H     0.74311   0.70515   0.19334   0.00000  Uiso   1.00
C675   C     0.89254   0.95145   0.31088   0.00000  Uiso   1.00
H676   H     0.89141   0.91428   0.31196   0.00000  Uiso   1.00
H677   H     0.92444   0.96016   0.30263   0.00000  Uiso   1.00
H678   H     0.88848   0.96228   0.34536   0.00000  Uiso   1.00
C679   C     0.89129   0.71527   0.31224   0.00000  Uiso   1.00
H680   H     0.89150   0.75248   0.31182   0.00000  Uiso   1.00
H681   H     0.88462   0.70596   0.34646   0.00000  Uiso   1.00
H682   H     0.92356   0.70515   0.30666   0.00000  Uiso   1.00
C683   C     0.77412   0.95145   0.18911   0.00000  Uiso   1.00
H684   H     0.77526   0.91428   0.18804   0.00000  Uiso   1.00
H685   H     0.74222   0.96016   0.19737   0.00000  Uiso   1.00
H686   H     0.77818   0.96228   0.15464   0.00000  Uiso   1.00
C687   C     0.72064   0.83306   0.33355   0.00000  Uiso   1.00
H688   H     0.74059   0.80190   0.33454   0.00000  Uiso   1.00
H689   H     0.74078   0.86408   0.33475   0.00000  Uiso   1.00
H690   H     0.70452   0.83300   0.36430   0.00000  Uiso   1.00
C691   C     0.94603   0.83306   0.16645   0.00000  Uiso   1.00
H692   H     0.92588   0.86408   0.16525   0.00000  Uiso   1.00
H693   H     0.96215   0.83301   0.13570   0.00000  Uiso   1.00
H694   H     0.92608   0.80190   0.16545   0.00000  Uiso   1.00
C695   C     0.96196   0.83345   0.33500   0.00000  Uiso   1.00
H696   H     0.92755   0.83363   0.33157   0.00000  Uiso   1.00
H697   H     0.97157   0.80214   0.35426   0.00000  Uiso   1.00
H698   H     0.97181   0.86468   0.35428   0.00000  Uiso   1.00
C699   C     0.70470   0.83345   0.16500   0.00000  Uiso   1.00
H700   H     0.73912   0.83363   0.16843   0.00000  Uiso   1.00
H701   H     0.69510   0.80214   0.14574   0.00000  Uiso   1.00
H702   H     0.69486   0.86468   0.14572   0.00000  Uiso   1.00
C703   C     0.08771   0.16667   0.74992   0.00000  Uiso   1.00
C704   C     0.24562   0.16667   0.75008   0.00000  Uiso   1.00
C705   C     0.16645   0.16665   0.66514   0.00000  Uiso   1.00
C706   C     0.16688   0.16665   0.83486   0.00000  Uiso   1.00
C707   C     0.13944   0.02472   0.72114   0.00000  Uiso   1.00
C708   C     0.19408   0.30864   0.77866   0.00000  Uiso   1.00
C709   C     0.19389   0.02472   0.77886   0.00000  Uiso   1.00
C710   C     0.13925   0.30864   0.72134   0.00000  Uiso   1.00
C711   C     0.02533   0.16660   0.79084   0.00000  Uiso   1.00
C712   C     0.30801   0.16660   0.70916   0.00000  Uiso   1.00
C713   C     0.31507   0.16669   0.79119   0.00000  Uiso   1.00
C714   C     0.01826   0.16669   0.70881   0.00000  Uiso   1.00
C715   C     0.15394   0.20573   0.54642   0.00000  Uiso   1.00
C716   C     0.15422   0.12708   0.95109   0.00000  Uiso   1.00
C717   C     0.17939   0.20573   0.95358   0.00000  Uiso   1.00
C718   C     0.17912   0.12708   0.54891   0.00000  Uiso   1.00
C719   C     0.15417   0.20591   0.59237   0.00000  Uiso   1.00
C720   C     0.15458   0.12705   0.90517   0.00000  Uiso   1.00
C721   C     0.17917   0.20591   0.90763   0.00000  Uiso   1.00
C722   C     0.17876   0.12705   0.59483   0.00000  Uiso   1.00
C723   C     0.16644   0.16654   0.61684   0.00000  Uiso   1.00
C724   C     0.16689   0.16654   0.88316   0.00000  Uiso   1.00
C725   C     0.16658   0.16638   0.52430   0.00000  Uiso   1.00
C726   C     0.16675   0.16638   0.97569   0.00000  Uiso   1.00
C727   C     0.29040   0.16667   0.75027   0.00000  Uiso   1.00
C728   C     0.04293   0.16667   0.74973   0.00000  Uiso   1.00
Cu729  Cu    0.16667   0.21355   0.75000   0.00000  Uiso   1.00
Cu730  Cu    0.16667   0.11978   0.75000   0.00000  Uiso   1.00
H731   H     0.14342   0.23621   0.52818   0.00000  Uiso   1.00
H732   H     0.14363   0.09655   0.96725   0.00000  Uiso   1.00
H733   H     0.18992   0.23621   0.97182   0.00000  Uiso   1.00
H734   H     0.18970   0.09655   0.53275   0.00000  Uiso   1.00
H735   H     0.14424   0.23665   0.60864   0.00000  Uiso   1.00
H736   H     0.14463   0.09638   0.88689   0.00000  Uiso   1.00
H737   H     0.18909   0.23665   0.89136   0.00000  Uiso   1.00
H738   H     0.18871   0.09638   0.61311   0.00000  Uiso   1.00
N739   N     0.16667   0.28402   0.75000   0.00000  Uiso   1.00
N740   N     0.16667   0.04931   0.75000   0.00000  Uiso   1.00
O741   O     0.10655   0.20625   0.74999   0.00000  Uiso   1.00
O742   O     0.22679   0.12709   0.75000   0.00000  Uiso   1.00
O743   O     0.22679   0.20625   0.75000   0.00000  Uiso   1.00
O744   O     0.10655   0.12709   0.74999   0.00000  Uiso   1.00
O745   O     0.16666   0.20626   0.68573   0.00000  Uiso   1.00
O746   O     0.16667   0.12707   0.81427   0.00000  Uiso   1.00
O747   O     0.16667   0.20626   0.81427   0.00000  Uiso   1.00
O748   O     0.16666   0.12707   0.68573   0.00000  Uiso   1.00
C749   C     0.10871   0.04860   0.68776   0.00000  Uiso   1.00
H750   H     0.10850   0.08581   0.68818   0.00000  Uiso   1.00
H751   H     0.11538   0.03930   0.65354   0.00000  Uiso   1.00
H752   H     0.07644   0.03849   0.69334   0.00000  Uiso   1.00
C753   C     0.22588   0.28479   0.81088   0.00000  Uiso   1.00
H754   H     0.22474   0.24761   0.81196   0.00000  Uiso   1.00
H755   H     0.25778   0.29349   0.80263   0.00000  Uiso   1.00
H756   H     0.22182   0.29561   0.84536   0.00000  Uiso   1.00
C757   C     0.22462   0.04860   0.81224   0.00000  Uiso   1.00
H758   H     0.22483   0.08581   0.81182   0.00000  Uiso   1.00
H759   H     0.21796   0.03930   0.84646   0.00000  Uiso   1.00
H760   H     0.25689   0.03849   0.80666   0.00000  Uiso   1.00
C761   C     0.10746   0.28479   0.68911   0.00000  Uiso   1.00
H762   H     0.10859   0.24761   0.68804   0.00000  Uiso   1.00
H763   H     0.07556   0.29349   0.69737   0.00000  Uiso   1.00
H764   H     0.11152   0.29561   0.65464   0.00000  Uiso   1.00
C765   C     0.05397   0.16639   0.83355   0.00000  Uiso   1.00
H766   H     0.07392   0.13523   0.83454   0.00000  Uiso   1.00
H767   H     0.07412   0.19741   0.83475   0.00000  Uiso   1.00
H768   H     0.03785   0.16634   0.86430   0.00000  Uiso   1.00
C769   C     0.27936   0.16640   0.66645   0.00000  Uiso   1.00
H770   H     0.25922   0.19742   0.66525   0.00000  Uiso   1.00
H771   H     0.29548   0.16634   0.63570   0.00000  Uiso   1.00
H772   H     0.25941   0.13523   0.66545   0.00000  Uiso   1.00
C773   C     0.29530   0.16679   0.83500   0.00000  Uiso   1.00
H774   H     0.26088   0.16696   0.83157   0.00000  Uiso   1.00
H775   H     0.30490   0.13548   0.85426   0.00000  Uiso   1.00
H776   H     0.30514   0.19801   0.85428   0.00000  Uiso   1.00
C777   C     0.03804   0.16679   0.66500   0.00000  Uiso   1.00
H778   H     0.07245   0.16696   0.66843   0.00000  Uiso   1.00
H779   H     0.02843   0.13548   0.64574   0.00000  Uiso   1.00
H780   H     0.02819   0.19801   0.64572   0.00000  Uiso   1.00
C781   C     0.42104   0.16667   0.74992   0.00000  Uiso   1.00
C782   C     0.57896   0.16667   0.75008   0.00000  Uiso   1.00
C783   C     0.49979   0.16665   0.66514   0.00000  Uiso   1.00
C784   C     0.50021   0.16665   0.83486   0.00000  Uiso   1.00
C785   C     0.47277   0.02472   0.72114   0.00000  Uiso   1.00
C786   C     0.52741   0.30864   0.77866   0.00000  Uiso   1.00
C787   C     0.52723   0.02472   0.77886   0.00000  Uiso   1.00
C788   C     0.47259   0.30864   0.72134   0.00000  Uiso   1.00
C789   C     0.35866   0.16660   0.79084   0.00000  Uiso   1.00
C790   C     0.64134   0.16660   0.70916   0.00000  Uiso   1.00
C791   C     0.64841   0.16669   0.79119   0.00000  Uiso   1.00
C792   C     0.35159   0.16669   0.70881   0.00000  Uiso   1.00
C793   C     0.48727   0.20573   0.54642   0.00000  Uiso   1.00
C794   C     0.48755   0.12708   0.95109   0.00000  Uiso   1.00
C795   C     0.51273   0.20573   0.95358   0.00000  Uiso   1.00
C796   C     0.51245   0.12708   0.54891   0.00000  Uiso   1.00
C797   C     0.48750   0.20591   0.59237   0.00000  Uiso   1.00
C798   C     0.48791   0.12705   0.90517   0.00000  Uiso   1.00
C799   C     0.51250   0.20591   0.90763   0.00000  Uiso   1.00
C800   C     0.51209   0.12705   0.59483   0.00000  Uiso   1.00
C801   C     0.49977   0.16654   0.61684   0.00000  Uiso   1.00
C802   C     0.50023   0.16654   0.88316   0.00000  Uiso   1.00
C803   C     0.49992   0.16638   0.52430   0.00000  Uiso   1.00
C804   C     0.50008   0.16638   0.97569   0.00000  Uiso   1.00
C805   C     0.62374   0.16667   0.75027   0.00000  Uiso   1.00
C806   C     0.37626   0.16667   0.74973   0.00000  Uiso   1.00
Cu807  Cu    0.50000   0.21355   0.75000   0.00000  Uiso   1.00
Cu808  Cu    0.50000   0.11978   0.75000   0.00000  Uiso   1.00
H809   H     0.47675   0.23621   0.52818   0.00000  Uiso   1.00
H810   H     0.47696   0.09655   0.96725   0.00000  Uiso   1.00
H811   H     0.52325   0.23621   0.97182   0.00000  Uiso   1.00
H812   H     0.52303   0.09655   0.53275   0.00000  Uiso   1.00
H813   H     0.47758   0.23665   0.60864   0.00000  Uiso   1.00
H814   H     0.47796   0.09638   0.88689   0.00000  Uiso   1.00
H815   H     0.52242   0.23665   0.89136   0.00000  Uiso   1.00
H816   H     0.52204   0.09638   0.61311   0.00000  Uiso   1.00
N817   N     0.50000   0.28402   0.75000   0.00000  Uiso   1.00
N818   N     0.50000   0.04931   0.75000   0.00000  Uiso   1.00
O819   O     0.43988   0.20625   0.74999   0.00000  Uiso   1.00
O820   O     0.56012   0.12709   0.75000   0.00000  Uiso   1.00
O821   O     0.56012   0.20625   0.75000   0.00000  Uiso   1.00
O822   O     0.43988   0.12709   0.74999   0.00000  Uiso   1.00
O823   O     0.50000   0.20626   0.68573   0.00000  Uiso   1.00
O824   O     0.50000   0.12707   0.81427   0.00000  Uiso   1.00
O825   O     0.50000   0.20626   0.81427   0.00000  Uiso   1.00
O826   O     0.50000   0.12707   0.68573   0.00000  Uiso   1.00
C827   C     0.44204   0.04860   0.68776   0.00000  Uiso   1.00
H828   H     0.44184   0.08581   0.68818   0.00000  Uiso   1.00
H829   H     0.44871   0.03930   0.65354   0.00000  Uiso   1.00
H830   H     0.40977   0.03849   0.69334   0.00000  Uiso   1.00
C831   C     0.55921   0.28479   0.81088   0.00000  Uiso   1.00
H832   H     0.55807   0.24761   0.81196   0.00000  Uiso   1.00
H833   H     0.59111   0.29349   0.80263   0.00000  Uiso   1.00
H834   H     0.55515   0.29561   0.84536   0.00000  Uiso   1.00
C835   C     0.55796   0.04860   0.81224   0.00000  Uiso   1.00
H836   H     0.55816   0.08581   0.81182   0.00000  Uiso   1.00
H837   H     0.55129   0.03930   0.84646   0.00000  Uiso   1.00
H838   H     0.59023   0.03849   0.80666   0.00000  Uiso   1.00
C839   C     0.44079   0.28479   0.68911   0.00000  Uiso   1.00
H840   H     0.44193   0.24761   0.68804   0.00000  Uiso   1.00
H841   H     0.40889   0.29349   0.69737   0.00000  Uiso   1.00
H842   H     0.44485   0.29561   0.65464   0.00000  Uiso   1.00
C843   C     0.38731   0.16639   0.83355   0.00000  Uiso   1.00
H844   H     0.40726   0.13523   0.83454   0.00000  Uiso   1.00
H845   H     0.40745   0.19741   0.83475   0.00000  Uiso   1.00
H846   H     0.37118   0.16634   0.86430   0.00000  Uiso   1.00
C847   C     0.61269   0.16640   0.66645   0.00000  Uiso   1.00
H848   H     0.59255   0.19742   0.66525   0.00000  Uiso   1.00
H849   H     0.62881   0.16634   0.63570   0.00000  Uiso   1.00
H850   H     0.59274   0.13523   0.66545   0.00000  Uiso   1.00
C851   C     0.62863   0.16679   0.83500   0.00000  Uiso   1.00
H852   H     0.59421   0.16696   0.83157   0.00000  Uiso   1.00
H853   H     0.63823   0.13548   0.85426   0.00000  Uiso   1.00
H854   H     0.63848   0.19801   0.85428   0.00000  Uiso   1.00
C855   C     0.37137   0.16679   0.66500   0.00000  Uiso   1.00
H856   H     0.40579   0.16696   0.66843   0.00000  Uiso   1.00
H857   H     0.36177   0.13548   0.64574   0.00000  Uiso   1.00
H858   H     0.36152   0.19801   0.64572   0.00000  Uiso   1.00
C859   C     0.75438   0.16667   0.74992   0.00000  Uiso   1.00
C860   C     0.91229   0.16667   0.75008   0.00000  Uiso   1.00
C861   C     0.83312   0.16665   0.66514   0.00000  Uiso   1.00
C862   C     0.83355   0.16665   0.83486   0.00000  Uiso   1.00
C863   C     0.80611   0.02472   0.72114   0.00000  Uiso   1.00
C864   C     0.86075   0.30864   0.77866   0.00000  Uiso   1.00
C865   C     0.86056   0.02472   0.77886   0.00000  Uiso   1.00
C866   C     0.80592   0.30864   0.72134   0.00000  Uiso   1.00
C867   C     0.69199   0.16660   0.79084   0.00000  Uiso   1.00
C868   C     0.97467   0.16660   0.70916   0.00000  Uiso   1.00
C869   C     0.98174   0.16669   0.79119   0.00000  Uiso   1.00
C870   C     0.68493   0.16669   0.70881   0.00000  Uiso   1.00
C871   C     0.82061   0.20573   0.54642   0.00000  Uiso   1.00
C872   C     0.82088   0.12708   0.95109   0.00000  Uiso   1.00
C873   C     0.84606   0.20573   0.95358   0.00000  Uiso   1.00
C874   C     0.84578   0.12708   0.54891   0.00000  Uiso   1.00
C875   C     0.82083   0.20591   0.59237   0.00000  Uiso   1.00
C876   C     0.82124   0.12705   0.90517   0.00000  Uiso   1.00
C877   C     0.84583   0.20591   0.90763   0.00000  Uiso   1.00
C878   C     0.84542   0.12705   0.59483   0.00000  Uiso   1.00
C879   C     0.83310   0.16654   0.61684   0.00000  Uiso   1.00
C880   C     0.83356   0.16654   0.88316   0.00000  Uiso   1.00
C881   C     0.83325   0.16638   0.52430   0.00000  Uiso   1.00
C882   C     0.83342   0.16638   0.97569   0.00000  Uiso   1.00
C883   C     0.95707   0.16667   0.75027   0.00000  Uiso   1.00
C884   C     0.70960   0.16667   0.74973   0.00000  Uiso   1.00
Cu885  Cu    0.83333   0.21355   0.75000   0.00000  Uiso   1.00
Cu886  Cu    0.83333   0.11978   0.75000   0.00000  Uiso   1.00
H887   H     0.81008   0.23621   0.52818   0.00000  Uiso   1.00
H888   H     0.81030   0.09655   0.96725   0.00000  Uiso   1.00
H889   H     0.85658   0.23621   0.97182   0.00000  Uiso   1.00
H890   H     0.85637   0.09655   0.53275   0.00000  Uiso   1.00
H891   H     0.81091   0.23665   0.60864   0.00000  Uiso   1.00
H892   H     0.81129   0.09638   0.88689   0.00000  Uiso   1.00
H893   H     0.85576   0.23665   0.89136   0.00000  Uiso   1.00
H894   H     0.85537   0.09638   0.61311   0.00000  Uiso   1.00
N895   N     0.83333   0.28402   0.75000   0.00000  Uiso   1.00
N896   N     0.83333   0.04931   0.75000   0.00000  Uiso   1.00
O897   O     0.77321   0.20625   0.74999   0.00000  Uiso   1.00
O898   O     0.89345   0.12709   0.75000   0.00000  Uiso   1.00
O899   O     0.89345   0.20625   0.75000   0.00000  Uiso   1.00
O900   O     0.77321   0.12709   0.74999   0.00000  Uiso   1.00
O901   O     0.83333   0.20626   0.68573   0.00000  Uiso   1.00
O902   O     0.83334   0.12707   0.81427   0.00000  Uiso   1.00
O903   O     0.83334   0.20626   0.81427   0.00000  Uiso   1.00
O904   O     0.83333   0.12707   0.68573   0.00000  Uiso   1.00
C905   C     0.77538   0.04860   0.68776   0.00000  Uiso   1.00
H906   H     0.77517   0.08581   0.68818   0.00000  Uiso   1.00
H907   H     0.78204   0.03930   0.65354   0.00000  Uiso   1.00
H908   H     0.74311   0.03849   0.69334   0.00000  Uiso   1.00
C909   C     0.89254   0.28479   0.81088   0.00000  Uiso   1.00
H910   H     0.89141   0.24761   0.81196   0.00000  Uiso   1.00
H911   H     0.92444   0.29349   0.80263   0.00000  Uiso   1.00
H912   H     0.88848   0.29561   0.84536   0.00000  Uiso   1.00
C913   C     0.89129   0.04860   0.81224   0.00000  Uiso   1.00
H914   H     0.89150   0.08581   0.81182   0.00000  Uiso   1.00
H915   H     0.88462   0.03930   0.84646   0.00000  Uiso   1.00
H916   H     0.92356   0.03849   0.80666   0.00000  Uiso   1.00
C917   C     0.77412   0.28479   0.68911   0.00000  Uiso   1.00
H918   H     0.77526   0.24761   0.68804   0.00000  Uiso   1.00
H919   H     0.74222   0.29349   0.69737   0.00000  Uiso   1.00
H920   H     0.77818   0.29561   0.65464   0.00000  Uiso   1.00
C921   C     0.72064   0.16639   0.83355   0.00000  Uiso   1.00
H922   H     0.74059   0.13523   0.83454   0.00000  Uiso   1.00
H923   H     0.74078   0.19741   0.83475   0.00000  Uiso   1.00
H924   H     0.70452   0.16634   0.86430   0.00000  Uiso   1.00
C925   C     0.94603   0.16640   0.66645   0.00000  Uiso   1.00
H926   H     0.92588   0.19742   0.66525   0.00000  Uiso   1.00
H927   H     0.96215   0.16634   0.63570   0.00000  Uiso   1.00
H928   H     0.92608   0.13523   0.66545   0.00000  Uiso   1.00
C929   C     0.96196   0.16679   0.83500   0.00000  Uiso   1.00
H930   H     0.92755   0.16696   0.83157   0.00000  Uiso   1.00
H931   H     0.97157   0.13548   0.85426   0.00000  Uiso   1.00
H932   H     0.97181   0.19801   0.85428   0.00000  Uiso   1.00
C933   C     0.70470   0.16679   0.66500   0.00000  Uiso   1.00
H934   H     0.73912   0.16696   0.66843   0.00000  Uiso   1.00
H935   H     0.69510   0.13548   0.64574   0.00000  Uiso   1.00
H936   H     0.69486   0.19801   0.64572   0.00000  Uiso   1.00
C937   C     0.08771   0.50000   0.74992   0.00000  Uiso   1.00
C938   C     0.24562   0.50000   0.75008   0.00000  Uiso   1.00
C939   C     0.16645   0.49998   0.66514   0.00000  Uiso   1.00
C940   C     0.16688   0.49998   0.83486   0.00000  Uiso   1.00
C941   C     0.13944   0.35805   0.72114   0.00000  Uiso   1.00
C942   C     0.19408   0.64197   0.77866   0.00000  Uiso   1.00
C943   C     0.19389   0.35805   0.77886   0.00000  Uiso   1.00
C944   C     0.13925   0.64197   0.72134   0.00000  Uiso   1.00
C945   C     0.02533   0.49993   0.79084   0.00000  Uiso   1.00
C946   C     0.30801   0.49994   0.70916   0.00000  Uiso   1.00
C947   C     0.31507   0.50002   0.79119   0.00000  Uiso   1.00
C948   C     0.01826   0.50002   0.70881   0.00000  Uiso   1.00
C949   C     0.15394   0.53907   0.54642   0.00000  Uiso   1.00
C950   C     0.15422   0.46041   0.95109   0.00000  Uiso   1.00
C951   C     0.17939   0.53907   0.95358   0.00000  Uiso   1.00
C952   C     0.17912   0.46041   0.54891   0.00000  Uiso   1.00
C953   C     0.15417   0.53925   0.59237   0.00000  Uiso   1.00
C954   C     0.15458   0.46039   0.90517   0.00000  Uiso   1.00
C955   C     0.17917   0.53925   0.90763   0.00000  Uiso   1.00
C956   C     0.17876   0.46039   0.59483   0.00000  Uiso   1.00
C957   C     0.16644   0.49988   0.61684   0.00000  Uiso   1.00
C958   C     0.16689   0.49988   0.88316   0.00000  Uiso   1.00
C959   C     0.16658   0.49971   0.52430   0.00000  Uiso   1.00
C960   C     0.16675   0.49971   0.97569   0.00000  Uiso   1.00
C961   C     0.29040   0.50000   0.75027   0.00000  Uiso   1.00
C962   C     0.04293   0.50000   0.74973   0.00000  Uiso   1.00
Cu963  Cu    0.16667   0.54689   0.75000   0.00000  Uiso   1.00
Cu964  Cu    0.16667   0.45311   0.75000   0.00000  Uiso   1.00
H965   H     0.14342   0.56955   0.52818   0.00000  Uiso   1.00
H966   H     0.14363   0.42989   0.96725   0.00000  Uiso   1.00
H967   H     0.18992   0.56955   0.97182   0.00000  Uiso   1.00
H968   H     0.18970   0.42989   0.53275   0.00000  Uiso   1.00
H969   H     0.14424   0.56998   0.60864   0.00000  Uiso   1.00
H970   H     0.14463   0.42971   0.88689   0.00000  Uiso   1.00
H971   H     0.18909   0.56998   0.89136   0.00000  Uiso   1.00
H972   H     0.18871   0.42971   0.61311   0.00000  Uiso   1.00
N973   N     0.16667   0.61736   0.75000   0.00000  Uiso   1.00
N974   N     0.16667   0.38264   0.75000   0.00000  Uiso   1.00
O975   O     0.10655   0.53958   0.74999   0.00000  Uiso   1.00
O976   O     0.22679   0.46042   0.75000   0.00000  Uiso   1.00
O977   O     0.22679   0.53958   0.75000   0.00000  Uiso   1.00
O978   O     0.10655   0.46042   0.74999   0.00000  Uiso   1.00
O979   O     0.16666   0.53959   0.68573   0.00000  Uiso   1.00
O980   O     0.16667   0.46041   0.81427   0.00000  Uiso   1.00
O981   O     0.16667   0.53959   0.81427   0.00000  Uiso   1.00
O982   O     0.16666   0.46041   0.68573   0.00000  Uiso   1.00
C983   C     0.10871   0.38194   0.68776   0.00000  Uiso   1.00
H984   H     0.10850   0.41914   0.68818   0.00000  Uiso   1.00
H985   H     0.11538   0.37263   0.65354   0.00000  Uiso   1.00
H986   H     0.07644   0.37182   0.69334   0.00000  Uiso   1.00
C987   C     0.22588   0.61812   0.81088   0.00000  Uiso   1.00
H988   H     0.22474   0.58094   0.81196   0.00000  Uiso   1.00
H989   H     0.25778   0.62682   0.80263   0.00000  Uiso   1.00
H990   H     0.22182   0.62894   0.84536   0.00000  Uiso   1.00
C991   C     0.22462   0.38194   0.81224   0.00000  Uiso   1.00
H992   H     0.22483   0.41914   0.81182   0.00000  Uiso   1.00
H993   H     0.21796   0.37263   0.84646   0.00000  Uiso   1.00
H994   H     0.25689   0.37182   0.80666   0.00000  Uiso   1.00
C995   C     0.10746   0.61812   0.68911   0.00000  Uiso   1.00
H996   H     0.10859   0.58094   0.68804   0.00000  Uiso   1.00
H997   H     0.07556   0.62682   0.69737   0.00000  Uiso   1.00
H998   H     0.11152   0.62894   0.65464   0.00000  Uiso   1.00
C999   C     0.05397   0.49973   0.83355   0.00000  Uiso   1.00
H1000  H     0.07392   0.46856   0.83454   0.00000  Uiso   1.00
H1001  H     0.07412   0.53075   0.83475   0.00000  Uiso   1.00
H1002  H     0.03785   0.49967   0.86430   0.00000  Uiso   1.00
C1003  C     0.27936   0.49973   0.66645   0.00000  Uiso   1.00
H1004  H     0.25922   0.53075   0.66525   0.00000  Uiso   1.00
H1005  H     0.29548   0.49967   0.63570   0.00000  Uiso   1.00
H1006  H     0.25941   0.46857   0.66545   0.00000  Uiso   1.00
C1007  C     0.29530   0.50012   0.83500   0.00000  Uiso   1.00
H1008  H     0.26088   0.50029   0.83157   0.00000  Uiso   1.00
H1009  H     0.30490   0.46881   0.85426   0.00000  Uiso   1.00
H1010  H     0.30514   0.53134   0.85428   0.00000  Uiso   1.00
C1011  C     0.03804   0.50012   0.66500   0.00000  Uiso   1.00
H1012  H     0.07245   0.50030   0.66843   0.00000  Uiso   1.00
H1013  H     0.02843   0.46881   0.64574   0.00000  Uiso   1.00
H1014  H     0.02819   0.53134   0.64572   0.00000  Uiso   1.00
C1015  C     0.42104   0.50000   0.74992   0.00000  Uiso   1.00
C1016  C     0.57896   0.50000   0.75008   0.00000  Uiso   1.00
C1017  C     0.49979   0.49998   0.66514   0.00000  Uiso   1.00
C1018  C     0.50021   0.49998   0.83486   0.00000  Uiso   1.00
C1019  C     0.47277   0.35805   0.72114   0.00000  Uiso   1.00
C1020  C     0.52741   0.64197   0.77866   0.00000  Uiso   1.00
C1021  C     0.52723   0.35805   0.77886   0.00000  Uiso   1.00
C1022  C     0.47259   0.64197   0.72134   0.00000  Uiso   1.00
C1023  C     0.35866   0.49993   0.79084   0.00000  Uiso   1.00
C1024  C     0.64134   0.49994   0.70916   0.00000  Uiso   1.00
C1025  C     0.64841   0.50002   0.79119   0.00000  Uiso   1.00
C1026  C     0.35159   0.50002   0.70881   0.00000  Uiso   1.00
C1027  C     0.48727   0.53907   0.54642   0.00000  Uiso   1.00
C1028  C     0.48755   0.46041   0.95109   0.00000  Uiso   1.00
C1029  C     0.51273   0.53907   0.95358   0.00000  Uiso   1.00
C1030  C     0.51245   0.46041   0.54891   0.00000  Uiso   1.00
C1031  C     0.48750   0.53925   0.59237   0.00000  Uiso   1.00
C1032  C     0.48791   0.46039   0.90517   0.00000  Uiso   1.00
C1033  C     0.51250   0.53925   0.90763   0.00000  Uiso   1.00
C1034  C     0.51209   0.46039   0.59483   0.00000  Uiso   1.00
C1035  C     0.49977   0.49988   0.61684   0.00000  Uiso   1.00
C1036  C     0.50023   0.49988   0.88316   0.00000  Uiso   1.00
C1037  C     0.49992   0.49971   0.52430   0.00000  Uiso   1.00
C1038  C     0.50008   0.49971   0.97569   0.00000  Uiso   1.00
C1039  C     0.62374   0.50000   0.75027   0.00000  Uiso   1.00
C1040  C     0.37626   0.50000   0.74973   0.00000  Uiso   1.00
Cu1041 Cu    0.50000   0.54689   0.75000   0.00000  Uiso   1.00
Cu1042 Cu    0.50000   0.45311   0.75000   0.00000  Uiso   1.00
H1043  H     0.47675   0.56955   0.52818   0.00000  Uiso   1.00
H1044  H     0.47696   0.42989   0.96725   0.00000  Uiso   1.00
H1045  H     0.52325   0.56955   0.97182   0.00000  Uiso   1.00
H1046  H     0.52303   0.42989   0.53275   0.00000  Uiso   1.00
H1047  H     0.47758   0.56998   0.60864   0.00000  Uiso   1.00
H1048  H     0.47796   0.42971   0.88689   0.00000  Uiso   1.00
H1049  H     0.52242   0.56998   0.89136   0.00000  Uiso   1.00
H1050  H     0.52204   0.42971   0.61311   0.00000  Uiso   1.00
N1051  N     0.50000   0.61736   0.75000   0.00000  Uiso   1.00
N1052  N     0.50000   0.38264   0.75000   0.00000  Uiso   1.00
O1053  O     0.43988   0.53958   0.74999   0.00000  Uiso   1.00
O1054  O     0.56012   0.46042   0.75000   0.00000  Uiso   1.00
O1055  O     0.56012   0.53958   0.75000   0.00000  Uiso   1.00
O1056  O     0.43988   0.46042   0.74999   0.00000  Uiso   1.00
O1057  O     0.50000   0.53959   0.68573   0.00000  Uiso   1.00
O1058  O     0.50000   0.46041   0.81427   0.00000  Uiso   1.00
O1059  O     0.50000   0.53959   0.81427   0.00000  Uiso   1.00
O1060  O     0.50000   0.46041   0.68573   0.00000  Uiso   1.00
C1061  C     0.44204   0.38194   0.68776   0.00000  Uiso   1.00
H1062  H     0.44184   0.41914   0.68818   0.00000  Uiso   1.00
H1063  H     0.44871   0.37263   0.65354   0.00000  Uiso   1.00
H1064  H     0.40977   0.37182   0.69334   0.00000  Uiso   1.00
C1065  C     0.55921   0.61812   0.81088   0.00000  Uiso   1.00
H1066  H     0.55807   0.58094   0.81196   0.00000  Uiso   1.00
H1067  H     0.59111   0.62682   0.80263   0.00000  Uiso   1.00
H1068  H     0.55515   0.62894   0.84536   0.00000  Uiso   1.00
C1069  C     0.55796   0.38194   0.81224   0.00000  Uiso   1.00
H1070  H     0.55816   0.41914   0.81182   0.00000  Uiso   1.00
H1071  H     0.55129   0.37263   0.84646   0.00000  Uiso   1.00
H1072  H     0.59023   0.37182   0.80666   0.00000  Uiso   1.00
C1073  C     0.44079   0.61812   0.68911   0.00000  Uiso   1.00
H1074  H     0.44193   0.58094   0.68804   0.00000  Uiso   1.00
H1075  H     0.40889   0.62682   0.69737   0.00000  Uiso   1.00
H1076  H     0.44485   0.62894   0.65464   0.00000  Uiso   1.00
C1077  C     0.38731   0.49973   0.83355   0.00000  Uiso   1.00
H1078  H     0.40726   0.46856   0.83454   0.00000  Uiso   1.00
H1079  H     0.40745   0.53075   0.83475   0.00000  Uiso   1.00
H1080  H     0.37118   0.49967   0.86430   0.00000  Uiso   1.00
C1081  C     0.61269   0.49973   0.66645   0.00000  Uiso   1.00
H1082  H     0.59255   0.53075   0.66525   0.00000  Uiso   1.00
H1083  H     0.62881   0.49967   0.63570   0.00000  Uiso   1.00
H1084  H     0.59274   0.46857   0.66545   0.00000  Uiso   1.00
C1085  C     0.62863   0.50012   0.83500   0.00000  Uiso   1.00
H1086  H     0.59421   0.50029   0.83157   0.00000  Uiso   1.00
H1087  H     0.63823   0.46881   0.85426   0.00000  Uiso   1.00
H1088  H     0.63848   0.53134   0.85428   0.00000  Uiso   1.00
C1089  C     0.37137   0.50012   0.66500   0.00000  Uiso   1.00
H1090  H     0.40579   0.50030   0.66843   0.00000  Uiso   1.00
H1091  H     0.36177   0.46881   0.64574   0.00000  Uiso   1.00
H1092  H     0.36152   0.53134   0.64572   0.00000  Uiso   1.00
C1093  C     0.75438   0.50000   0.74992   0.00000  Uiso   1.00
C1094  C     0.91229   0.50000   0.75008   0.00000  Uiso   1.00
C1095  C     0.83312   0.49998   0.66514   0.00000  Uiso   1.00
C1096  C     0.83355   0.49998   0.83486   0.00000  Uiso   1.00
C1097  C     0.80611   0.35805   0.72114   0.00000  Uiso   1.00
C1098  C     0.86075   0.64197   0.77866   0.00000  Uiso   1.00
C1099  C     0.86056   0.35805   0.77886   0.00000  Uiso   1.00
C1100  C     0.80592   0.64197   0.72134   0.00000  Uiso   1.00
C1101  C     0.69199   0.49993   0.79084   0.00000  Uiso   1.00
C1102  C     0.97467   0.49994   0.70916   0.00000  Uiso   1.00
C1103  C     0.98174   0.50002   0.79119   0.00000  Uiso   1.00
C1104  C     0.68493   0.50002   0.70881   0.00000  Uiso   1.00
C1105  C     0.82061   0.53907   0.54642   0.00000  Uiso   1.00
C1106  C     0.82088   0.46041   0.95109   0.00000  Uiso   1.00
C1107  C     0.84606   0.53907   0.95358   0.00000  Uiso   1.00
C1108  C     0.84578   0.46041   0.54891   0.00000  Uiso   1.00
C1109  C     0.82083   0.53925   0.59237   0.00000  Uiso   1.00
C1110  C     0.82124   0.46039   0.90517   0.00000  Uiso   1.00
C1111  C     0.84583   0.53925   0.90763   0.00000  Uiso   1.00
C1112  C     0.84542   0.46039   0.59483   0.00000  Uiso   1.00
C1113  C     0.83310   0.49988   0.61684   0.00000  Uiso   1.00
C1114  C     0.83356   0.49988   0.88316   0.00000  Uiso   1.00
C1115  C     0.83325   0.49971   0.52430   0.00000  Uiso   1.00
C1116  C     0.83342   0.49971   0.97569   0.00000  Uiso   1.00
C1117  C     0.95707   0.50000   0.75027   0.00000  Uiso   1.00
C1118  C     0.70960   0.50000   0.74973   0.00000  Uiso   1.00
Cu1119 Cu    0.83333   0.54689   0.75000   0.00000  Uiso   1.00
Cu1120 Cu    0.83333   0.45311   0.75000   0.00000  Uiso   1.00
H1121  H     0.81008   0.56955   0.52818   0.00000  Uiso   1.00
H1122  H     0.81030   0.42989   0.96725   0.00000  Uiso   1.00
H1123  H     0.85658   0.56955   0.97182   0.00000  Uiso   1.00
H1124  H     0.85637   0.42989   0.53275   0.00000  Uiso   1.00
H1125  H     0.81091   0.56998   0.60864   0.00000  Uiso   1.00
H1126  H     0.81129   0.42971   0.88689   0.00000  Uiso   1.00
H1127  H     0.85576   0.56998   0.89136   0.00000  Uiso   1.00
H1128  H     0.85537   0.42971   0.61311   0.00000  Uiso   1.00
N1129  N     0.83333   0.61736   0.75000   0.00000  Uiso   1.00
N1130  N     0.83333   0.38264   0.75000   0.00000  Uiso   1.00
O1131  O     0.77321   0.53958   0.74999   0.00000  Uiso   1.00
O1132  O     0.89345   0.46042   0.75000   0.00000  Uiso   1.00
O1133  O     0.89345   0.53958   0.75000   0.00000  Uiso   1.00
O1134  O     0.77321   0.46042   0.74999   0.00000  Uiso   1.00
O1135  O     0.83333   0.53959   0.68573   0.00000  Uiso   1.00
O1136  O     0.83334   0.46041   0.81427   0.00000  Uiso   1.00
O1137  O     0.83334   0.53959   0.81427   0.00000  Uiso   1.00
O1138  O     0.83333   0.46041   0.68573   0.00000  Uiso   1.00
C1139  C     0.77538   0.38194   0.68776   0.00000  Uiso   1.00
H1140  H     0.77517   0.41914   0.68818   0.00000  Uiso   1.00
H1141  H     0.78204   0.37263   0.65354   0.00000  Uiso   1.00
H1142  H     0.74311   0.37182   0.69334   0.00000  Uiso   1.00
C1143  C     0.89254   0.61812   0.81088   0.00000  Uiso   1.00
H1144  H     0.89141   0.58094   0.81196   0.00000  Uiso   1.00
H1145  H     0.92444   0.62682   0.80263   0.00000  Uiso   1.00
H1146  H     0.88848   0.62894   0.84536   0.00000  Uiso   1.00
C1147  C     0.89129   0.38194   0.81224   0.00000  Uiso   1.00
H1148  H     0.89150   0.41914   0.81182   0.00000  Uiso   1.00
H1149  H     0.88462   0.37263   0.84646   0.00000  Uiso   1.00
H1150  H     0.92356   0.37182   0.80666   0.00000  Uiso   1.00
C1151  C     0.77412   0.61812   0.68911   0.00000  Uiso   1.00
H1152  H     0.77526   0.58094   0.68804   0.00000  Uiso   1.00
H1153  H     0.74222   0.62682   0.69737   0.00000  Uiso   1.00
H1154  H     0.77818   0.62894   0.65464   0.00000  Uiso   1.00
C1155  C     0.72064   0.49973   0.83355   0.00000  Uiso   1.00
H1156  H     0.74059   0.46856   0.83454   0.00000  Uiso   1.00
H1157  H     0.74078   0.53075   0.83475   0.00000  Uiso   1.00
H1158  H     0.70452   0.49967   0.86430   0.00000  Uiso   1.00
C1159  C     0.94603   0.49973   0.66645   0.00000  Uiso   1.00
H1160  H     0.92588   0.53075   0.66525   0.00000  Uiso   1.00
H1161  H     0.96215   0.49967   0.63570   0.00000  Uiso   1.00
H1162  H     0.92608   0.46857   0.66545   0.00000  Uiso   1.00
C1163  C     0.96196   0.50012   0.83500   0.00000  Uiso   1.00
H1164  H     0.92755   0.50029   0.83157   0.00000  Uiso   1.00
H1165  H     0.97157   0.46881   0.85426   0.00000  Uiso   1.00
H1166  H     0.97181   0.53134   0.85428   0.00000  Uiso   1.00
C1167  C     0.70470   0.50012   0.66500   0.00000  Uiso   1.00
H1168  H     0.73912   0.50030   0.66843   0.00000  Uiso   1.00
H1169  H     0.69510   0.46881   0.64574   0.00000  Uiso   1.00
H1170  H     0.69486   0.53134   0.64572   0.00000  Uiso   1.00
C1171  C     0.08771   0.83333   0.74992   0.00000  Uiso   1.00
C1172  C     0.24562   0.83333   0.75008   0.00000  Uiso   1.00
C1173  C     0.16645   0.83332   0.66514   0.00000  Uiso   1.00
C1174  C     0.16688   0.83332   0.83486   0.00000  Uiso   1.00
C1175  C     0.13944   0.69138   0.72114   0.00000  Uiso   1.00
C1176  C     0.19408   0.97531   0.77866   0.00000  Uiso   1.00
C1177  C     0.19389   0.69138   0.77886   0.00000  Uiso   1.00
C1178  C     0.13925   0.97531   0.72134   0.00000  Uiso   1.00
C1179  C     0.02533   0.83327   0.79084   0.00000  Uiso   1.00
C1180  C     0.30801   0.83327   0.70916   0.00000  Uiso   1.00
C1181  C     0.31507   0.83336   0.79119   0.00000  Uiso   1.00
C1182  C     0.01826   0.83336   0.70881   0.00000  Uiso   1.00
C1183  C     0.15394   0.87240   0.54642   0.00000  Uiso   1.00
C1184  C     0.15422   0.79374   0.95109   0.00000  Uiso   1.00
C1185  C     0.17939   0.87240   0.95358   0.00000  Uiso   1.00
C1186  C     0.17912   0.79374   0.54891   0.00000  Uiso   1.00
C1187  C     0.15417   0.87258   0.59237   0.00000  Uiso   1.00
C1188  C     0.15458   0.79372   0.90517   0.00000  Uiso   1.00
C1189  C     0.17917   0.87258   0.90763   0.00000  Uiso   1.00
C1190  C     0.17876   0.79372   0.59483   0.00000  Uiso   1.00
C1191  C     0.16644   0.83321   0.61684   0.00000  Uiso   1.00
C1192  C     0.16689   0.83321   0.88316   0.00000  Uiso   1.00
C1193  C     0.16658   0.83305   0.52430   0.00000  Uiso   1.00
C1194  C     0.16675   0.83305   0.97569   0.00000  Uiso   1.00
C1195  C     0.29040   0.83333   0.75027   0.00000  Uiso   1.00
C1196  C     0.04293   0.83333   0.74973   0.00000  Uiso   1.00
Cu1197 Cu    0.16667   0.88022   0.75000   0.00000  Uiso   1.00
Cu1198 Cu    0.16667   0.78645   0.75000   0.00000  Uiso   1.00
H1199  H     0.14342   0.90288   0.52818   0.00000  Uiso   1.00
H1200  H     0.14363   0.76322   0.96725   0.00000  Uiso   1.00
H1201  H     0.18992   0.90288   0.97182   0.00000  Uiso   1.00
H1202  H     0.18970   0.76322   0.53275   0.00000  Uiso   1.00
H1203  H     0.14424   0.90332   0.60864   0.00000  Uiso   1.00
H1204  H     0.14463   0.76305   0.88689   0.00000  Uiso   1.00
H1205  H     0.18909   0.90332   0.89136   0.00000  Uiso   1.00
H1206  H     0.18871   0.76305   0.61311   0.00000  Uiso   1.00
N1207  N     0.16667   0.95069   0.75000   0.00000  Uiso   1.00
N1208  N     0.16667   0.71598   0.75000   0.00000  Uiso   1.00
O1209  O     0.10655   0.87291   0.74999   0.00000  Uiso   1.00
O1210  O     0.22679   0.79375   0.75000   0.00000  Uiso   1.00
O1211  O     0.22679   0.87291   0.75000   0.00000  Uiso   1.00
O1212  O     0.10655   0.79375   0.74999   0.00000  Uiso   1.00
O1213  O     0.16666   0.87293   0.68573   0.00000  Uiso   1.00
O1214  O     0.16667   0.79374   0.81427   0.00000  Uiso   1.00
O1215  O     0.16667   0.87293   0.81427   0.00000  Uiso   1.00
O1216  O     0.16666   0.79374   0.68573   0.00000  Uiso   1.00
C1217  C     0.10871   0.71527   0.68776   0.00000  Uiso   1.00
H1218  H     0.10850   0.75248   0.68818   0.00000  Uiso   1.00
H1219  H     0.11538   0.70596   0.65354   0.00000  Uiso   1.00
H1220  H     0.07644   0.70515   0.69334   0.00000  Uiso   1.00
C1221  C     0.22588   0.95145   0.81088   0.00000  Uiso   1.00
H1222  H     0.22474   0.91428   0.81196   0.00000  Uiso   1.00
H1223  H     0.25778   0.96016   0.80263   0.00000  Uiso   1.00
H1224  H     0.22182   0.96228   0.84536   0.00000  Uiso   1.00
C1225  C     0.22462   0.71527   0.81224   0.00000  Uiso   1.00
H1226  H     0.22483   0.75248   0.81182   0.00000  Uiso   1.00
H1227  H     0.21796   0.70596   0.84646   0.00000  Uiso   1.00
H1228  H     0.25689   0.70515   0.80666   0.00000  Uiso   1.00
C1229  C     0.10746   0.95145   0.68911   0.00000  Uiso   1.00
H1230  H     0.10859   0.91428   0.68804   0.00000  Uiso   1.00
H1231  H     0.07556   0.96016   0.69737   0.00000  Uiso   1.00
H1232  H     0.11152   0.96228   0.65464   0.00000  Uiso   1.00
C1233  C     0.05397   0.83306   0.83355   0.00000  Uiso   1.00
H1234  H     0.07392   0.80190   0.83454   0.00000  Uiso   1.00
H1235  H     0.07412   0.86408   0.83475   0.00000  Uiso   1.00
H1236  H     0.03785   0.83300   0.86430   0.00000  Uiso   1.00
C1237  C     0.27936   0.83306   0.66645   0.00000  Uiso   1.00
H1238  H     0.25922   0.86408   0.66525   0.00000  Uiso   1.00
H1239  H     0.29548   0.83301   0.63570   0.00000  Uiso   1.00
H1240  H     0.25941   0.80190   0.66545   0.00000  Uiso   1.00
C1241  C     0.29530   0.83345   0.83500   0.00000  Uiso   1.00
H1242  H     0.26088   0.83363   0.83157   0.00000  Uiso   1.00
H1243  H     0.30490   0.80214   0.85426   0.00000  Uiso   1.00
H1244  H     0.30514   0.86468   0.85428   0.00000  Uiso   1.00
C1245  C     0.03804   0.83345   0.66500   0.00000  Uiso   1.00
H1246  H     0.07245   0.83363   0.66843   0.00000  Uiso   1.00
H1247  H     0.02843   0.80214   0.64574   0.00000  Uiso   1.00
H1248  H     0.02819   0.86468   0.64572   0.00000  Uiso   1.00
C1249  C     0.42104   0.83333   0.74992   0.00000  Uiso   1.00
C1250  C     0.57896   0.83333   0.75008   0.00000  Uiso   1.00
C1251  C     0.49979   0.83332   0.66514   0.00000  Uiso   1.00
C1252  C     0.50021   0.83332   0.83486   0.00000  Uiso   1.00
C1253  C     0.47277   0.69138   0.72114   0.00000  Uiso   1.00
C1254  C     0.52741   0.97531   0.77866   0.00000  Uiso   1.00
C1255  C     0.52723   0.69138   0.77886   0.00000  Uiso   1.00
C1256  C     0.47259   0.97531   0.72134   0.00000  Uiso   1.00
C1257  C     0.35866   0.83327   0.79084   0.00000  Uiso   1.00
C1258  C     0.64134   0.83327   0.70916   0.00000  Uiso   1.00
C1259  C     0.64841   0.83336   0.79119   0.00000  Uiso   1.00
C1260  C     0.35159   0.83336   0.70881   0.00000  Uiso   1.00
C1261  C     0.48727   0.87240   0.54642   0.00000  Uiso   1.00
C1262  C     0.48755   0.79374   0.95109   0.00000  Uiso   1.00
C1263  C     0.51273   0.87240   0.95358   0.00000  Uiso   1.00
C1264  C     0.51245   0.79374   0.54891   0.00000  Uiso   1.00
C1265  C     0.48750   0.87258   0.59237   0.00000  Uiso   1.00
C1266  C     0.48791   0.79372   0.90517   0.00000  Uiso   1.00
C1267  C     0.51250   0.87258   0.90763   0.00000  Uiso   1.00
C1268  C     0.51209   0.79372   0.59483   0.00000  Uiso   1.00
C1269  C     0.49977   0.83321   0.61684   0.00000  Uiso   1.00
C1270  C     0.50023   0.83321   0.88316   0.00000  Uiso   1.00
C1271  C     0.49992   0.83305   0.52430   0.00000  Uiso   1.00
C1272  C     0.50008   0.83305   0.97569   0.00000  Uiso   1.00
C1273  C     0.62374   0.83333   0.75027   0.00000  Uiso   1.00
C1274  C     0.37626   0.83333   0.74973   0.00000  Uiso   1.00
Cu1275 Cu    0.50000   0.88022   0.75000   0.00000  Uiso   1.00
Cu1276 Cu    0.50000   0.78645   0.75000   0.00000  Uiso   1.00
H1277  H     0.47675   0.90288   0.52818   0.00000  Uiso   1.00
H1278  H     0.47696   0.76322   0.96725   0.00000  Uiso   1.00
H1279  H     0.52325   0.90288   0.97182   0.00000  Uiso   1.00
H1280  H     0.52303   0.76322   0.53275   0.00000  Uiso   1.00
H1281  H     0.47758   0.90332   0.60864   0.00000  Uiso   1.00
H1282  H     0.47796   0.76305   0.88689   0.00000  Uiso   1.00
H1283  H     0.52242   0.90332   0.89136   0.00000  Uiso   1.00
H1284  H     0.52204   0.76305   0.61311   0.00000  Uiso   1.00
N1285  N     0.50000   0.95069   0.75000   0.00000  Uiso   1.00
N1286  N     0.50000   0.71598   0.75000   0.00000  Uiso   1.00
O1287  O     0.43988   0.87291   0.74999   0.00000  Uiso   1.00
O1288  O     0.56012   0.79375   0.75000   0.00000  Uiso   1.00
O1289  O     0.56012   0.87291   0.75000   0.00000  Uiso   1.00
O1290  O     0.43988   0.79375   0.74999   0.00000  Uiso   1.00
O1291  O     0.50000   0.87293   0.68573   0.00000  Uiso   1.00
O1292  O     0.50000   0.79374   0.81427   0.00000  Uiso   1.00
O1293  O     0.50000   0.87293   0.81427   0.00000  Uiso   1.00
O1294  O     0.50000   0.79374   0.68573   0.00000  Uiso   1.00
C1295  C     0.44204   0.71527   0.68776   0.00000  Uiso   1.00
H1296  H     0.44184   0.75248   0.68818   0.00000  Uiso   1.00
H1297  H     0.44871   0.70596   0.65354   0.00000  Uiso   1.00
H1298  H     0.40977   0.70515   0.69334   0.00000  Uiso   1.00
C1299  C     0.55921   0.95145   0.81088   0.00000  Uiso   1.00
H1300  H     0.55807   0.91428   0.81196   0.00000  Uiso   1.00
H1301  H     0.59111   0.96016   0.80263   0.00000  Uiso   1.00
H1302  H     0.55515   0.96228   0.84536   0.00000  Uiso   1.00
C1303  C     0.55796   0.71527   0.81224   0.00000  Uiso   1.00
H1304  H     0.55816   0.75248   0.81182   0.00000  Uiso   1.00
H1305  H     0.55129   0.70596   0.84646   0.00000  Uiso   1.00
H1306  H     0.59023   0.70515   0.80666   0.00000  Uiso   1.00
C1307  C     0.44079   0.95145   0.68911   0.00000  Uiso   1.00
H1308  H     0.44193   0.91428   0.68804   0.00000  Uiso   1.00
H1309  H     0.40889   0.96016   0.69737   0.00000  Uiso   1.00
H1310  H     0.44485   0.96228   0.65464   0.00000  Uiso   1.00
C1311  C     0.38731   0.83306   0.83355   0.00000  Uiso   1.00
H1312  H     0.40726   0.80190   0.83454   0.00000  Uiso   1.00
H1313  H     0.40745   0.86408   0.83475   0.00000  Uiso   1.00
H1314  H     0.37118   0.83300   0.86430   0.00000  Uiso   1.00
C1315  C     0.61269   0.83306   0.66645   0.00000  Uiso   1.00
H1316  H     0.59255   0.86408   0.66525   0.00000  Uiso   1.00
H1317  H     0.62881   0.83301   0.63570   0.00000  Uiso   1.00
H1318  H     0.59274   0.80190   0.66545   0.00000  Uiso   1.00
C1319  C     0.62863   0.83345   0.83500   0.00000  Uiso   1.00
H1320  H     0.59421   0.83363   0.83157   0.00000  Uiso   1.00
H1321  H     0.63823   0.80214   0.85426   0.00000  Uiso   1.00
H1322  H     0.63848   0.86468   0.85428   0.00000  Uiso   1.00
C1323  C     0.37137   0.83345   0.66500   0.00000  Uiso   1.00
H1324  H     0.40579   0.83363   0.66843   0.00000  Uiso   1.00
H1325  H     0.36177   0.80214   0.64574   0.00000  Uiso   1.00
H1326  H     0.36152   0.86468   0.64572   0.00000  Uiso   1.00
C1327  C     0.75438   0.83333   0.74992   0.00000  Uiso   1.00
C1328  C     0.91229   0.83333   0.75008   0.00000  Uiso   1.00
C1329  C     0.83312   0.83332   0.66514   0.00000  Uiso   1.00
C1330  C     0.83355   0.83332   0.83486   0.00000  Uiso   1.00
C1331  C     0.80611   0.69138   0.72114   0.00000  Uiso   1.00
C1332  C     0.86075   0.97531   0.77866   0.00000  Uiso   1.00
C1333  C     0.86056   0.69138   0.77886   0.00000  Uiso   1.00
C1334  C     0.80592   0.97531   0.72134   0.00000  Uiso   1.00
C1335  C     0.69199   0.83327   0.79084   0.00000  Uiso   1.00
C1336  C     0.97467   0.83327   0.70916   0.00000  Uiso   1.00
C1337  C     0.98174   0.83336   0.79119   0.00000  Uiso   1.00
C1338  C     0.68493   0.83336   0.70881   0.00000  Uiso   1.00
C1339  C     0.82061   0.87240   0.54642   0.00000  Uiso   1.00
C1340  C     0.82088   0.79374   0.95109   0.00000  Uiso   1.00
C1341  C     0.84606   0.87240   0.95358   0.00000  Uiso   1.00
C1342  C     0.84578   0.79374   0.54891   0.00000  Uiso   1.00
C1343  C     0.82083   0.87258   0.59237   0.00000  Uiso   1.00
C1344  C     0.82124   0.79372   0.90517   0.00000  Uiso   1.00
C1345  C     0.84583   0.87258   0.90763   0.00000  Uiso   1.00
C1346  C     0.84542   0.79372   0.59483   0.00000  Uiso   1.00
C1347  C     0.83310   0.83321   0.61684   0.00000  Uiso   1.00
C1348  C     0.83356   0.83321   0.88316   0.00000  Uiso   1.00
C1349  C     0.83325   0.83305   0.52430   0.00000  Uiso   1.00
C1350  C     0.83342   0.83305   0.97569   0.00000  Uiso   1.00
C1351  C     0.95707   0.83333   0.75027   0.00000  Uiso   1.00
C1352  C     0.70960   0.83333   0.74973   0.00000  Uiso   1.00
Cu1353 Cu    0.83333   0.88022   0.75000   0.00000  Uiso   1.00
Cu1354 Cu    0.83333   0.78645   0.75000   0.00000  Uiso   1.00
H1355  H     0.81008   0.90288   0.52818   0.00000  Uiso   1.00
H1356  H     0.81030   0.76322   0.96725   0.00000  Uiso   1.00
H1357  H     0.85658   0.90288   0.97182   0.00000  Uiso   1.00
H1358  H     0.85637   0.76322   0.53275   0.00000  Uiso   1.00
H1359  H     0.81091   0.90332   0.60864   0.00000  Uiso   1.00
H1360  H     0.81129   0.76305   0.88689   0.00000  Uiso   1.00
H1361  H     0.85576   0.90332   0.89136   0.00000  Uiso   1.00
H1362  H     0.85537   0.76305   0.61311   0.00000  Uiso   1.00
N1363  N     0.83333   0.95069   0.75000   0.00000  Uiso   1.00
N1364  N     0.83333   0.71598   0.75000   0.00000  Uiso   1.00
O1365  O     0.77321   0.87291   0.74999   0.00000  Uiso   1.00
O1366  O     0.89345   0.79375   0.75000   0.00000  Uiso   1.00
O1367  O     0.89345   0.87291   0.75000   0.00000  Uiso   1.00
O1368  O     0.77321   0.79375   0.74999   0.00000  Uiso   1.00
O1369  O     0.83333   0.87293   0.68573   0.00000  Uiso   1.00
O1370  O     0.83334   0.79374   0.81427   0.00000  Uiso   1.00
O1371  O     0.83334   0.87293   0.81427   0.00000  Uiso   1.00
O1372  O     0.83333   0.79374   0.68573   0.00000  Uiso   1.00
C1373  C     0.77538   0.71527   0.68776   0.00000  Uiso   1.00
H1374  H     0.77517   0.75248   0.68818   0.00000  Uiso   1.00
H1375  H     0.78204   0.70596   0.65354   0.00000  Uiso   1.00
H1376  H     0.74311   0.70515   0.69334   0.00000  Uiso   1.00
C1377  C     0.89254   0.95145   0.81088   0.00000  Uiso   1.00
H1378  H     0.89141   0.91428   0.81196   0.00000  Uiso   1.00
H1379  H     0.92444   0.96016   0.80263   0.00000  Uiso   1.00
H1380  H     0.88848   0.96228   0.84536   0.00000  Uiso   1.00
C1381  C     0.89129   0.71527   0.81224   0.00000  Uiso   1.00
H1382  H     0.89150   0.75248   0.81182   0.00000  Uiso   1.00
H1383  H     0.88462   0.70596   0.84646   0.00000  Uiso   1.00
H1384  H     0.92356   0.70515   0.80666   0.00000  Uiso   1.00
C1385  C     0.77412   0.95145   0.68911   0.00000  Uiso   1.00
H1386  H     0.77526   0.91428   0.68804   0.00000  Uiso   1.00
H1387  H     0.74222   0.96016   0.69737   0.00000  Uiso   1.00
H1388  H     0.77818   0.96228   0.65464   0.00000  Uiso   1.00
C1389  C     0.72064   0.83306   0.83355   0.00000  Uiso   1.00
H1390  H     0.74059   0.80190   0.83454   0.00000  Uiso   1.00
H1391  H     0.74078   0.86408   0.83475   0.00000  Uiso   1.00
H1392  H     0.70452   0.83300   0.86430   0.00000  Uiso   1.00
C1393  C     0.94603   0.83306   0.66645   0.00000  Uiso   1.00
H1394  H     0.92588   0.86408   0.66525   0.00000  Uiso   1.00
H1395  H     0.96215   0.83301   0.63570   0.00000  Uiso   1.00
H1396  H     0.92608   0.80190   0.66545   0.00000  Uiso   1.00
C1397  C     0.96196   0.83345   0.83500   0.00000  Uiso   1.00
H1398  H     0.92755   0.83363   0.83157   0.00000  Uiso   1.00
H1399  H     0.97157   0.80214   0.85426   0.00000  Uiso   1.00
H1400  H     0.97181   0.86468   0.85428   0.00000  Uiso   1.00
C1401  C     0.70470   0.83345   0.66500   0.00000  Uiso   1.00
H1402  H     0.73912   0.83363   0.66843   0.00000  Uiso   1.00
H1403  H     0.69510   0.80214   0.64574   0.00000  Uiso   1.00
H1404  H     0.69486   0.86468   0.64572   0.00000  Uiso   1.00
loop_
_geom_bond_atom_site_label_1
_geom_bond_atom_site_label_2
_geom_bond_distance
_geom_bond_site_symmetry_2
_ccdc_geom_bond_type
C1     C26     1.445   .     S
C1     O39     1.301   .     A
C1     O42     1.301   .     A
C2     O41     1.301   .     A
C2     C25     1.445   .     S
C2     O40     1.301   .     A
C3     O43     1.309   .     A
C3     C21     1.462   .     S
C3     O46     1.308   .     A
C4     O45     1.309   .     A
C4     O44     1.308   .     A
C4     C22     1.462   .     S
C5     C47     1.520   .     S
C5     N38     1.383   .     A
C5     C476    1.436   1_545 S
C6     C51     1.520   .     S
C6     N37     1.383   .     A
C6     C241    1.436   .     S
C7     C55     1.520   .     S
C7     N38     1.383   .     A
C7     C474    1.436   1_545 S
C8     C59     1.520   .     S
C8     N37     1.383   .     A
C8     C239    1.436   .     S
C9     C63     1.522   .     S
C9     C26     1.412   .     A
C9     C167    1.408   1_455 S
C10    C67     1.522   .     S
C10    C25     1.412   .     A
C10    C90     1.408   .     S
C11    C71     1.521   .     S
C11    C25     1.413   .     A
C11    C87     1.408   .     S
C12    C75     1.521   .     S
C12    C26     1.413   .     A
C12    C166    1.408   1_455 S
C13    H29     1.083   .     S
C13    C23     1.404   .     A
C13    C17     1.390   .     A
C14    C18     1.390   .     A
C14    C24     1.404   .     A
C14    H30     1.083   .     S
C15    C19     1.390   .     A
C15    C24     1.404   .     A
C15    H31     1.083   .     S
C16    C20     1.390   .     A
C16    C23     1.404   .     A
C16    H32     1.083   .     S
C17    H33     1.082   .     S
C17    C21     1.401   .     A
C18    H34     1.083   .     S
C18    C22     1.402   .     A
C19    C22     1.401   .     A
C19    H35     1.082   .     S
C20    H36     1.083   .     S
C20    C21     1.402   .     A
C23    C726    1.472   1_554 S
C24    C725    1.472   .     S
Cu27   O39     1.952   .     S
Cu27   O45     1.957   .     S
Cu27   O43     1.957   .     S
Cu27   O41     1.952   .     S
Cu27   N37     2.049   .     S
Cu27   Cu28    2.726   .     S
Cu28   O46     1.957   .     S
Cu28   O40     1.952   .     S
Cu28   O44     1.957   .     S
Cu28   N38     2.049   .     S
Cu28   O42     1.952   .     S
C47    H49     1.109   .     S
C47    H50     1.109   .     S
C47    H48     1.082   .     S
C51    H52     1.082   .     S
C51    H53     1.110   .     S
C51    H54     1.108   .     S
C55    H56     1.082   .     S
C55    H57     1.109   .     S
C55    H58     1.109   .     S
C59    H60     1.082   .     S
C59    H61     1.110   .     S
C59    H62     1.108   .     S
C63    H65     1.110   .     S
C63    H66     1.105   .     S
C63    H64     1.110   .     S
C67    H68     1.110   .     S
C67    H70     1.110   .     S
C67    H69     1.105   .     S
C71    H73     1.110   .     S
C71    H74     1.110   .     S
C71    H72     1.107   .     S
C75    H77     1.110   .     S
C75    H76     1.107   .     S
C75    H78     1.110   .     S
C79    C104    1.445   .     S
C79    O117    1.301   .     A
C79    O120    1.301   .     A
C80    O119    1.301   .     A
C80    C103    1.445   .     S
C80    O118    1.301   .     A
C81    O121    1.309   .     A
C81    C99     1.462   .     S
C81    O124    1.308   .     A
C82    O123    1.309   .     A
C82    O122    1.308   .     A
C82    C100    1.462   .     S
C83    C125    1.520   .     S
C83    N116    1.383   .     A
C83    C554    1.436   1_545 S
C84    C129    1.520   .     S
C84    N115    1.383   .     A
C84    C319    1.436   .     S
C85    C133    1.520   .     S
C85    N116    1.383   .     A
C85    C552    1.436   1_545 S
C86    C137    1.520   .     S
C86    N115    1.383   .     A
C86    C317    1.436   .     S
C87    C141    1.522   .     S
C87    C104    1.412   .     A
C88    C145    1.522   .     S
C88    C103    1.412   .     A
C88    C168    1.408   .     S
C89    C149    1.521   .     S
C89    C103    1.413   .     A
C89    C165    1.408   .     S
C90    C153    1.521   .     S
C90    C104    1.413   .     A
C91    H107    1.083   .     S
C91    C101    1.404   .     A
C91    C95     1.390   .     A
C92    C96     1.390   .     A
C92    C102    1.404   .     A
C92    H108    1.083   .     S
C93    C97     1.390   .     A
C93    C102    1.404   .     A
C93    H109    1.083   .     S
C94    C98     1.390   .     A
C94    C101    1.404   .     A
C94    H110    1.083   .     S
C95    H111    1.082   .     S
C95    C99     1.401   .     A
C96    H112    1.083   .     S
C96    C100    1.402   .     A
C97    C100    1.401   .     A
C97    H113    1.082   .     S
C98    H114    1.083   .     S
C98    C99     1.402   .     A
C101   C804    1.472   1_554 S
C102   C803    1.472   .     S
Cu105  O117    1.952   .     S
Cu105  O123    1.957   .     S
Cu105  O121    1.957   .     S
Cu105  O119    1.952   .     S
Cu105  N115    2.049   .     S
Cu105  Cu106   2.726   .     S
Cu106  O124    1.957   .     S
Cu106  O118    1.952   .     S
Cu106  O122    1.957   .     S
Cu106  N116    2.049   .     S
Cu106  O120    1.952   .     S
C125   H127    1.109   .     S
C125   H128    1.109   .     S
C125   H126    1.082   .     S
C129   H130    1.082   .     S
C129   H131    1.110   .     S
C129   H132    1.108   .     S
C133   H134    1.082   .     S
C133   H135    1.109   .     S
C133   H136    1.109   .     S
C137   H138    1.082   .     S
C137   H139    1.110   .     S
C137   H140    1.108   .     S
C141   H143    1.110   .     S
C141   H144    1.105   .     S
C141   H142    1.110   .     S
C145   H146    1.110   .     S
C145   H148    1.110   .     S
C145   H147    1.105   .     S
C149   H151    1.110   .     S
C149   H152    1.110   .     S
C149   H150    1.107   .     S
C153   H155    1.110   .     S
C153   H154    1.107   .     S
C153   H156    1.110   .     S
C157   C182    1.445   .     S
C157   O195    1.301   .     A
C157   O198    1.301   .     A
C158   O197    1.301   .     A
C158   C181    1.445   .     S
C158   O196    1.301   .     A
C159   O199    1.309   .     A
C159   C177    1.462   .     S
C159   O202    1.308   .     A
C160   O201    1.309   .     A
C160   O200    1.308   .     A
C160   C178    1.462   .     S
C161   C203    1.520   .     S
C161   N194    1.383   .     A
C161   C632    1.436   1_545 S
C162   C207    1.520   .     S
C162   N193    1.383   .     A
C162   C397    1.436   .     S
C163   C211    1.520   .     S
C163   N194    1.383   .     A
C163   C630    1.436   1_545 S
C164   C215    1.520   .     S
C164   N193    1.383   .     A
C164   C395    1.436   .     S
C165   C219    1.522   .     S
C165   C182    1.412   .     A
C166   C223    1.522   .     S
C166   C181    1.412   .     A
C166   C12     1.408   1_655 S
C167   C227    1.521   .     S
C167   C181    1.413   .     A
C167   C9      1.408   1_655 S
C168   C231    1.521   .     S
C168   C182    1.413   .     A
C169   H185    1.083   .     S
C169   C179    1.404   .     A
C169   C173    1.390   .     A
C170   C174    1.390   .     A
C170   C180    1.404   .     A
C170   H186    1.083   .     S
C171   C175    1.390   .     A
C171   C180    1.404   .     A
C171   H187    1.083   .     S
C172   C176    1.390   .     A
C172   C179    1.404   .     A
C172   H188    1.083   .     S
C173   H189    1.082   .     S
C173   C177    1.401   .     A
C174   H190    1.083   .     S
C174   C178    1.402   .     A
C175   C178    1.401   .     A
C175   H191    1.082   .     S
C176   H192    1.083   .     S
C176   C177    1.402   .     A
C179   C882    1.472   1_554 S
C180   C881    1.472   .     S
Cu183  O195    1.952   .     S
Cu183  O201    1.957   .     S
Cu183  O199    1.957   .     S
Cu183  O197    1.952   .     S
Cu183  N193    2.049   .     S
Cu183  Cu184   2.726   .     S
Cu184  O202    1.957   .     S
Cu184  O196    1.952   .     S
Cu184  O200    1.957   .     S
Cu184  N194    2.049   .     S
Cu184  O198    1.952   .     S
C203   H205    1.109   .     S
C203   H206    1.109   .     S
C203   H204    1.082   .     S
C207   H208    1.082   .     S
C207   H209    1.110   .     S
C207   H210    1.108   .     S
C211   H212    1.082   .     S
C211   H213    1.109   .     S
C211   H214    1.109   .     S
C215   H216    1.082   .     S
C215   H217    1.110   .     S
C215   H218    1.108   .     S
C219   H221    1.110   .     S
C219   H222    1.105   .     S
C219   H220    1.110   .     S
C223   H224    1.110   .     S
C223   H226    1.110   .     S
C223   H225    1.105   .     S
C227   H229    1.110   .     S
C227   H230    1.110   .     S
C227   H228    1.107   .     S
C231   H233    1.110   .     S
C231   H232    1.107   .     S
C231   H234    1.110   .     S
C235   C260    1.445   .     S
C235   O273    1.301   .     A
C235   O276    1.301   .     A
C236   O275    1.301   .     A
C236   C259    1.445   .     S
C236   O274    1.301   .     A
C237   O277    1.309   .     A
C237   C255    1.462   .     S
C237   O280    1.308   .     A
C238   O279    1.309   .     A
C238   O278    1.308   .     A
C238   C256    1.462   .     S
C239   C281    1.520   .     S
C239   N272    1.383   .     A
C240   C285    1.520   .     S
C240   N271    1.383   .     A
C240   C475    1.436   .     S
C241   C289    1.520   .     S
C241   N272    1.383   .     A
C242   C293    1.520   .     S
C242   N271    1.383   .     A
C242   C473    1.436   .     S
C243   C297    1.522   .     S
C243   C260    1.412   .     A
C243   C401    1.408   1_455 S
C244   C301    1.522   .     S
C244   C259    1.412   .     A
C244   C324    1.408   .     S
C245   C305    1.521   .     S
C245   C259    1.413   .     A
C245   C321    1.408   .     S
C246   C309    1.521   .     S
C246   C260    1.413   .     A
C246   C400    1.408   1_455 S
C247   H263    1.083   .     S
C247   C257    1.404   .     A
C247   C251    1.390   .     A
C248   C252    1.390   .     A
C248   C258    1.404   .     A
C248   H264    1.083   .     S
C249   C253    1.390   .     A
C249   C258    1.404   .     A
C249   H265    1.083   .     S
C250   C254    1.390   .     A
C250   C257    1.404   .     A
C250   H266    1.083   .     S
C251   H267    1.082   .     S
C251   C255    1.401   .     A
C252   H268    1.083   .     S
C252   C256    1.402   .     A
C253   C256    1.401   .     A
C253   H269    1.082   .     S
C254   H270    1.083   .     S
C254   C255    1.402   .     A
C257   C960    1.472   1_554 S
C258   C959    1.472   .     S
Cu261  O273    1.952   .     S
Cu261  O279    1.957   .     S
Cu261  O277    1.957   .     S
Cu261  O275    1.952   .     S
Cu261  N271    2.049   .     S
Cu261  Cu262   2.726   .     S
Cu262  O280    1.957   .     S
Cu262  O274    1.952   .     S
Cu262  O278    1.957   .     S
Cu262  N272    2.049   .     S
Cu262  O276    1.952   .     S
C281   H283    1.109   .     S
C281   H284    1.109   .     S
C281   H282    1.082   .     S
C285   H286    1.082   .     S
C285   H287    1.110   .     S
C285   H288    1.108   .     S
C289   H290    1.082   .     S
C289   H291    1.109   .     S
C289   H292    1.109   .     S
C293   H294    1.082   .     S
C293   H295    1.110   .     S
C293   H296    1.108   .     S
C297   H299    1.110   .     S
C297   H300    1.105   .     S
C297   H298    1.110   .     S
C301   H302    1.110   .     S
C301   H304    1.110   .     S
C301   H303    1.105   .     S
C305   H307    1.110   .     S
C305   H308    1.110   .     S
C305   H306    1.107   .     S
C309   H311    1.110   .     S
C309   H310    1.107   .     S
C309   H312    1.110   .     S
C313   C338    1.445   .     S
C313   O351    1.301   .     A
C313   O354    1.301   .     A
C314   O353    1.301   .     A
C314   C337    1.445   .     S
C314   O352    1.301   .     A
C315   O355    1.309   .     A
C315   C333    1.462   .     S
C315   O358    1.308   .     A
C316   O357    1.309   .     A
C316   O356    1.308   .     A
C316   C334    1.462   .     S
C317   C359    1.520   .     S
C317   N350    1.383   .     A
C318   C363    1.520   .     S
C318   N349    1.383   .     A
C318   C553    1.436   .     S
C319   C367    1.520   .     S
C319   N350    1.383   .     A
C320   C371    1.520   .     S
C320   N349    1.383   .     A
C320   C551    1.436   .     S
C321   C375    1.522   .     S
C321   C338    1.412   .     A
C322   C379    1.522   .     S
C322   C337    1.412   .     A
C322   C402    1.408   .     S
C323   C383    1.521   .     S
C323   C337    1.413   .     A
C323   C399    1.408   .     S
C324   C387    1.521   .     S
C324   C338    1.413   .     A
C325   H341    1.083   .     S
C325   C335    1.404   .     A
C325   C329    1.390   .     A
C326   C330    1.390   .     A
C326   C336    1.404   .     A
C326   H342    1.083   .     S
C327   C331    1.390   .     A
C327   C336    1.404   .     A
C327   H343    1.083   .     S
C328   C332    1.390   .     A
C328   C335    1.404   .     A
C328   H344    1.083   .     S
C329   H345    1.082   .     S
C329   C333    1.401   .     A
C330   H346    1.083   .     S
C330   C334    1.402   .     A
C331   C334    1.401   .     A
C331   H347    1.082   .     S
C332   H348    1.083   .     S
C332   C333    1.402   .     A
C335   C1038   1.472   1_554 S
C336   C1037   1.472   .     S
Cu339  O351    1.952   .     S
Cu339  O357    1.957   .     S
Cu339  O355    1.957   .     S
Cu339  O353    1.952   .     S
Cu339  N349    2.049   .     S
Cu339  Cu340   2.726   .     S
Cu340  O358    1.957   .     S
Cu340  O352    1.952   .     S
Cu340  O356    1.957   .     S
Cu340  N350    2.049   .     S
Cu340  O354    1.952   .     S
C359   H361    1.109   .     S
C359   H362    1.109   .     S
C359   H360    1.082   .     S
C363   H364    1.082   .     S
C363   H365    1.110   .     S
C363   H366    1.108   .     S
C367   H368    1.082   .     S
C367   H369    1.109   .     S
C367   H370    1.109   .     S
C371   H372    1.082   .     S
C371   H373    1.110   .     S
C371   H374    1.108   .     S
C375   H377    1.110   .     S
C375   H378    1.105   .     S
C375   H376    1.110   .     S
C379   H380    1.110   .     S
C379   H382    1.110   .     S
C379   H381    1.105   .     S
C383   H385    1.110   .     S
C383   H386    1.110   .     S
C383   H384    1.107   .     S
C387   H389    1.110   .     S
C387   H388    1.107   .     S
C387   H390    1.110   .     S
C391   C416    1.445   .     S
C391   O429    1.301   .     A
C391   O432    1.301   .     A
C392   O431    1.301   .     A
C392   C415    1.445   .     S
C392   O430    1.301   .     A
C393   O433    1.309   .     A
C393   C411    1.462   .     S
C393   O436    1.308   .     A
C394   O435    1.309   .     A
C394   O434    1.308   .     A
C394   C412    1.462   .     S
C395   C437    1.520   .     S
C395   N428    1.383   .     A
C396   C441    1.520   .     S
C396   N427    1.383   .     A
C396   C631    1.436   .     S
C397   C445    1.520   .     S
C397   N428    1.383   .     A
C398   C449    1.520   .     S
C398   N427    1.383   .     A
C398   C629    1.436   .     S
C399   C453    1.522   .     S
C399   C416    1.412   .     A
C400   C457    1.522   .     S
C400   C415    1.412   .     A
C400   C246    1.408   1_655 S
C401   C461    1.521   .     S
C401   C415    1.413   .     A
C401   C243    1.408   1_655 S
C402   C465    1.521   .     S
C402   C416    1.413   .     A
C403   H419    1.083   .     S
C403   C413    1.404   .     A
C403   C407    1.390   .     A
C404   C408    1.390   .     A
C404   C414    1.404   .     A
C404   H420    1.083   .     S
C405   C409    1.390   .     A
C405   C414    1.404   .     A
C405   H421    1.083   .     S
C406   C410    1.390   .     A
C406   C413    1.404   .     A
C406   H422    1.083   .     S
C407   H423    1.082   .     S
C407   C411    1.401   .     A
C408   H424    1.083   .     S
C408   C412    1.402   .     A
C409   C412    1.401   .     A
C409   H425    1.082   .     S
C410   H426    1.083   .     S
C410   C411    1.402   .     A
C413   C1116   1.472   1_554 S
C414   C1115   1.472   .     S
Cu417  O429    1.952   .     S
Cu417  O435    1.957   .     S
Cu417  O433    1.957   .     S
Cu417  O431    1.952   .     S
Cu417  N427    2.049   .     S
Cu417  Cu418   2.726   .     S
Cu418  O436    1.957   .     S
Cu418  O430    1.952   .     S
Cu418  O434    1.957   .     S
Cu418  N428    2.049   .     S
Cu418  O432    1.952   .     S
C437   H439    1.109   .     S
C437   H440    1.109   .     S
C437   H438    1.082   .     S
C441   H442    1.082   .     S
C441   H443    1.110   .     S
C441   H444    1.108   .     S
C445   H446    1.082   .     S
C445   H447    1.109   .     S
C445   H448    1.109   .     S
C449   H450    1.082   .     S
C449   H451    1.110   .     S
C449   H452    1.108   .     S
C453   H455    1.110   .     S
C453   H456    1.105   .     S
C453   H454    1.110   .     S
C457   H458    1.110   .     S
C457   H460    1.110   .     S
C457   H459    1.105   .     S
C461   H463    1.110   .     S
C461   H464    1.110   .     S
C461   H462    1.107   .     S
C465   H467    1.110   .     S
C465   H466    1.107   .     S
C465   H468    1.110   .     S
C469   C494    1.445   .     S
C469   O507    1.301   .     A
C469   O510    1.301   .     A
C470   O509    1.301   .     A
C470   C493    1.445   .     S
C470   O508    1.301   .     A
C471   O511    1.309   .     A
C471   C489    1.462   .     S
C471   O514    1.308   .     A
C472   O513    1.309   .     A
C472   O512    1.308   .     A
C472   C490    1.462   .     S
C473   C515    1.520   .     S
C473   N506    1.383   .     A
C474   C519    1.520   .     S
C474   N505    1.383   .     A
C474   C7      1.436   1_565 S
C475   C523    1.520   .     S
C475   N506    1.383   .     A
C476   C527    1.520   .     S
C476   N505    1.383   .     A
C476   C5      1.436   1_565 S
C477   C531    1.522   .     S
C477   C494    1.412   .     A
C477   C635    1.408   1_455 S
C478   C535    1.522   .     S
C478   C493    1.412   .     A
C478   C558    1.408   .     S
C479   C539    1.521   .     S
C479   C493    1.413   .     A
C479   C555    1.408   .     S
C480   C543    1.521   .     S
C480   C494    1.413   .     A
C480   C634    1.408   1_455 S
C481   H497    1.083   .     S
C481   C491    1.404   .     A
C481   C485    1.390   .     A
C482   C486    1.390   .     A
C482   C492    1.404   .     A
C482   H498    1.083   .     S
C483   C487    1.390   .     A
C483   C492    1.404   .     A
C483   H499    1.083   .     S
C484   C488    1.390   .     A
C484   C491    1.404   .     A
C484   H500    1.083   .     S
C485   H501    1.082   .     S
C485   C489    1.401   .     A
C486   H502    1.083   .     S
C486   C490    1.402   .     A
C487   C490    1.401   .     A
C487   H503    1.082   .     S
C488   H504    1.083   .     S
C488   C489    1.402   .     A
C491   C1194   1.472   1_554 S
C492   C1193   1.472   .     S
Cu495  O507    1.952   .     S
Cu495  O513    1.957   .     S
Cu495  O511    1.957   .     S
Cu495  O509    1.952   .     S
Cu495  N505    2.049   .     S
Cu495  Cu496   2.726   .     S
Cu496  O514    1.957   .     S
Cu496  O508    1.952   .     S
Cu496  O512    1.957   .     S
Cu496  N506    2.049   .     S
Cu496  O510    1.952   .     S
C515   H517    1.109   .     S
C515   H518    1.109   .     S
C515   H516    1.082   .     S
C519   H520    1.082   .     S
C519   H521    1.110   .     S
C519   H522    1.108   .     S
C523   H524    1.082   .     S
C523   H525    1.109   .     S
C523   H526    1.109   .     S
C527   H528    1.082   .     S
C527   H529    1.110   .     S
C527   H530    1.108   .     S
C531   H533    1.110   .     S
C531   H534    1.105   .     S
C531   H532    1.110   .     S
C535   H536    1.110   .     S
C535   H538    1.110   .     S
C535   H537    1.105   .     S
C539   H541    1.110   .     S
C539   H542    1.110   .     S
C539   H540    1.107   .     S
C543   H545    1.110   .     S
C543   H544    1.107   .     S
C543   H546    1.110   .     S
C547   C572    1.445   .     S
C547   O585    1.301   .     A
C547   O588    1.301   .     A
C548   O587    1.301   .     A
C548   C571    1.445   .     S
C548   O586    1.301   .     A
C549   O589    1.309   .     A
C549   C567    1.462   .     S
C549   O592    1.308   .     A
C550   O591    1.309   .     A
C550   O590    1.308   .     A
C550   C568    1.462   .     S
C551   C593    1.520   .     S
C551   N584    1.383   .     A
C552   C597    1.520   .     S
C552   N583    1.383   .     A
C552   C85     1.436   1_565 S
C553   C601    1.520   .     S
C553   N584    1.383   .     A
C554   C605    1.520   .     S
C554   N583    1.383   .     A
C554   C83     1.436   1_565 S
C555   C609    1.522   .     S
C555   C572    1.412   .     A
C556   C613    1.522   .     S
C556   C571    1.412   .     A
C556   C636    1.408   .     S
C557   C617    1.521   .     S
C557   C571    1.413   .     A
C557   C633    1.408   .     S
C558   C621    1.521   .     S
C558   C572    1.413   .     A
C559   H575    1.083   .     S
C559   C569    1.404   .     A
C559   C563    1.390   .     A
C560   C564    1.390   .     A
C560   C570    1.404   .     A
C560   H576    1.083   .     S
C561   C565    1.390   .     A
C561   C570    1.404   .     A
C561   H577    1.083   .     S
C562   C566    1.390   .     A
C562   C569    1.404   .     A
C562   H578    1.083   .     S
C563   H579    1.082   .     S
C563   C567    1.401   .     A
C564   H580    1.083   .     S
C564   C568    1.402   .     A
C565   C568    1.401   .     A
C565   H581    1.082   .     S
C566   H582    1.083   .     S
C566   C567    1.402   .     A
C569   C1272   1.472   1_554 S
C570   C1271   1.472   .     S
Cu573  O585    1.952   .     S
Cu573  O591    1.957   .     S
Cu573  O589    1.957   .     S
Cu573  O587    1.952   .     S
Cu573  N583    2.049   .     S
Cu573  Cu574   2.726   .     S
Cu574  O592    1.957   .     S
Cu574  O586    1.952   .     S
Cu574  O590    1.957   .     S
Cu574  N584    2.049   .     S
Cu574  O588    1.952   .     S
C593   H595    1.109   .     S
C593   H596    1.109   .     S
C593   H594    1.082   .     S
C597   H598    1.082   .     S
C597   H599    1.110   .     S
C597   H600    1.108   .     S
C601   H602    1.082   .     S
C601   H603    1.109   .     S
C601   H604    1.109   .     S
C605   H606    1.082   .     S
C605   H607    1.110   .     S
C605   H608    1.108   .     S
C609   H611    1.110   .     S
C609   H612    1.105   .     S
C609   H610    1.110   .     S
C613   H614    1.110   .     S
C613   H616    1.110   .     S
C613   H615    1.105   .     S
C617   H619    1.110   .     S
C617   H620    1.110   .     S
C617   H618    1.107   .     S
C621   H623    1.110   .     S
C621   H622    1.107   .     S
C621   H624    1.110   .     S
C625   C650    1.445   .     S
C625   O663    1.301   .     A
C625   O666    1.301   .     A
C626   O665    1.301   .     A
C626   C649    1.445   .     S
C626   O664    1.301   .     A
C627   O667    1.309   .     A
C627   C645    1.462   .     S
C627   O670    1.308   .     A
C628   O669    1.309   .     A
C628   O668    1.308   .     A
C628   C646    1.462   .     S
C629   C671    1.520   .     S
C629   N662    1.383   .     A
C630   C675    1.520   .     S
C630   N661    1.383   .     A
C630   C163    1.436   1_565 S
C631   C679    1.520   .     S
C631   N662    1.383   .     A
C632   C683    1.520   .     S
C632   N661    1.383   .     A
C632   C161    1.436   1_565 S
C633   C687    1.522   .     S
C633   C650    1.412   .     A
C634   C691    1.522   .     S
C634   C649    1.412   .     A
C634   C480    1.408   1_655 S
C635   C695    1.521   .     S
C635   C649    1.413   .     A
C635   C477    1.408   1_655 S
C636   C699    1.521   .     S
C636   C650    1.413   .     A
C637   H653    1.083   .     S
C637   C647    1.404   .     A
C637   C641    1.390   .     A
C638   C642    1.390   .     A
C638   C648    1.404   .     A
C638   H654    1.083   .     S
C639   C643    1.390   .     A
C639   C648    1.404   .     A
C639   H655    1.083   .     S
C640   C644    1.390   .     A
C640   C647    1.404   .     A
C640   H656    1.083   .     S
C641   H657    1.082   .     S
C641   C645    1.401   .     A
C642   H658    1.083   .     S
C642   C646    1.402   .     A
C643   C646    1.401   .     A
C643   H659    1.082   .     S
C644   H660    1.083   .     S
C644   C645    1.402   .     A
C647   C1350   1.472   1_554 S
C648   C1349   1.472   .     S
Cu651  O663    1.952   .     S
Cu651  O669    1.957   .     S
Cu651  O667    1.957   .     S
Cu651  O665    1.952   .     S
Cu651  N661    2.049   .     S
Cu651  Cu652   2.726   .     S
Cu652  O670    1.957   .     S
Cu652  O664    1.952   .     S
Cu652  O668    1.957   .     S
Cu652  N662    2.049   .     S
Cu652  O666    1.952   .     S
C671   H673    1.109   .     S
C671   H674    1.109   .     S
C671   H672    1.082   .     S
C675   H676    1.082   .     S
C675   H677    1.110   .     S
C675   H678    1.108   .     S
C679   H680    1.082   .     S
C679   H681    1.109   .     S
C679   H682    1.109   .     S
C683   H684    1.082   .     S
C683   H685    1.110   .     S
C683   H686    1.108   .     S
C687   H689    1.110   .     S
C687   H690    1.105   .     S
C687   H688    1.110   .     S
C691   H692    1.110   .     S
C691   H694    1.110   .     S
C691   H693    1.105   .     S
C695   H697    1.110   .     S
C695   H698    1.110   .     S
C695   H696    1.107   .     S
C699   H701    1.110   .     S
C699   H700    1.107   .     S
C699   H702    1.110   .     S
C703   C728    1.445   .     S
C703   O741    1.301   .     A
C703   O744    1.301   .     A
C704   O743    1.301   .     A
C704   C727    1.445   .     S
C704   O742    1.301   .     A
C705   O745    1.309   .     A
C705   C723    1.462   .     S
C705   O748    1.308   .     A
C706   O747    1.309   .     A
C706   O746    1.308   .     A
C706   C724    1.462   .     S
C707   C749    1.520   .     S
C707   N740    1.383   .     A
C707   C1178   1.436   1_545 S
C708   C753    1.520   .     S
C708   N739    1.383   .     A
C708   C943    1.436   .     S
C709   C757    1.520   .     S
C709   N740    1.383   .     A
C709   C1176   1.436   1_545 S
C710   C761    1.520   .     S
C710   N739    1.383   .     A
C710   C941    1.436   .     S
C711   C765    1.522   .     S
C711   C728    1.412   .     A
C711   C869    1.408   1_455 S
C712   C769    1.522   .     S
C712   C727    1.412   .     A
C712   C792    1.408   .     S
C713   C773    1.521   .     S
C713   C727    1.413   .     A
C713   C789    1.408   .     S
C714   C777    1.521   .     S
C714   C728    1.413   .     A
C714   C868    1.408   1_455 S
C715   H731    1.083   .     S
C715   C725    1.404   .     A
C715   C719    1.390   .     A
C716   C720    1.390   .     A
C716   C726    1.404   .     A
C716   H732    1.083   .     S
C717   C721    1.390   .     A
C717   C726    1.404   .     A
C717   H733    1.083   .     S
C718   C722    1.390   .     A
C718   C725    1.404   .     A
C718   H734    1.083   .     S
C719   H735    1.082   .     S
C719   C723    1.401   .     A
C720   H736    1.083   .     S
C720   C724    1.402   .     A
C721   C724    1.401   .     A
C721   H737    1.082   .     S
C722   H738    1.083   .     S
C722   C723    1.402   .     A
C726   C23     1.472   1_556 S
Cu729  O741    1.952   .     S
Cu729  O747    1.957   .     S
Cu729  O745    1.957   .     S
Cu729  O743    1.952   .     S
Cu729  N739    2.049   .     S
Cu729  Cu730   2.726   .     S
Cu730  O748    1.957   .     S
Cu730  O742    1.952   .     S
Cu730  O746    1.957   .     S
Cu730  N740    2.049   .     S
Cu730  O744    1.952   .     S
C749   H751    1.109   .     S
C749   H752    1.109   .     S
C749   H750    1.082   .     S
C753   H754    1.082   .     S
C753   H755    1.110   .     S
C753   H756    1.108   .     S
C757   H758    1.082   .     S
C757   H759    1.109   .     S
C757   H760    1.109   .     S
C761   H762    1.082   .     S
C761   H763    1.110   .     S
C761   H764    1.108   .     S
C765   H767    1.110   .     S
C765   H768    1.105   .     S
C765   H766    1.110   .     S
C769   H770    1.110   .     S
C769   H772    1.110   .     S
C769   H771    1.105   .     S
C773   H775    1.110   .     S
C773   H776    1.110   .     S
C773   H774    1.107   .     S
C777   H779    1.110   .     S
C777   H778    1.107   .     S
C777   H780    1.110   .     S
C781   C806    1.445   .     S
C781   O819    1.301   .     A
C781   O822    1.301   .     A
C782   O821    1.301   .     A
C782   C805    1.445   .     S
C782   O820    1.301   .     A
C783   O823    1.309   .     A
C783   C801    1.462   .     S
C783   O826    1.308   .     A
C784   O825    1.309   .     A
C784   O824    1.308   .     A
C784   C802    1.462   .     S
C785   C827    1.520   .     S
C785   N818    1.383   .     A
C785   C1256   1.436   1_545 S
C786   C831    1.520   .     S
C786   N817    1.383   .     A
C786   C1021   1.436   .     S
C787   C835    1.520   .     S
C787   N818    1.383   .     A
C787   C1254   1.436   1_545 S
C788   C839    1.520   .     S
C788   N817    1.383   .     A
C788   C1019   1.436   .     S
C789   C843    1.522   .     S
C789   C806    1.412   .     A
C790   C847    1.522   .     S
C790   C805    1.412   .     A
C790   C870    1.408   .     S
C791   C851    1.521   .     S
C791   C805    1.413   .     A
C791   C867    1.408   .     S
C792   C855    1.521   .     S
C792   C806    1.413   .     A
C793   H809    1.083   .     S
C793   C803    1.404   .     A
C793   C797    1.390   .     A
C794   C798    1.390   .     A
C794   C804    1.404   .     A
C794   H810    1.083   .     S
C795   C799    1.390   .     A
C795   C804    1.404   .     A
C795   H811    1.083   .     S
C796   C800    1.390   .     A
C796   C803    1.404   .     A
C796   H812    1.083   .     S
C797   H813    1.082   .     S
C797   C801    1.401   .     A
C798   H814    1.083   .     S
C798   C802    1.402   .     A
C799   C802    1.401   .     A
C799   H815    1.082   .     S
C800   H816    1.083   .     S
C800   C801    1.402   .     A
C804   C101    1.472   1_556 S
Cu807  O819    1.952   .     S
Cu807  O825    1.957   .     S
Cu807  O823    1.957   .     S
Cu807  O821    1.952   .     S
Cu807  N817    2.049   .     S
Cu807  Cu808   2.726   .     S
Cu808  O826    1.957   .     S
Cu808  O820    1.952   .     S
Cu808  O824    1.957   .     S
Cu808  N818    2.049   .     S
Cu808  O822    1.952   .     S
C827   H829    1.109   .     S
C827   H830    1.109   .     S
C827   H828    1.082   .     S
C831   H832    1.082   .     S
C831   H833    1.110   .     S
C831   H834    1.108   .     S
C835   H836    1.082   .     S
C835   H837    1.109   .     S
C835   H838    1.109   .     S
C839   H840    1.082   .     S
C839   H841    1.110   .     S
C839   H842    1.108   .     S
C843   H845    1.110   .     S
C843   H846    1.105   .     S
C843   H844    1.110   .     S
C847   H848    1.110   .     S
C847   H850    1.110   .     S
C847   H849    1.105   .     S
C851   H853    1.110   .     S
C851   H854    1.110   .     S
C851   H852    1.107   .     S
C855   H857    1.110   .     S
C855   H856    1.107   .     S
C855   H858    1.110   .     S
C859   C884    1.445   .     S
C859   O897    1.301   .     A
C859   O900    1.301   .     A
C860   O899    1.301   .     A
C860   C883    1.445   .     S
C860   O898    1.301   .     A
C861   O901    1.309   .     A
C861   C879    1.462   .     S
C861   O904    1.308   .     A
C862   O903    1.309   .     A
C862   O902    1.308   .     A
C862   C880    1.462   .     S
C863   C905    1.520   .     S
C863   N896    1.383   .     A
C863   C1334   1.436   1_545 S
C864   C909    1.520   .     S
C864   N895    1.383   .     A
C864   C1099   1.436   .     S
C865   C913    1.520   .     S
C865   N896    1.383   .     A
C865   C1332   1.436   1_545 S
C866   C917    1.520   .     S
C866   N895    1.383   .     A
C866   C1097   1.436   .     S
C867   C921    1.522   .     S
C867   C884    1.412   .     A
C868   C925    1.522   .     S
C868   C883    1.412   .     A
C868   C714    1.408   1_655 S
C869   C929    1.521   .     S
C869   C883    1.413   .     A
C869   C711    1.408   1_655 S
C870   C933    1.521   .     S
C870   C884    1.413   .     A
C871   H887    1.083   .     S
C871   C881    1.404   .     A
C871   C875    1.390   .     A
C872   C876    1.390   .     A
C872   C882    1.404   .     A
C872   H888    1.083   .     S
C873   C877    1.390   .     A
C873   C882    1.404   .     A
C873   H889    1.083   .     S
C874   C878    1.390   .     A
C874   C881    1.404   .     A
C874   H890    1.083   .     S
C875   H891    1.082   .     S
C875   C879    1.401   .     A
C876   H892    1.083   .     S
C876   C880    1.402   .     A
C877   C880    1.401   .     A
C877   H893    1.082   .     S
C878   H894    1.083   .     S
C878   C879    1.402   .     A
C882   C179    1.472   1_556 S
Cu885  O897    1.952   .     S
Cu885  O903    1.957   .     S
Cu885  O901    1.957   .     S
Cu885  O899    1.952   .     S
Cu885  N895    2.049   .     S
Cu885  Cu886   2.726   .     S
Cu886  O904    1.957   .     S
Cu886  O898    1.952   .     S
Cu886  O902    1.957   .     S
Cu886  N896    2.049   .     S
Cu886  O900    1.952   .     S
C905   H907    1.109   .     S
C905   H908    1.109   .     S
C905   H906    1.082   .     S
C909   H910    1.082   .     S
C909   H911    1.110   .     S
C909   H912    1.108   .     S
C913   H914    1.082   .     S
C913   H915    1.109   .     S
C913   H916    1.109   .     S
C917   H918    1.082   .     S
C917   H919    1.110   .     S
C917   H920    1.108   .     S
C921   H923    1.110   .     S
C921   H924    1.105   .     S
C921   H922    1.110   .     S
C925   H926    1.110   .     S
C925   H928    1.110   .     S
C925   H927    1.105   .     S
C929   H931    1.110   .     S
C929   H932    1.110   .     S
C929   H930    1.107   .     S
C933   H935    1.110   .     S
C933   H934    1.107   .     S
C933   H936    1.110   .     S
C937   C962    1.445   .     S
C937   O975    1.301   .     A
C937   O978    1.301   .     A
C938   O977    1.301   .     A
C938   C961    1.445   .     S
C938   O976    1.301   .     A
C939   O979    1.309   .     A
C939   C957    1.462   .     S
C939   O982    1.308   .     A
C940   O981    1.309   .     A
C940   O980    1.308   .     A
C940   C958    1.462   .     S
C941   C983    1.520   .     S
C941   N974    1.383   .     A
C942   C987    1.520   .     S
C942   N973    1.383   .     A
C942   C1177   1.436   .     S
C943   C991    1.520   .     S
C943   N974    1.383   .     A
C944   C995    1.520   .     S
C944   N973    1.383   .     A
C944   C1175   1.436   .     S
C945   C999    1.522   .     S
C945   C962    1.412   .     A
C945   C1103   1.408   1_455 S
C946   C1003   1.522   .     S
C946   C961    1.412   .     A
C946   C1026   1.408   .     S
C947   C1007   1.521   .     S
C947   C961    1.413   .     A
C947   C1023   1.408   .     S
C948   C1011   1.521   .     S
C948   C962    1.413   .     A
C948   C1102   1.408   1_455 S
C949   H965    1.083   .     S
C949   C959    1.404   .     A
C949   C953    1.390   .     A
C950   C954    1.390   .     A
C950   C960    1.404   .     A
C950   H966    1.083   .     S
C951   C955    1.390   .     A
C951   C960    1.404   .     A
C951   H967    1.083   .     S
C952   C956    1.390   .     A
C952   C959    1.404   .     A
C952   H968    1.083   .     S
C953   H969    1.082   .     S
C953   C957    1.401   .     A
C954   H970    1.083   .     S
C954   C958    1.402   .     A
C955   C958    1.401   .     A
C955   H971    1.082   .     S
C956   H972    1.083   .     S
C956   C957    1.402   .     A
C960   C257    1.472   1_556 S
Cu963  O975    1.952   .     S
Cu963  O981    1.957   .     S
Cu963  O979    1.957   .     S
Cu963  O977    1.952   .     S
Cu963  N973    2.049   .     S
Cu963  Cu964   2.726   .     S
Cu964  O982    1.957   .     S
Cu964  O976    1.952   .     S
Cu964  O980    1.957   .     S
Cu964  N974    2.049   .     S
Cu964  O978    1.952   .     S
C983   H985    1.109   .     S
C983   H986    1.109   .     S
C983   H984    1.082   .     S
C987   H988    1.082   .     S
C987   H989    1.110   .     S
C987   H990    1.108   .     S
C991   H992    1.082   .     S
C991   H993    1.109   .     S
C991   H994    1.109   .     S
C995   H996    1.082   .     S
C995   H997    1.110   .     S
C995   H998    1.108   .     S
C999   H1001   1.110   .     S
C999   H1002   1.105   .     S
C999   H1000   1.110   .     S
C1003  H1004   1.110   .     S
C1003  H1006   1.110   .     S
C1003  H1005   1.105   .     S
C1007  H1009   1.110   .     S
C1007  H1010   1.110   .     S
C1007  H1008   1.107   .     S
C1011  H1013   1.110   .     S
C1011  H1012   1.107   .     S
C1011  H1014   1.110   .     S
C1015  C1040   1.445   .     S
C1015  O1053   1.301   .     A
C1015  O1056   1.301   .     A
C1016  O1055   1.301   .     A
C1016  C1039   1.445   .     S
C1016  O1054   1.301   .     A
C1017  O1057   1.309   .     A
C1017  C1035   1.462   .     S
C1017  O1060   1.308   .     A
C1018  O1059   1.309   .     A
C1018  O1058   1.308   .     A
C1018  C1036   1.462   .     S
C1019  C1061   1.520   .     S
C1019  N1052   1.383   .     A
C1020  C1065   1.520   .     S
C1020  N1051   1.383   .     A
C1020  C1255   1.436   .     S
C1021  C1069   1.520   .     S
C1021  N1052   1.383   .     A
C1022  C1073   1.520   .     S
C1022  N1051   1.383   .     A
C1022  C1253   1.436   .     S
C1023  C1077   1.522   .     S
C1023  C1040   1.412   .     A
C1024  C1081   1.522   .     S
C1024  C1039   1.412   .     A
C1024  C1104   1.408   .     S
C1025  C1085   1.521   .     S
C1025  C1039   1.413   .     A
C1025  C1101   1.408   .     S
C1026  C1089   1.521   .     S
C1026  C1040   1.413   .     A
C1027  H1043   1.083   .     S
C1027  C1037   1.404   .     A
C1027  C1031   1.390   .     A
C1028  C1032   1.390   .     A
C1028  C1038   1.404   .     A
C1028  H1044   1.083   .     S
C1029  C1033   1.390   .     A
C1029  C1038   1.404   .     A
C1029  H1045   1.083   .     S
C1030  C1034   1.390   .     A
C1030  C1037   1.404   .     A
C1030  H1046   1.083   .     S
C1031  H1047   1.082   .     S
C1031  C1035   1.401   .     A
C1032  H1048   1.083   .     S
C1032  C1036   1.402   .     A
C1033  C1036   1.401   .     A
C1033  H1049   1.082   .     S
C1034  H1050   1.083   .     S
C1034  C1035   1.402   .     A
C1038  C335    1.472   1_556 S
Cu1041 O1053   1.952   .     S
Cu1041 O1059   1.957   .     S
Cu1041 O1057   1.957   .     S
Cu1041 O1055   1.952   .     S
Cu1041 N1051   2.049   .     S
Cu1041 Cu1042  2.726   .     S
Cu1042 O1060   1.957   .     S
Cu1042 O1054   1.952   .     S
Cu1042 O1058   1.957   .     S
Cu1042 N1052   2.049   .     S
Cu1042 O1056   1.952   .     S
C1061  H1063   1.109   .     S
C1061  H1064   1.109   .     S
C1061  H1062   1.082   .     S
C1065  H1066   1.082   .     S
C1065  H1067   1.110   .     S
C1065  H1068   1.108   .     S
C1069  H1070   1.082   .     S
C1069  H1071   1.109   .     S
C1069  H1072   1.109   .     S
C1073  H1074   1.082   .     S
C1073  H1075   1.110   .     S
C1073  H1076   1.108   .     S
C1077  H1079   1.110   .     S
C1077  H1080   1.105   .     S
C1077  H1078   1.110   .     S
C1081  H1082   1.110   .     S
C1081  H1084   1.110   .     S
C1081  H1083   1.105   .     S
C1085  H1087   1.110   .     S
C1085  H1088   1.110   .     S
C1085  H1086   1.107   .     S
C1089  H1091   1.110   .     S
C1089  H1090   1.107   .     S
C1089  H1092   1.110   .     S
C1093  C1118   1.445   .     S
C1093  O1131   1.301   .     A
C1093  O1134   1.301   .     A
C1094  O1133   1.301   .     A
C1094  C1117   1.445   .     S
C1094  O1132   1.301   .     A
C1095  O1135   1.309   .     A
C1095  C1113   1.462   .     S
C1095  O1138   1.308   .     A
C1096  O1137   1.309   .     A
C1096  O1136   1.308   .     A
C1096  C1114   1.462   .     S
C1097  C1139   1.520   .     S
C1097  N1130   1.383   .     A
C1098  C1143   1.520   .     S
C1098  N1129   1.383   .     A
C1098  C1333   1.436   .     S
C1099  C1147   1.520   .     S
C1099  N1130   1.383   .     A
C1100  C1151   1.520   .     S
C1100  N1129   1.383   .     A
C1100  C1331   1.436   .     S
C1101  C1155   1.522   .     S
C1101  C1118   1.412   .     A
C1102  C1159   1.522   .     S
C1102  C1117   1.412   .     A
C1102  C948    1.408   1_655 S
C1103  C1163   1.521   .     S
C1103  C1117   1.413   .     A
C1103  C945    1.408   1_655 S
C1104  C1167   1.521   .     S
C1104  C1118   1.413   .     A
C1105  H1121   1.083   .     S
C1105  C1115   1.404   .     A
C1105  C1109   1.390   .     A
C1106  C1110   1.390   .     A
C1106  C1116   1.404   .     A
C1106  H1122   1.083   .     S
C1107  C1111   1.390   .     A
C1107  C1116   1.404   .     A
C1107  H1123   1.083   .     S
C1108  C1112   1.390   .     A
C1108  C1115   1.404   .     A
C1108  H1124   1.083   .     S
C1109  H1125   1.082   .     S
C1109  C1113   1.401   .     A
C1110  H1126   1.083   .     S
C1110  C1114   1.402   .     A
C1111  C1114   1.401   .     A
C1111  H1127   1.082   .     S
C1112  H1128   1.083   .     S
C1112  C1113   1.402   .     A
C1116  C413    1.472   1_556 S
Cu1119 O1131   1.952   .     S
Cu1119 O1137   1.957   .     S
Cu1119 O1135   1.957   .     S
Cu1119 O1133   1.952   .     S
Cu1119 N1129   2.049   .     S
Cu1119 Cu1120  2.726   .     S
Cu1120 O1138   1.957   .     S
Cu1120 O1132   1.952   .     S
Cu1120 O1136   1.957   .     S
Cu1120 N1130   2.049   .     S
Cu1120 O1134   1.952   .     S
C1139  H1141   1.109   .     S
C1139  H1142   1.109   .     S
C1139  H1140   1.082   .     S
C1143  H1144   1.082   .     S
C1143  H1145   1.110   .     S
C1143  H1146   1.108   .     S
C1147  H1148   1.082   .     S
C1147  H1149   1.109   .     S
C1147  H1150   1.109   .     S
C1151  H1152   1.082   .     S
C1151  H1153   1.110   .     S
C1151  H1154   1.108   .     S
C1155  H1157   1.110   .     S
C1155  H1158   1.105   .     S
C1155  H1156   1.110   .     S
C1159  H1160   1.110   .     S
C1159  H1162   1.110   .     S
C1159  H1161   1.105   .     S
C1163  H1165   1.110   .     S
C1163  H1166   1.110   .     S
C1163  H1164   1.107   .     S
C1167  H1169   1.110   .     S
C1167  H1168   1.107   .     S
C1167  H1170   1.110   .     S
C1171  C1196   1.445   .     S
C1171  O1209   1.301   .     A
C1171  O1212   1.301   .     A
C1172  O1211   1.301   .     A
C1172  C1195   1.445   .     S
C1172  O1210   1.301   .     A
C1173  O1213   1.309   .     A
C1173  C1191   1.462   .     S
C1173  O1216   1.308   .     A
C1174  O1215   1.309   .     A
C1174  O1214   1.308   .     A
C1174  C1192   1.462   .     S
C1175  C1217   1.520   .     S
C1175  N1208   1.383   .     A
C1176  C1221   1.520   .     S
C1176  N1207   1.383   .     A
C1176  C709    1.436   1_565 S
C1177  C1225   1.520   .     S
C1177  N1208   1.383   .     A
C1178  C1229   1.520   .     S
C1178  N1207   1.383   .     A
C1178  C707    1.436   1_565 S
C1179  C1233   1.522   .     S
C1179  C1196   1.412   .     A
C1179  C1337   1.408   1_455 S
C1180  C1237   1.522   .     S
C1180  C1195   1.412   .     A
C1180  C1260   1.408   .     S
C1181  C1241   1.521   .     S
C1181  C1195   1.413   .     A
C1181  C1257   1.408   .     S
C1182  C1245   1.521   .     S
C1182  C1196   1.413   .     A
C1182  C1336   1.408   1_455 S
C1183  H1199   1.083   .     S
C1183  C1193   1.404   .     A
C1183  C1187   1.390   .     A
C1184  C1188   1.390   .     A
C1184  C1194   1.404   .     A
C1184  H1200   1.083   .     S
C1185  C1189   1.390   .     A
C1185  C1194   1.404   .     A
C1185  H1201   1.083   .     S
C1186  C1190   1.390   .     A
C1186  C1193   1.404   .     A
C1186  H1202   1.083   .     S
C1187  H1203   1.082   .     S
C1187  C1191   1.401   .     A
C1188  H1204   1.083   .     S
C1188  C1192   1.402   .     A
C1189  C1192   1.401   .     A
C1189  H1205   1.082   .     S
C1190  H1206   1.083   .     S
C1190  C1191   1.402   .     A
C1194  C491    1.472   1_556 S
Cu1197 O1209   1.952   .     S
Cu1197 O1215   1.957   .     S
Cu1197 O1213   1.957   .     S
Cu1197 O1211   1.952   .     S
Cu1197 N1207   2.049   .     S
Cu1197 Cu1198  2.726   .     S
Cu1198 O1216   1.957   .     S
Cu1198 O1210   1.952   .     S
Cu1198 O1214   1.957   .     S
Cu1198 N1208   2.049   .     S
Cu1198 O1212   1.952   .     S
C1217  H1219   1.109   .     S
C1217  H1220   1.109   .     S
C1217  H1218   1.082   .     S
C1221  H1222   1.082   .     S
C1221  H1223   1.110   .     S
C1221  H1224   1.108   .     S
C1225  H1226   1.082   .     S
C1225  H1227   1.109   .     S
C1225  H1228   1.109   .     S
C1229  H1230   1.082   .     S
C1229  H1231   1.110   .     S
C1229  H1232   1.108   .     S
C1233  H1235   1.110   .     S
C1233  H1236   1.105   .     S
C1233  H1234   1.110   .     S
C1237  H1238   1.110   .     S
C1237  H1240   1.110   .     S
C1237  H1239   1.105   .     S
C1241  H1243   1.110   .     S
C1241  H1244   1.110   .     S
C1241  H1242   1.107   .     S
C1245  H1247   1.110   .     S
C1245  H1246   1.107   .     S
C1245  H1248   1.110   .     S
C1249  C1274   1.445   .     S
C1249  O1287   1.301   .     A
C1249  O1290   1.301   .     A
C1250  O1289   1.301   .     A
C1250  C1273   1.445   .     S
C1250  O1288   1.301   .     A
C1251  O1291   1.309   .     A
C1251  C1269   1.462   .     S
C1251  O1294   1.308   .     A
C1252  O1293   1.309   .     A
C1252  O1292   1.308   .     A
C1252  C1270   1.462   .     S
C1253  C1295   1.520   .     S
C1253  N1286   1.383   .     A
C1254  C1299   1.520   .     S
C1254  N1285   1.383   .     A
C1254  C787    1.436   1_565 S
C1255  C1303   1.520   .     S
C1255  N1286   1.383   .     A
C1256  C1307   1.520   .     S
C1256  N1285   1.383   .     A
C1256  C785    1.436   1_565 S
C1257  C1311   1.522   .     S
C1257  C1274   1.412   .     A
C1258  C1315   1.522   .     S
C1258  C1273   1.412   .     A
C1258  C1338   1.408   .     S
C1259  C1319   1.521   .     S
C1259  C1273   1.413   .     A
C1259  C1335   1.408   .     S
C1260  C1323   1.521   .     S
C1260  C1274   1.413   .     A
C1261  H1277   1.083   .     S
C1261  C1271   1.404   .     A
C1261  C1265   1.390   .     A
C1262  C1266   1.390   .     A
C1262  C1272   1.404   .     A
C1262  H1278   1.083   .     S
C1263  C1267   1.390   .     A
C1263  C1272   1.404   .     A
C1263  H1279   1.083   .     S
C1264  C1268   1.390   .     A
C1264  C1271   1.404   .     A
C1264  H1280   1.083   .     S
C1265  H1281   1.082   .     S
C1265  C1269   1.401   .     A
C1266  H1282   1.083   .     S
C1266  C1270   1.402   .     A
C1267  C1270   1.401   .     A
C1267  H1283   1.082   .     S
C1268  H1284   1.083   .     S
C1268  C1269   1.402   .     A
C1272  C569    1.472   1_556 S
Cu1275 O1287   1.952   .     S
Cu1275 O1293   1.957   .     S
Cu1275 O1291   1.957   .     S
Cu1275 O1289   1.952   .     S
Cu1275 N1285   2.049   .     S
Cu1275 Cu1276  2.726   .     S
Cu1276 O1294   1.957   .     S
Cu1276 O1288   1.952   .     S
Cu1276 O1292   1.957   .     S
Cu1276 N1286   2.049   .     S
Cu1276 O1290   1.952   .     S
C1295  H1297   1.109   .     S
C1295  H1298   1.109   .     S
C1295  H1296   1.082   .     S
C1299  H1300   1.082   .     S
C1299  H1301   1.110   .     S
C1299  H1302   1.108   .     S
C1303  H1304   1.082   .     S
C1303  H1305   1.109   .     S
C1303  H1306   1.109   .     S
C1307  H1308   1.082   .     S
C1307  H1309   1.110   .     S
C1307  H1310   1.108   .     S
C1311  H1313   1.110   .     S
C1311  H1314   1.105   .     S
C1311  H1312   1.110   .     S
C1315  H1316   1.110   .     S
C1315  H1318   1.110   .     S
C1315  H1317   1.105   .     S
C1319  H1321   1.110   .     S
C1319  H1322   1.110   .     S
C1319  H1320   1.107   .     S
C1323  H1325   1.110   .     S
C1323  H1324   1.107   .     S
C1323  H1326   1.110   .     S
C1327  C1352   1.445   .     S
C1327  O1365   1.301   .     A
C1327  O1368   1.301   .     A
C1328  O1367   1.301   .     A
C1328  C1351   1.445   .     S
C1328  O1366   1.301   .     A
C1329  O1369   1.309   .     A
C1329  C1347   1.462   .     S
C1329  O1372   1.308   .     A
C1330  O1371   1.309   .     A
C1330  O1370   1.308   .     A
C1330  C1348   1.462   .     S
C1331  C1373   1.520   .     S
C1331  N1364   1.383   .     A
C1332  C1377   1.520   .     S
C1332  N1363   1.383   .     A
C1332  C865    1.436   1_565 S
C1333  C1381   1.520   .     S
C1333  N1364   1.383   .     A
C1334  C1385   1.520   .     S
C1334  N1363   1.383   .     A
C1334  C863    1.436   1_565 S
C1335  C1389   1.522   .     S
C1335  C1352   1.412   .     A
C1336  C1393   1.522   .     S
C1336  C1351   1.412   .     A
C1336  C1182   1.408   1_655 S
C1337  C1397   1.521   .     S
C1337  C1351   1.413   .     A
C1337  C1179   1.408   1_655 S
C1338  C1401   1.521   .     S
C1338  C1352   1.413   .     A
C1339  H1355   1.083   .     S
C1339  C1349   1.404   .     A
C1339  C1343   1.390   .     A
C1340  C1344   1.390   .     A
C1340  C1350   1.404   .     A
C1340  H1356   1.083   .     S
C1341  C1345   1.390   .     A
C1341  C1350   1.404   .     A
C1341  H1357   1.083   .     S
C1342  C1346   1.390   .     A
C1342  C1349   1.404   .     A
C1342  H1358   1.083   .     S
C1343  H1359   1.082   .     S
C1343  C1347   1.401   .     A
C1344  H1360   1.083   .     S
C1344  C1348   1.402   .     A
C1345  C1348   1.401   .     A
C1345  H1361   1.082   .     S
C1346  H1362   1.083   .     S
C1346  C1347   1.402   .     A
C1350  C647    1.472   1_556 S
Cu1353 O1365   1.952   .     S
Cu1353 O1371   1.957   .     S
Cu1353 O1369   1.957   .     S
Cu1353 O1367   1.952   .     S
Cu1353 N1363   2.049   .     S
Cu1353 Cu1354  2.726   .     S
Cu1354 O1372   1.957   .     S
Cu1354 O1366   1.952   .     S
Cu1354 O1370   1.957   .     S
Cu1354 N1364   2.049   .     S
Cu1354 O1368   1.952   .     S
C1373  H1375   1.109   .     S
C1373  H1376   1.109   .     S
C1373  H1374   1.082   .     S
C1377  H1378   1.082   .     S
C1377  H1379   1.110   .     S
C1377  H1380   1.108   .     S
C1381  H1382   1.082   .     S
C1381  H1383   1.109   .     S
C1381  H1384   1.109   .     S
C1385  H1386   1.082   .     S
C1385  H1387   1.110   .     S
C1385  H1388   1.108   .     S
C1389  H1391   1.110   .     S
C1389  H1392   1.105   .     S
C1389  H1390   1.110   .     S
C1393  H1394   1.110   .     S
C1393  H1396   1.110   .     S
C1393  H1395   1.105   .     S
C1397  H1399   1.110   .     S
C1397  H1400   1.110   .     S
C1397  H1398   1.107   .     S
C1401  H1403   1.110   .     S
C1401  H1402   1.107   .     S
C1401  H1404   1.110   .     S
