data_str_m3_o1_o5_pcu_sym.99
_audit_creation_date              2020-01-03
_audit_creation_method            'Materials Studio'
_symmetry_space_group_name_H-M    'P1'
_symmetry_Int_Tables_number       1
_symmetry_cell_setting            triclinic
loop_
_symmetry_equiv_pos_as_xyz
  x,y,z
_cell_length_a                    32.5667
_cell_length_b                    29.8239
_cell_length_c                    26.7440
_cell_angle_alpha                 89.9698
_cell_angle_beta                  92.5916
_cell_angle_gamma                 89.8829
loop_
_atom_site_label
_atom_site_type_symbol
_atom_site_fract_x
_atom_site_fract_y
_atom_site_fract_z
_atom_site_U_iso_or_equiv
_atom_site_adp_type
_atom_site_occupancy
C1     C     0.08681   0.16672   0.16914   0.00000  Uiso   1.00
C2     C     0.24652   0.16662   0.16418   0.00000  Uiso   1.00
C3     C     0.16650   0.16668   0.07297   0.00000  Uiso   1.00
C4     C     0.16683   0.16666   0.26037   0.00000  Uiso   1.00
C5     C     0.16661   0.16668   0.02181   0.00000  Uiso   1.00
C6     C     0.16673   0.16665   0.31153   0.00000  Uiso   1.00
C7     C     0.02130   0.12562   0.17174   0.00000  Uiso   1.00
C8     C     0.31202   0.20774   0.16159   0.00000  Uiso   1.00
C9     C     0.31231   0.12542   0.16368   0.00000  Uiso   1.00
C10    C     0.02103   0.20794   0.16957   0.00000  Uiso   1.00
C11    C     0.29081   0.16656   0.16188   0.00000  Uiso   1.00
C12    C     0.04252   0.16680   0.17142   0.00000  Uiso   1.00
C13    C     0.18459   0.02386   0.20594   0.00000  Uiso   1.00
C14    C     0.14875   0.30948   0.12739   0.00000  Uiso   1.00
C15    C     0.14866   0.02401   0.12746   0.00000  Uiso   1.00
C16    C     0.18467   0.30932   0.20588   0.00000  Uiso   1.00
N17    N     0.16667   0.28573   0.16667   0.00000  Uiso   1.00
N18    N     0.16667   0.04760   0.16667   0.00000  Uiso   1.00
O19    O     0.10559   0.20487   0.16666   0.00000  Uiso   1.00
O20    O     0.22774   0.12846   0.16667   0.00000  Uiso   1.00
O21    O     0.22774   0.20487   0.16667   0.00000  Uiso   1.00
O22    O     0.10559   0.12846   0.16666   0.00000  Uiso   1.00
O23    O     0.16667   0.20488   0.09511   0.00000  Uiso   1.00
O24    O     0.16666   0.12845   0.23822   0.00000  Uiso   1.00
O25    O     0.16666   0.20488   0.23822   0.00000  Uiso   1.00
O26    O     0.16667   0.12845   0.09511   0.00000  Uiso   1.00
Zn27   Zn    0.16667   0.21771   0.16667   0.00000  Uiso   1.00
Zn28   Zn    0.16667   0.11563   0.16667   0.00000  Uiso   1.00
N29    N     0.04245   0.08413   0.18284   0.00000  Uiso   1.00
H30    H     0.03189   0.07115   0.21622   0.00000  Uiso   1.00
H31    H     0.03612   0.06106   0.15416   0.00000  Uiso   1.00
N32    N     0.29086   0.24926   0.15065   0.00000  Uiso   1.00
H33    H     0.30136   0.26232   0.11729   0.00000  Uiso   1.00
H34    H     0.29719   0.27225   0.17940   0.00000  Uiso   1.00
N35    N     0.29148   0.08348   0.15480   0.00000  Uiso   1.00
H36    H     0.30207   0.06925   0.12206   0.00000  Uiso   1.00
H37    H     0.29813   0.06157   0.18456   0.00000  Uiso   1.00
N38    N     0.04187   0.24990   0.17828   0.00000  Uiso   1.00
H39    H     0.03133   0.26423   0.21100   0.00000  Uiso   1.00
H40    H     0.03521   0.27173   0.14846   0.00000  Uiso   1.00
C41    C     0.20388   0.04779   0.24910   0.00000  Uiso   1.00
O42    O     0.18779   0.04669   0.28946   0.00000  Uiso   1.00
O43    O     0.24072   0.07075   0.24428   0.00000  Uiso   1.00
H44    H     0.25077   0.08572   0.27658   0.00000  Uiso   1.00
C45    C     0.12949   0.28555   0.08418   0.00000  Uiso   1.00
O46    O     0.14536   0.28707   0.04371   0.00000  Uiso   1.00
O47    O     0.09292   0.26211   0.08911   0.00000  Uiso   1.00
H48    H     0.08292   0.24711   0.05680   0.00000  Uiso   1.00
C49    C     0.12863   0.04815   0.08483   0.00000  Uiso   1.00
O50    O     0.14464   0.04829   0.04441   0.00000  Uiso   1.00
O51    O     0.09108   0.06973   0.09022   0.00000  Uiso   1.00
H52    H     0.08053   0.08502   0.05828   0.00000  Uiso   1.00
C53    C     0.20465   0.28520   0.24856   0.00000  Uiso   1.00
O54    O     0.18877   0.28541   0.28907   0.00000  Uiso   1.00
O55    O     0.24200   0.26323   0.24313   0.00000  Uiso   1.00
H56    H     0.25250   0.24795   0.27509   0.00000  Uiso   1.00
C57    C     0.42014   0.16672   0.16914   0.00000  Uiso   1.00
C58    C     0.57986   0.16662   0.16418   0.00000  Uiso   1.00
C59    C     0.49983   0.16668   0.07297   0.00000  Uiso   1.00
C60    C     0.50017   0.16666   0.26037   0.00000  Uiso   1.00
C61    C     0.49994   0.16668   0.02181   0.00000  Uiso   1.00
C62    C     0.50006   0.16665   0.31153   0.00000  Uiso   1.00
C63    C     0.35464   0.12562   0.17174   0.00000  Uiso   1.00
C64    C     0.64536   0.20774   0.16159   0.00000  Uiso   1.00
C65    C     0.64564   0.12542   0.16368   0.00000  Uiso   1.00
C66    C     0.35436   0.20794   0.16957   0.00000  Uiso   1.00
C67    C     0.62414   0.16656   0.16188   0.00000  Uiso   1.00
C68    C     0.37586   0.16680   0.17142   0.00000  Uiso   1.00
C69    C     0.51793   0.02386   0.20594   0.00000  Uiso   1.00
C70    C     0.48208   0.30948   0.12739   0.00000  Uiso   1.00
C71    C     0.48199   0.02401   0.12746   0.00000  Uiso   1.00
C72    C     0.51800   0.30932   0.20588   0.00000  Uiso   1.00
N73    N     0.50000   0.28573   0.16667   0.00000  Uiso   1.00
N74    N     0.50000   0.04760   0.16667   0.00000  Uiso   1.00
O75    O     0.43892   0.20487   0.16666   0.00000  Uiso   1.00
O76    O     0.56108   0.12846   0.16667   0.00000  Uiso   1.00
O77    O     0.56108   0.20487   0.16667   0.00000  Uiso   1.00
O78    O     0.43892   0.12846   0.16666   0.00000  Uiso   1.00
O79    O     0.50000   0.20488   0.09511   0.00000  Uiso   1.00
O80    O     0.50000   0.12845   0.23822   0.00000  Uiso   1.00
O81    O     0.50000   0.20488   0.23822   0.00000  Uiso   1.00
O82    O     0.50000   0.12845   0.09511   0.00000  Uiso   1.00
Zn83   Zn    0.50000   0.21771   0.16667   0.00000  Uiso   1.00
Zn84   Zn    0.50000   0.11563   0.16667   0.00000  Uiso   1.00
N85    N     0.37578   0.08413   0.18284   0.00000  Uiso   1.00
H86    H     0.36522   0.07115   0.21622   0.00000  Uiso   1.00
H87    H     0.36946   0.06106   0.15416   0.00000  Uiso   1.00
N88    N     0.62419   0.24926   0.15065   0.00000  Uiso   1.00
H89    H     0.63470   0.26232   0.11729   0.00000  Uiso   1.00
H90    H     0.63053   0.27225   0.17940   0.00000  Uiso   1.00
N91    N     0.62481   0.08348   0.15480   0.00000  Uiso   1.00
H92    H     0.63540   0.06925   0.12206   0.00000  Uiso   1.00
H93    H     0.63146   0.06157   0.18456   0.00000  Uiso   1.00
N94    N     0.37521   0.24990   0.17828   0.00000  Uiso   1.00
H95    H     0.36467   0.26423   0.21100   0.00000  Uiso   1.00
H96    H     0.36854   0.27173   0.14846   0.00000  Uiso   1.00
C97    C     0.53721   0.04779   0.24910   0.00000  Uiso   1.00
O98    O     0.52112   0.04669   0.28946   0.00000  Uiso   1.00
O99    O     0.57406   0.07075   0.24428   0.00000  Uiso   1.00
H100   H     0.58410   0.08572   0.27658   0.00000  Uiso   1.00
C101   C     0.46282   0.28555   0.08418   0.00000  Uiso   1.00
O102   O     0.47869   0.28707   0.04371   0.00000  Uiso   1.00
O103   O     0.42625   0.26211   0.08911   0.00000  Uiso   1.00
H104   H     0.41626   0.24711   0.05680   0.00000  Uiso   1.00
C105   C     0.46196   0.04815   0.08483   0.00000  Uiso   1.00
O106   O     0.47797   0.04829   0.04441   0.00000  Uiso   1.00
O107   O     0.42441   0.06973   0.09022   0.00000  Uiso   1.00
H108   H     0.41386   0.08502   0.05828   0.00000  Uiso   1.00
C109   C     0.53798   0.28520   0.24856   0.00000  Uiso   1.00
O110   O     0.52210   0.28541   0.28907   0.00000  Uiso   1.00
O111   O     0.57533   0.26323   0.24313   0.00000  Uiso   1.00
H112   H     0.58584   0.24795   0.27509   0.00000  Uiso   1.00
C113   C     0.75347   0.16672   0.16914   0.00000  Uiso   1.00
C114   C     0.91319   0.16662   0.16418   0.00000  Uiso   1.00
C115   C     0.83317   0.16668   0.07297   0.00000  Uiso   1.00
C116   C     0.83350   0.16666   0.26037   0.00000  Uiso   1.00
C117   C     0.83327   0.16668   0.02181   0.00000  Uiso   1.00
C118   C     0.83340   0.16665   0.31153   0.00000  Uiso   1.00
C119   C     0.68797   0.12562   0.17174   0.00000  Uiso   1.00
C120   C     0.97869   0.20774   0.16159   0.00000  Uiso   1.00
C121   C     0.97897   0.12542   0.16368   0.00000  Uiso   1.00
C122   C     0.68769   0.20794   0.16957   0.00000  Uiso   1.00
C123   C     0.95747   0.16656   0.16188   0.00000  Uiso   1.00
C124   C     0.70919   0.16680   0.17142   0.00000  Uiso   1.00
C125   C     0.85126   0.02386   0.20594   0.00000  Uiso   1.00
C126   C     0.81541   0.30948   0.12739   0.00000  Uiso   1.00
C127   C     0.81532   0.02401   0.12746   0.00000  Uiso   1.00
C128   C     0.85134   0.30932   0.20588   0.00000  Uiso   1.00
N129   N     0.83333   0.28573   0.16667   0.00000  Uiso   1.00
N130   N     0.83333   0.04760   0.16667   0.00000  Uiso   1.00
O131   O     0.77226   0.20487   0.16666   0.00000  Uiso   1.00
O132   O     0.89441   0.12846   0.16667   0.00000  Uiso   1.00
O133   O     0.89441   0.20487   0.16667   0.00000  Uiso   1.00
O134   O     0.77226   0.12846   0.16666   0.00000  Uiso   1.00
O135   O     0.83334   0.20488   0.09511   0.00000  Uiso   1.00
O136   O     0.83333   0.12845   0.23822   0.00000  Uiso   1.00
O137   O     0.83333   0.20488   0.23822   0.00000  Uiso   1.00
O138   O     0.83334   0.12845   0.09511   0.00000  Uiso   1.00
Zn139  Zn    0.83333   0.21771   0.16667   0.00000  Uiso   1.00
Zn140  Zn    0.83333   0.11563   0.16667   0.00000  Uiso   1.00
N141   N     0.70911   0.08413   0.18284   0.00000  Uiso   1.00
H142   H     0.69856   0.07115   0.21622   0.00000  Uiso   1.00
H143   H     0.70279   0.06106   0.15416   0.00000  Uiso   1.00
N144   N     0.95753   0.24926   0.15065   0.00000  Uiso   1.00
H145   H     0.96803   0.26232   0.11729   0.00000  Uiso   1.00
H146   H     0.96386   0.27225   0.17940   0.00000  Uiso   1.00
N147   N     0.95815   0.08348   0.15480   0.00000  Uiso   1.00
H148   H     0.96874   0.06925   0.12206   0.00000  Uiso   1.00
H149   H     0.96480   0.06157   0.18456   0.00000  Uiso   1.00
N150   N     0.70854   0.24990   0.17828   0.00000  Uiso   1.00
H151   H     0.69800   0.26423   0.21100   0.00000  Uiso   1.00
H152   H     0.70187   0.27173   0.14846   0.00000  Uiso   1.00
C153   C     0.87055   0.04779   0.24910   0.00000  Uiso   1.00
O154   O     0.85446   0.04669   0.28946   0.00000  Uiso   1.00
O155   O     0.90739   0.07075   0.24428   0.00000  Uiso   1.00
H156   H     0.91743   0.08572   0.27658   0.00000  Uiso   1.00
C157   C     0.79615   0.28555   0.08418   0.00000  Uiso   1.00
O158   O     0.81203   0.28707   0.04371   0.00000  Uiso   1.00
O159   O     0.75958   0.26211   0.08911   0.00000  Uiso   1.00
H160   H     0.74959   0.24711   0.05680   0.00000  Uiso   1.00
C161   C     0.79529   0.04815   0.08483   0.00000  Uiso   1.00
O162   O     0.81131   0.04829   0.04441   0.00000  Uiso   1.00
O163   O     0.75775   0.06973   0.09022   0.00000  Uiso   1.00
H164   H     0.74719   0.08502   0.05828   0.00000  Uiso   1.00
C165   C     0.87131   0.28520   0.24856   0.00000  Uiso   1.00
O166   O     0.85543   0.28541   0.28907   0.00000  Uiso   1.00
O167   O     0.90866   0.26323   0.24313   0.00000  Uiso   1.00
H168   H     0.91917   0.24795   0.27509   0.00000  Uiso   1.00
C169   C     0.08681   0.50005   0.16914   0.00000  Uiso   1.00
C170   C     0.24652   0.49996   0.16418   0.00000  Uiso   1.00
C171   C     0.16650   0.50001   0.07297   0.00000  Uiso   1.00
C172   C     0.16683   0.49999   0.26037   0.00000  Uiso   1.00
C173   C     0.16661   0.50001   0.02181   0.00000  Uiso   1.00
C174   C     0.16673   0.49999   0.31153   0.00000  Uiso   1.00
C175   C     0.02130   0.45895   0.17174   0.00000  Uiso   1.00
C176   C     0.31202   0.54108   0.16159   0.00000  Uiso   1.00
C177   C     0.31231   0.45876   0.16368   0.00000  Uiso   1.00
C178   C     0.02103   0.54127   0.16957   0.00000  Uiso   1.00
C179   C     0.29081   0.49989   0.16188   0.00000  Uiso   1.00
C180   C     0.04252   0.50014   0.17142   0.00000  Uiso   1.00
C181   C     0.18459   0.35719   0.20594   0.00000  Uiso   1.00
C182   C     0.14875   0.64281   0.12739   0.00000  Uiso   1.00
C183   C     0.14866   0.35735   0.12746   0.00000  Uiso   1.00
C184   C     0.18467   0.64266   0.20588   0.00000  Uiso   1.00
N185   N     0.16667   0.61907   0.16667   0.00000  Uiso   1.00
N186   N     0.16667   0.38093   0.16667   0.00000  Uiso   1.00
O187   O     0.10559   0.53821   0.16666   0.00000  Uiso   1.00
O188   O     0.22774   0.46179   0.16667   0.00000  Uiso   1.00
O189   O     0.22774   0.53821   0.16667   0.00000  Uiso   1.00
O190   O     0.10559   0.46179   0.16666   0.00000  Uiso   1.00
O191   O     0.16667   0.53821   0.09511   0.00000  Uiso   1.00
O192   O     0.16666   0.46179   0.23822   0.00000  Uiso   1.00
O193   O     0.16666   0.53821   0.23822   0.00000  Uiso   1.00
O194   O     0.16667   0.46179   0.09511   0.00000  Uiso   1.00
Zn195  Zn    0.16667   0.55104   0.16667   0.00000  Uiso   1.00
Zn196  Zn    0.16667   0.44896   0.16667   0.00000  Uiso   1.00
N197   N     0.04245   0.41746   0.18284   0.00000  Uiso   1.00
H198   H     0.03189   0.40449   0.21622   0.00000  Uiso   1.00
H199   H     0.03612   0.39440   0.15416   0.00000  Uiso   1.00
N200   N     0.29086   0.58259   0.15065   0.00000  Uiso   1.00
H201   H     0.30136   0.59566   0.11729   0.00000  Uiso   1.00
H202   H     0.29719   0.60558   0.17940   0.00000  Uiso   1.00
N203   N     0.29148   0.41681   0.15480   0.00000  Uiso   1.00
H204   H     0.30207   0.40258   0.12206   0.00000  Uiso   1.00
H205   H     0.29813   0.39491   0.18456   0.00000  Uiso   1.00
N206   N     0.04187   0.58323   0.17828   0.00000  Uiso   1.00
H207   H     0.03133   0.59756   0.21100   0.00000  Uiso   1.00
H208   H     0.03521   0.60506   0.14846   0.00000  Uiso   1.00
C209   C     0.20388   0.38112   0.24910   0.00000  Uiso   1.00
O210   O     0.18779   0.38003   0.28946   0.00000  Uiso   1.00
O211   O     0.24072   0.40408   0.24428   0.00000  Uiso   1.00
H212   H     0.25077   0.41905   0.27658   0.00000  Uiso   1.00
C213   C     0.12949   0.61889   0.08418   0.00000  Uiso   1.00
O214   O     0.14536   0.62041   0.04371   0.00000  Uiso   1.00
O215   O     0.09292   0.59544   0.08911   0.00000  Uiso   1.00
H216   H     0.08292   0.58044   0.05680   0.00000  Uiso   1.00
C217   C     0.12863   0.38148   0.08483   0.00000  Uiso   1.00
O218   O     0.14464   0.38162   0.04441   0.00000  Uiso   1.00
O219   O     0.09108   0.40306   0.09022   0.00000  Uiso   1.00
H220   H     0.08053   0.41835   0.05828   0.00000  Uiso   1.00
C221   C     0.20465   0.61854   0.24856   0.00000  Uiso   1.00
O222   O     0.18877   0.61874   0.28907   0.00000  Uiso   1.00
O223   O     0.24200   0.59656   0.24313   0.00000  Uiso   1.00
H224   H     0.25250   0.58129   0.27509   0.00000  Uiso   1.00
C225   C     0.42014   0.50005   0.16914   0.00000  Uiso   1.00
C226   C     0.57986   0.49996   0.16418   0.00000  Uiso   1.00
C227   C     0.49983   0.50001   0.07297   0.00000  Uiso   1.00
C228   C     0.50017   0.49999   0.26037   0.00000  Uiso   1.00
C229   C     0.49994   0.50001   0.02181   0.00000  Uiso   1.00
C230   C     0.50006   0.49999   0.31153   0.00000  Uiso   1.00
C231   C     0.35464   0.45895   0.17174   0.00000  Uiso   1.00
C232   C     0.64536   0.54108   0.16159   0.00000  Uiso   1.00
C233   C     0.64564   0.45876   0.16368   0.00000  Uiso   1.00
C234   C     0.35436   0.54127   0.16957   0.00000  Uiso   1.00
C235   C     0.62414   0.49989   0.16188   0.00000  Uiso   1.00
C236   C     0.37586   0.50014   0.17142   0.00000  Uiso   1.00
C237   C     0.51793   0.35719   0.20594   0.00000  Uiso   1.00
C238   C     0.48208   0.64281   0.12739   0.00000  Uiso   1.00
C239   C     0.48199   0.35735   0.12746   0.00000  Uiso   1.00
C240   C     0.51800   0.64266   0.20588   0.00000  Uiso   1.00
N241   N     0.50000   0.61907   0.16667   0.00000  Uiso   1.00
N242   N     0.50000   0.38093   0.16667   0.00000  Uiso   1.00
O243   O     0.43892   0.53821   0.16666   0.00000  Uiso   1.00
O244   O     0.56108   0.46179   0.16667   0.00000  Uiso   1.00
O245   O     0.56108   0.53821   0.16667   0.00000  Uiso   1.00
O246   O     0.43892   0.46179   0.16666   0.00000  Uiso   1.00
O247   O     0.50000   0.53821   0.09511   0.00000  Uiso   1.00
O248   O     0.50000   0.46179   0.23822   0.00000  Uiso   1.00
O249   O     0.50000   0.53821   0.23822   0.00000  Uiso   1.00
O250   O     0.50000   0.46179   0.09511   0.00000  Uiso   1.00
Zn251  Zn    0.50000   0.55104   0.16667   0.00000  Uiso   1.00
Zn252  Zn    0.50000   0.44896   0.16667   0.00000  Uiso   1.00
N253   N     0.37578   0.41746   0.18284   0.00000  Uiso   1.00
H254   H     0.36522   0.40449   0.21622   0.00000  Uiso   1.00
H255   H     0.36946   0.39440   0.15416   0.00000  Uiso   1.00
N256   N     0.62419   0.58259   0.15065   0.00000  Uiso   1.00
H257   H     0.63470   0.59566   0.11729   0.00000  Uiso   1.00
H258   H     0.63053   0.60558   0.17940   0.00000  Uiso   1.00
N259   N     0.62481   0.41681   0.15480   0.00000  Uiso   1.00
H260   H     0.63540   0.40258   0.12206   0.00000  Uiso   1.00
H261   H     0.63146   0.39491   0.18456   0.00000  Uiso   1.00
N262   N     0.37521   0.58323   0.17828   0.00000  Uiso   1.00
H263   H     0.36467   0.59756   0.21100   0.00000  Uiso   1.00
H264   H     0.36854   0.60506   0.14846   0.00000  Uiso   1.00
C265   C     0.53721   0.38112   0.24910   0.00000  Uiso   1.00
O266   O     0.52112   0.38003   0.28946   0.00000  Uiso   1.00
O267   O     0.57406   0.40408   0.24428   0.00000  Uiso   1.00
H268   H     0.58410   0.41905   0.27658   0.00000  Uiso   1.00
C269   C     0.46282   0.61889   0.08418   0.00000  Uiso   1.00
O270   O     0.47869   0.62041   0.04371   0.00000  Uiso   1.00
O271   O     0.42625   0.59544   0.08911   0.00000  Uiso   1.00
H272   H     0.41626   0.58044   0.05680   0.00000  Uiso   1.00
C273   C     0.46196   0.38148   0.08483   0.00000  Uiso   1.00
O274   O     0.47797   0.38162   0.04441   0.00000  Uiso   1.00
O275   O     0.42441   0.40306   0.09022   0.00000  Uiso   1.00
H276   H     0.41386   0.41835   0.05828   0.00000  Uiso   1.00
C277   C     0.53798   0.61854   0.24856   0.00000  Uiso   1.00
O278   O     0.52210   0.61874   0.28907   0.00000  Uiso   1.00
O279   O     0.57533   0.59656   0.24313   0.00000  Uiso   1.00
H280   H     0.58584   0.58129   0.27509   0.00000  Uiso   1.00
C281   C     0.75347   0.50005   0.16914   0.00000  Uiso   1.00
C282   C     0.91319   0.49996   0.16418   0.00000  Uiso   1.00
C283   C     0.83317   0.50001   0.07297   0.00000  Uiso   1.00
C284   C     0.83350   0.49999   0.26037   0.00000  Uiso   1.00
C285   C     0.83327   0.50001   0.02181   0.00000  Uiso   1.00
C286   C     0.83340   0.49999   0.31153   0.00000  Uiso   1.00
C287   C     0.68797   0.45895   0.17174   0.00000  Uiso   1.00
C288   C     0.97869   0.54108   0.16159   0.00000  Uiso   1.00
C289   C     0.97897   0.45876   0.16368   0.00000  Uiso   1.00
C290   C     0.68769   0.54127   0.16957   0.00000  Uiso   1.00
C291   C     0.95747   0.49989   0.16188   0.00000  Uiso   1.00
C292   C     0.70919   0.50014   0.17142   0.00000  Uiso   1.00
C293   C     0.85126   0.35719   0.20594   0.00000  Uiso   1.00
C294   C     0.81541   0.64281   0.12739   0.00000  Uiso   1.00
C295   C     0.81532   0.35735   0.12746   0.00000  Uiso   1.00
C296   C     0.85134   0.64266   0.20588   0.00000  Uiso   1.00
N297   N     0.83333   0.61907   0.16667   0.00000  Uiso   1.00
N298   N     0.83333   0.38093   0.16667   0.00000  Uiso   1.00
O299   O     0.77226   0.53821   0.16666   0.00000  Uiso   1.00
O300   O     0.89441   0.46179   0.16667   0.00000  Uiso   1.00
O301   O     0.89441   0.53821   0.16667   0.00000  Uiso   1.00
O302   O     0.77226   0.46179   0.16666   0.00000  Uiso   1.00
O303   O     0.83334   0.53821   0.09511   0.00000  Uiso   1.00
O304   O     0.83333   0.46179   0.23822   0.00000  Uiso   1.00
O305   O     0.83333   0.53821   0.23822   0.00000  Uiso   1.00
O306   O     0.83334   0.46179   0.09511   0.00000  Uiso   1.00
Zn307  Zn    0.83333   0.55104   0.16667   0.00000  Uiso   1.00
Zn308  Zn    0.83333   0.44896   0.16667   0.00000  Uiso   1.00
N309   N     0.70911   0.41746   0.18284   0.00000  Uiso   1.00
H310   H     0.69856   0.40449   0.21622   0.00000  Uiso   1.00
H311   H     0.70279   0.39440   0.15416   0.00000  Uiso   1.00
N312   N     0.95753   0.58259   0.15065   0.00000  Uiso   1.00
H313   H     0.96803   0.59566   0.11729   0.00000  Uiso   1.00
H314   H     0.96386   0.60558   0.17940   0.00000  Uiso   1.00
N315   N     0.95815   0.41681   0.15480   0.00000  Uiso   1.00
H316   H     0.96874   0.40258   0.12206   0.00000  Uiso   1.00
H317   H     0.96480   0.39491   0.18456   0.00000  Uiso   1.00
N318   N     0.70854   0.58323   0.17828   0.00000  Uiso   1.00
H319   H     0.69800   0.59756   0.21100   0.00000  Uiso   1.00
H320   H     0.70187   0.60506   0.14846   0.00000  Uiso   1.00
C321   C     0.87055   0.38112   0.24910   0.00000  Uiso   1.00
O322   O     0.85446   0.38003   0.28946   0.00000  Uiso   1.00
O323   O     0.90739   0.40408   0.24428   0.00000  Uiso   1.00
H324   H     0.91743   0.41905   0.27658   0.00000  Uiso   1.00
C325   C     0.79615   0.61889   0.08418   0.00000  Uiso   1.00
O326   O     0.81203   0.62041   0.04371   0.00000  Uiso   1.00
O327   O     0.75958   0.59544   0.08911   0.00000  Uiso   1.00
H328   H     0.74959   0.58044   0.05680   0.00000  Uiso   1.00
C329   C     0.79529   0.38148   0.08483   0.00000  Uiso   1.00
O330   O     0.81131   0.38162   0.04441   0.00000  Uiso   1.00
O331   O     0.75775   0.40306   0.09022   0.00000  Uiso   1.00
H332   H     0.74719   0.41835   0.05828   0.00000  Uiso   1.00
C333   C     0.87131   0.61854   0.24856   0.00000  Uiso   1.00
O334   O     0.85543   0.61874   0.28907   0.00000  Uiso   1.00
O335   O     0.90866   0.59656   0.24313   0.00000  Uiso   1.00
H336   H     0.91917   0.58129   0.27509   0.00000  Uiso   1.00
C337   C     0.08681   0.83338   0.16914   0.00000  Uiso   1.00
C338   C     0.24652   0.83329   0.16418   0.00000  Uiso   1.00
C339   C     0.16650   0.83334   0.07297   0.00000  Uiso   1.00
C340   C     0.16683   0.83332   0.26037   0.00000  Uiso   1.00
C341   C     0.16661   0.83335   0.02181   0.00000  Uiso   1.00
C342   C     0.16673   0.83332   0.31153   0.00000  Uiso   1.00
C343   C     0.02130   0.79229   0.17174   0.00000  Uiso   1.00
C344   C     0.31202   0.87441   0.16159   0.00000  Uiso   1.00
C345   C     0.31231   0.79209   0.16368   0.00000  Uiso   1.00
C346   C     0.02103   0.87461   0.16957   0.00000  Uiso   1.00
C347   C     0.29081   0.83322   0.16188   0.00000  Uiso   1.00
C348   C     0.04252   0.83347   0.17142   0.00000  Uiso   1.00
C349   C     0.18459   0.69053   0.20594   0.00000  Uiso   1.00
C350   C     0.14875   0.97614   0.12739   0.00000  Uiso   1.00
C351   C     0.14866   0.69068   0.12746   0.00000  Uiso   1.00
C352   C     0.18467   0.97599   0.20588   0.00000  Uiso   1.00
N353   N     0.16667   0.95240   0.16667   0.00000  Uiso   1.00
N354   N     0.16667   0.71427   0.16667   0.00000  Uiso   1.00
O355   O     0.10559   0.87154   0.16666   0.00000  Uiso   1.00
O356   O     0.22774   0.79513   0.16667   0.00000  Uiso   1.00
O357   O     0.22774   0.87154   0.16667   0.00000  Uiso   1.00
O358   O     0.10559   0.79513   0.16666   0.00000  Uiso   1.00
O359   O     0.16667   0.87155   0.09511   0.00000  Uiso   1.00
O360   O     0.16666   0.79512   0.23822   0.00000  Uiso   1.00
O361   O     0.16666   0.87155   0.23822   0.00000  Uiso   1.00
O362   O     0.16667   0.79512   0.09511   0.00000  Uiso   1.00
Zn363  Zn    0.16667   0.88437   0.16667   0.00000  Uiso   1.00
Zn364  Zn    0.16667   0.78229   0.16667   0.00000  Uiso   1.00
N365   N     0.04245   0.75079   0.18284   0.00000  Uiso   1.00
H366   H     0.03189   0.73782   0.21622   0.00000  Uiso   1.00
H367   H     0.03612   0.72773   0.15416   0.00000  Uiso   1.00
N368   N     0.29086   0.91592   0.15065   0.00000  Uiso   1.00
H369   H     0.30136   0.92899   0.11729   0.00000  Uiso   1.00
H370   H     0.29719   0.93891   0.17940   0.00000  Uiso   1.00
N371   N     0.29148   0.75014   0.15480   0.00000  Uiso   1.00
H372   H     0.30207   0.73591   0.12206   0.00000  Uiso   1.00
H373   H     0.29813   0.72824   0.18456   0.00000  Uiso   1.00
N374   N     0.04187   0.91657   0.17828   0.00000  Uiso   1.00
H375   H     0.03133   0.93089   0.21100   0.00000  Uiso   1.00
H376   H     0.03521   0.93840   0.14846   0.00000  Uiso   1.00
C377   C     0.20388   0.71446   0.24910   0.00000  Uiso   1.00
O378   O     0.18779   0.71336   0.28946   0.00000  Uiso   1.00
O379   O     0.24072   0.73741   0.24428   0.00000  Uiso   1.00
H380   H     0.25077   0.75239   0.27658   0.00000  Uiso   1.00
C381   C     0.12949   0.95222   0.08418   0.00000  Uiso   1.00
O382   O     0.14536   0.95374   0.04371   0.00000  Uiso   1.00
O383   O     0.09292   0.92877   0.08911   0.00000  Uiso   1.00
H384   H     0.08292   0.91377   0.05680   0.00000  Uiso   1.00
C385   C     0.12863   0.71481   0.08483   0.00000  Uiso   1.00
O386   O     0.14464   0.71495   0.04441   0.00000  Uiso   1.00
O387   O     0.09108   0.73640   0.09022   0.00000  Uiso   1.00
H388   H     0.08053   0.75168   0.05828   0.00000  Uiso   1.00
C389   C     0.20465   0.95187   0.24856   0.00000  Uiso   1.00
O390   O     0.18877   0.95208   0.28907   0.00000  Uiso   1.00
O391   O     0.24200   0.92989   0.24313   0.00000  Uiso   1.00
H392   H     0.25250   0.91462   0.27509   0.00000  Uiso   1.00
C393   C     0.42014   0.83338   0.16914   0.00000  Uiso   1.00
C394   C     0.57986   0.83329   0.16418   0.00000  Uiso   1.00
C395   C     0.49983   0.83334   0.07297   0.00000  Uiso   1.00
C396   C     0.50017   0.83332   0.26037   0.00000  Uiso   1.00
C397   C     0.49994   0.83335   0.02181   0.00000  Uiso   1.00
C398   C     0.50006   0.83332   0.31153   0.00000  Uiso   1.00
C399   C     0.35464   0.79229   0.17174   0.00000  Uiso   1.00
C400   C     0.64536   0.87441   0.16159   0.00000  Uiso   1.00
C401   C     0.64564   0.79209   0.16368   0.00000  Uiso   1.00
C402   C     0.35436   0.87461   0.16957   0.00000  Uiso   1.00
C403   C     0.62414   0.83322   0.16188   0.00000  Uiso   1.00
C404   C     0.37586   0.83347   0.17142   0.00000  Uiso   1.00
C405   C     0.51793   0.69053   0.20594   0.00000  Uiso   1.00
C406   C     0.48208   0.97614   0.12739   0.00000  Uiso   1.00
C407   C     0.48199   0.69068   0.12746   0.00000  Uiso   1.00
C408   C     0.51800   0.97599   0.20588   0.00000  Uiso   1.00
N409   N     0.50000   0.95240   0.16667   0.00000  Uiso   1.00
N410   N     0.50000   0.71427   0.16667   0.00000  Uiso   1.00
O411   O     0.43892   0.87154   0.16666   0.00000  Uiso   1.00
O412   O     0.56108   0.79513   0.16667   0.00000  Uiso   1.00
O413   O     0.56108   0.87154   0.16667   0.00000  Uiso   1.00
O414   O     0.43892   0.79513   0.16666   0.00000  Uiso   1.00
O415   O     0.50000   0.87155   0.09511   0.00000  Uiso   1.00
O416   O     0.50000   0.79512   0.23822   0.00000  Uiso   1.00
O417   O     0.50000   0.87155   0.23822   0.00000  Uiso   1.00
O418   O     0.50000   0.79512   0.09511   0.00000  Uiso   1.00
Zn419  Zn    0.50000   0.88437   0.16667   0.00000  Uiso   1.00
Zn420  Zn    0.50000   0.78229   0.16667   0.00000  Uiso   1.00
N421   N     0.37578   0.75079   0.18284   0.00000  Uiso   1.00
H422   H     0.36522   0.73782   0.21622   0.00000  Uiso   1.00
H423   H     0.36946   0.72773   0.15416   0.00000  Uiso   1.00
N424   N     0.62419   0.91592   0.15065   0.00000  Uiso   1.00
H425   H     0.63470   0.92899   0.11729   0.00000  Uiso   1.00
H426   H     0.63053   0.93891   0.17940   0.00000  Uiso   1.00
N427   N     0.62481   0.75014   0.15480   0.00000  Uiso   1.00
H428   H     0.63540   0.73591   0.12206   0.00000  Uiso   1.00
H429   H     0.63146   0.72824   0.18456   0.00000  Uiso   1.00
N430   N     0.37521   0.91657   0.17828   0.00000  Uiso   1.00
H431   H     0.36467   0.93089   0.21100   0.00000  Uiso   1.00
H432   H     0.36854   0.93840   0.14846   0.00000  Uiso   1.00
C433   C     0.53721   0.71446   0.24910   0.00000  Uiso   1.00
O434   O     0.52112   0.71336   0.28946   0.00000  Uiso   1.00
O435   O     0.57406   0.73741   0.24428   0.00000  Uiso   1.00
H436   H     0.58410   0.75239   0.27658   0.00000  Uiso   1.00
C437   C     0.46282   0.95222   0.08418   0.00000  Uiso   1.00
O438   O     0.47869   0.95374   0.04371   0.00000  Uiso   1.00
O439   O     0.42625   0.92877   0.08911   0.00000  Uiso   1.00
H440   H     0.41626   0.91377   0.05680   0.00000  Uiso   1.00
C441   C     0.46196   0.71481   0.08483   0.00000  Uiso   1.00
O442   O     0.47797   0.71495   0.04441   0.00000  Uiso   1.00
O443   O     0.42441   0.73640   0.09022   0.00000  Uiso   1.00
H444   H     0.41386   0.75168   0.05828   0.00000  Uiso   1.00
C445   C     0.53798   0.95187   0.24856   0.00000  Uiso   1.00
O446   O     0.52210   0.95208   0.28907   0.00000  Uiso   1.00
O447   O     0.57533   0.92989   0.24313   0.00000  Uiso   1.00
H448   H     0.58584   0.91462   0.27509   0.00000  Uiso   1.00
C449   C     0.75347   0.83338   0.16914   0.00000  Uiso   1.00
C450   C     0.91319   0.83329   0.16418   0.00000  Uiso   1.00
C451   C     0.83317   0.83334   0.07297   0.00000  Uiso   1.00
C452   C     0.83350   0.83332   0.26037   0.00000  Uiso   1.00
C453   C     0.83327   0.83335   0.02181   0.00000  Uiso   1.00
C454   C     0.83340   0.83332   0.31153   0.00000  Uiso   1.00
C455   C     0.68797   0.79229   0.17174   0.00000  Uiso   1.00
C456   C     0.97869   0.87441   0.16159   0.00000  Uiso   1.00
C457   C     0.97897   0.79209   0.16368   0.00000  Uiso   1.00
C458   C     0.68769   0.87461   0.16957   0.00000  Uiso   1.00
C459   C     0.95747   0.83322   0.16188   0.00000  Uiso   1.00
C460   C     0.70919   0.83347   0.17142   0.00000  Uiso   1.00
C461   C     0.85126   0.69053   0.20594   0.00000  Uiso   1.00
C462   C     0.81541   0.97614   0.12739   0.00000  Uiso   1.00
C463   C     0.81532   0.69068   0.12746   0.00000  Uiso   1.00
C464   C     0.85134   0.97599   0.20588   0.00000  Uiso   1.00
N465   N     0.83333   0.95240   0.16667   0.00000  Uiso   1.00
N466   N     0.83333   0.71427   0.16667   0.00000  Uiso   1.00
O467   O     0.77226   0.87154   0.16666   0.00000  Uiso   1.00
O468   O     0.89441   0.79513   0.16667   0.00000  Uiso   1.00
O469   O     0.89441   0.87154   0.16667   0.00000  Uiso   1.00
O470   O     0.77226   0.79513   0.16666   0.00000  Uiso   1.00
O471   O     0.83334   0.87155   0.09511   0.00000  Uiso   1.00
O472   O     0.83333   0.79512   0.23822   0.00000  Uiso   1.00
O473   O     0.83333   0.87155   0.23822   0.00000  Uiso   1.00
O474   O     0.83334   0.79512   0.09511   0.00000  Uiso   1.00
Zn475  Zn    0.83333   0.88437   0.16667   0.00000  Uiso   1.00
Zn476  Zn    0.83333   0.78229   0.16667   0.00000  Uiso   1.00
N477   N     0.70911   0.75079   0.18284   0.00000  Uiso   1.00
H478   H     0.69856   0.73782   0.21622   0.00000  Uiso   1.00
H479   H     0.70279   0.72773   0.15416   0.00000  Uiso   1.00
N480   N     0.95753   0.91592   0.15065   0.00000  Uiso   1.00
H481   H     0.96803   0.92899   0.11729   0.00000  Uiso   1.00
H482   H     0.96386   0.93891   0.17940   0.00000  Uiso   1.00
N483   N     0.95815   0.75014   0.15480   0.00000  Uiso   1.00
H484   H     0.96874   0.73591   0.12206   0.00000  Uiso   1.00
H485   H     0.96480   0.72824   0.18456   0.00000  Uiso   1.00
N486   N     0.70854   0.91657   0.17828   0.00000  Uiso   1.00
H487   H     0.69800   0.93089   0.21100   0.00000  Uiso   1.00
H488   H     0.70187   0.93840   0.14846   0.00000  Uiso   1.00
C489   C     0.87055   0.71446   0.24910   0.00000  Uiso   1.00
O490   O     0.85446   0.71336   0.28946   0.00000  Uiso   1.00
O491   O     0.90739   0.73741   0.24428   0.00000  Uiso   1.00
H492   H     0.91743   0.75239   0.27658   0.00000  Uiso   1.00
C493   C     0.79615   0.95222   0.08418   0.00000  Uiso   1.00
O494   O     0.81203   0.95374   0.04371   0.00000  Uiso   1.00
O495   O     0.75958   0.92877   0.08911   0.00000  Uiso   1.00
H496   H     0.74959   0.91377   0.05680   0.00000  Uiso   1.00
C497   C     0.79529   0.71481   0.08483   0.00000  Uiso   1.00
O498   O     0.81131   0.71495   0.04441   0.00000  Uiso   1.00
O499   O     0.75775   0.73640   0.09022   0.00000  Uiso   1.00
H500   H     0.74719   0.75168   0.05828   0.00000  Uiso   1.00
C501   C     0.87131   0.95187   0.24856   0.00000  Uiso   1.00
O502   O     0.85543   0.95208   0.28907   0.00000  Uiso   1.00
O503   O     0.90866   0.92989   0.24313   0.00000  Uiso   1.00
H504   H     0.91917   0.91462   0.27509   0.00000  Uiso   1.00
C505   C     0.08681   0.16672   0.50248   0.00000  Uiso   1.00
C506   C     0.24652   0.16662   0.49751   0.00000  Uiso   1.00
C507   C     0.16650   0.16668   0.40630   0.00000  Uiso   1.00
C508   C     0.16683   0.16666   0.59370   0.00000  Uiso   1.00
C509   C     0.16661   0.16668   0.35514   0.00000  Uiso   1.00
C510   C     0.16673   0.16665   0.64486   0.00000  Uiso   1.00
C511   C     0.02130   0.12562   0.50507   0.00000  Uiso   1.00
C512   C     0.31202   0.20774   0.49493   0.00000  Uiso   1.00
C513   C     0.31231   0.12542   0.49701   0.00000  Uiso   1.00
C514   C     0.02103   0.20794   0.50290   0.00000  Uiso   1.00
C515   C     0.29081   0.16656   0.49522   0.00000  Uiso   1.00
C516   C     0.04252   0.16680   0.50475   0.00000  Uiso   1.00
C517   C     0.18459   0.02386   0.53927   0.00000  Uiso   1.00
C518   C     0.14875   0.30948   0.46072   0.00000  Uiso   1.00
C519   C     0.14866   0.02401   0.46079   0.00000  Uiso   1.00
C520   C     0.18467   0.30932   0.53921   0.00000  Uiso   1.00
N521   N     0.16667   0.28573   0.50000   0.00000  Uiso   1.00
N522   N     0.16667   0.04760   0.50000   0.00000  Uiso   1.00
O523   O     0.10559   0.20487   0.50000   0.00000  Uiso   1.00
O524   O     0.22774   0.12846   0.50000   0.00000  Uiso   1.00
O525   O     0.22774   0.20487   0.50000   0.00000  Uiso   1.00
O526   O     0.10559   0.12846   0.50000   0.00000  Uiso   1.00
O527   O     0.16667   0.20488   0.42845   0.00000  Uiso   1.00
O528   O     0.16666   0.12845   0.57155   0.00000  Uiso   1.00
O529   O     0.16666   0.20488   0.57155   0.00000  Uiso   1.00
O530   O     0.16667   0.12845   0.42845   0.00000  Uiso   1.00
Zn531  Zn    0.16667   0.21771   0.50000   0.00000  Uiso   1.00
Zn532  Zn    0.16667   0.11563   0.50000   0.00000  Uiso   1.00
N533   N     0.04245   0.08413   0.51617   0.00000  Uiso   1.00
H534   H     0.03189   0.07115   0.54956   0.00000  Uiso   1.00
H535   H     0.03612   0.06106   0.48749   0.00000  Uiso   1.00
N536   N     0.29086   0.24926   0.48399   0.00000  Uiso   1.00
H537   H     0.30136   0.26232   0.45062   0.00000  Uiso   1.00
H538   H     0.29719   0.27225   0.51273   0.00000  Uiso   1.00
N539   N     0.29148   0.08348   0.48813   0.00000  Uiso   1.00
H540   H     0.30207   0.06925   0.45539   0.00000  Uiso   1.00
H541   H     0.29813   0.06157   0.51789   0.00000  Uiso   1.00
N542   N     0.04187   0.24990   0.51162   0.00000  Uiso   1.00
H543   H     0.03133   0.26423   0.54433   0.00000  Uiso   1.00
H544   H     0.03521   0.27173   0.48179   0.00000  Uiso   1.00
C545   C     0.20388   0.04779   0.58243   0.00000  Uiso   1.00
O546   O     0.18779   0.04669   0.62279   0.00000  Uiso   1.00
O547   O     0.24072   0.07075   0.57761   0.00000  Uiso   1.00
H548   H     0.25077   0.08572   0.60991   0.00000  Uiso   1.00
C549   C     0.12949   0.28555   0.41752   0.00000  Uiso   1.00
O550   O     0.14536   0.28707   0.37704   0.00000  Uiso   1.00
O551   O     0.09292   0.26211   0.42244   0.00000  Uiso   1.00
H552   H     0.08292   0.24711   0.39014   0.00000  Uiso   1.00
C553   C     0.12863   0.04815   0.41817   0.00000  Uiso   1.00
O554   O     0.14464   0.04829   0.37774   0.00000  Uiso   1.00
O555   O     0.09108   0.06973   0.42356   0.00000  Uiso   1.00
H556   H     0.08053   0.08502   0.39162   0.00000  Uiso   1.00
C557   C     0.20465   0.28520   0.58189   0.00000  Uiso   1.00
O558   O     0.18877   0.28541   0.62240   0.00000  Uiso   1.00
O559   O     0.24200   0.26323   0.57646   0.00000  Uiso   1.00
H560   H     0.25250   0.24795   0.60843   0.00000  Uiso   1.00
C561   C     0.42014   0.16672   0.50248   0.00000  Uiso   1.00
C562   C     0.57986   0.16662   0.49751   0.00000  Uiso   1.00
C563   C     0.49983   0.16668   0.40630   0.00000  Uiso   1.00
C564   C     0.50017   0.16666   0.59370   0.00000  Uiso   1.00
C565   C     0.49994   0.16668   0.35514   0.00000  Uiso   1.00
C566   C     0.50006   0.16665   0.64486   0.00000  Uiso   1.00
C567   C     0.35464   0.12562   0.50507   0.00000  Uiso   1.00
C568   C     0.64536   0.20774   0.49493   0.00000  Uiso   1.00
C569   C     0.64564   0.12542   0.49701   0.00000  Uiso   1.00
C570   C     0.35436   0.20794   0.50290   0.00000  Uiso   1.00
C571   C     0.62414   0.16656   0.49522   0.00000  Uiso   1.00
C572   C     0.37586   0.16680   0.50475   0.00000  Uiso   1.00
C573   C     0.51793   0.02386   0.53927   0.00000  Uiso   1.00
C574   C     0.48208   0.30948   0.46072   0.00000  Uiso   1.00
C575   C     0.48199   0.02401   0.46079   0.00000  Uiso   1.00
C576   C     0.51800   0.30932   0.53921   0.00000  Uiso   1.00
N577   N     0.50000   0.28573   0.50000   0.00000  Uiso   1.00
N578   N     0.50000   0.04760   0.50000   0.00000  Uiso   1.00
O579   O     0.43892   0.20487   0.50000   0.00000  Uiso   1.00
O580   O     0.56108   0.12846   0.50000   0.00000  Uiso   1.00
O581   O     0.56108   0.20487   0.50000   0.00000  Uiso   1.00
O582   O     0.43892   0.12846   0.50000   0.00000  Uiso   1.00
O583   O     0.50000   0.20488   0.42845   0.00000  Uiso   1.00
O584   O     0.50000   0.12845   0.57155   0.00000  Uiso   1.00
O585   O     0.50000   0.20488   0.57155   0.00000  Uiso   1.00
O586   O     0.50000   0.12845   0.42845   0.00000  Uiso   1.00
Zn587  Zn    0.50000   0.21771   0.50000   0.00000  Uiso   1.00
Zn588  Zn    0.50000   0.11563   0.50000   0.00000  Uiso   1.00
N589   N     0.37578   0.08413   0.51617   0.00000  Uiso   1.00
H590   H     0.36522   0.07115   0.54956   0.00000  Uiso   1.00
H591   H     0.36946   0.06106   0.48749   0.00000  Uiso   1.00
N592   N     0.62419   0.24926   0.48399   0.00000  Uiso   1.00
H593   H     0.63470   0.26232   0.45062   0.00000  Uiso   1.00
H594   H     0.63053   0.27225   0.51273   0.00000  Uiso   1.00
N595   N     0.62481   0.08348   0.48813   0.00000  Uiso   1.00
H596   H     0.63540   0.06925   0.45539   0.00000  Uiso   1.00
H597   H     0.63146   0.06157   0.51789   0.00000  Uiso   1.00
N598   N     0.37521   0.24990   0.51162   0.00000  Uiso   1.00
H599   H     0.36467   0.26423   0.54433   0.00000  Uiso   1.00
H600   H     0.36854   0.27173   0.48179   0.00000  Uiso   1.00
C601   C     0.53721   0.04779   0.58243   0.00000  Uiso   1.00
O602   O     0.52112   0.04669   0.62279   0.00000  Uiso   1.00
O603   O     0.57406   0.07075   0.57761   0.00000  Uiso   1.00
H604   H     0.58410   0.08572   0.60991   0.00000  Uiso   1.00
C605   C     0.46282   0.28555   0.41752   0.00000  Uiso   1.00
O606   O     0.47869   0.28707   0.37704   0.00000  Uiso   1.00
O607   O     0.42625   0.26211   0.42244   0.00000  Uiso   1.00
H608   H     0.41626   0.24711   0.39014   0.00000  Uiso   1.00
C609   C     0.46196   0.04815   0.41817   0.00000  Uiso   1.00
O610   O     0.47797   0.04829   0.37774   0.00000  Uiso   1.00
O611   O     0.42441   0.06973   0.42356   0.00000  Uiso   1.00
H612   H     0.41386   0.08502   0.39162   0.00000  Uiso   1.00
C613   C     0.53798   0.28520   0.58189   0.00000  Uiso   1.00
O614   O     0.52210   0.28541   0.62240   0.00000  Uiso   1.00
O615   O     0.57533   0.26323   0.57646   0.00000  Uiso   1.00
H616   H     0.58584   0.24795   0.60843   0.00000  Uiso   1.00
C617   C     0.75347   0.16672   0.50248   0.00000  Uiso   1.00
C618   C     0.91319   0.16662   0.49751   0.00000  Uiso   1.00
C619   C     0.83317   0.16668   0.40630   0.00000  Uiso   1.00
C620   C     0.83350   0.16666   0.59370   0.00000  Uiso   1.00
C621   C     0.83327   0.16668   0.35514   0.00000  Uiso   1.00
C622   C     0.83340   0.16665   0.64486   0.00000  Uiso   1.00
C623   C     0.68797   0.12562   0.50507   0.00000  Uiso   1.00
C624   C     0.97869   0.20774   0.49493   0.00000  Uiso   1.00
C625   C     0.97897   0.12542   0.49701   0.00000  Uiso   1.00
C626   C     0.68769   0.20794   0.50290   0.00000  Uiso   1.00
C627   C     0.95747   0.16656   0.49522   0.00000  Uiso   1.00
C628   C     0.70919   0.16680   0.50475   0.00000  Uiso   1.00
C629   C     0.85126   0.02386   0.53927   0.00000  Uiso   1.00
C630   C     0.81541   0.30948   0.46072   0.00000  Uiso   1.00
C631   C     0.81532   0.02401   0.46079   0.00000  Uiso   1.00
C632   C     0.85134   0.30932   0.53921   0.00000  Uiso   1.00
N633   N     0.83333   0.28573   0.50000   0.00000  Uiso   1.00
N634   N     0.83333   0.04760   0.50000   0.00000  Uiso   1.00
O635   O     0.77226   0.20487   0.50000   0.00000  Uiso   1.00
O636   O     0.89441   0.12846   0.50000   0.00000  Uiso   1.00
O637   O     0.89441   0.20487   0.50000   0.00000  Uiso   1.00
O638   O     0.77226   0.12846   0.50000   0.00000  Uiso   1.00
O639   O     0.83334   0.20488   0.42845   0.00000  Uiso   1.00
O640   O     0.83333   0.12845   0.57155   0.00000  Uiso   1.00
O641   O     0.83333   0.20488   0.57155   0.00000  Uiso   1.00
O642   O     0.83334   0.12845   0.42845   0.00000  Uiso   1.00
Zn643  Zn    0.83333   0.21771   0.50000   0.00000  Uiso   1.00
Zn644  Zn    0.83333   0.11563   0.50000   0.00000  Uiso   1.00
N645   N     0.70911   0.08413   0.51617   0.00000  Uiso   1.00
H646   H     0.69856   0.07115   0.54956   0.00000  Uiso   1.00
H647   H     0.70279   0.06106   0.48749   0.00000  Uiso   1.00
N648   N     0.95753   0.24926   0.48399   0.00000  Uiso   1.00
H649   H     0.96803   0.26232   0.45062   0.00000  Uiso   1.00
H650   H     0.96386   0.27225   0.51273   0.00000  Uiso   1.00
N651   N     0.95815   0.08348   0.48813   0.00000  Uiso   1.00
H652   H     0.96874   0.06925   0.45539   0.00000  Uiso   1.00
H653   H     0.96480   0.06157   0.51789   0.00000  Uiso   1.00
N654   N     0.70854   0.24990   0.51162   0.00000  Uiso   1.00
H655   H     0.69800   0.26423   0.54433   0.00000  Uiso   1.00
H656   H     0.70187   0.27173   0.48179   0.00000  Uiso   1.00
C657   C     0.87055   0.04779   0.58243   0.00000  Uiso   1.00
O658   O     0.85446   0.04669   0.62279   0.00000  Uiso   1.00
O659   O     0.90739   0.07075   0.57761   0.00000  Uiso   1.00
H660   H     0.91743   0.08572   0.60991   0.00000  Uiso   1.00
C661   C     0.79615   0.28555   0.41752   0.00000  Uiso   1.00
O662   O     0.81203   0.28707   0.37704   0.00000  Uiso   1.00
O663   O     0.75958   0.26211   0.42244   0.00000  Uiso   1.00
H664   H     0.74959   0.24711   0.39014   0.00000  Uiso   1.00
C665   C     0.79529   0.04815   0.41817   0.00000  Uiso   1.00
O666   O     0.81131   0.04829   0.37774   0.00000  Uiso   1.00
O667   O     0.75775   0.06973   0.42356   0.00000  Uiso   1.00
H668   H     0.74719   0.08502   0.39162   0.00000  Uiso   1.00
C669   C     0.87131   0.28520   0.58189   0.00000  Uiso   1.00
O670   O     0.85543   0.28541   0.62240   0.00000  Uiso   1.00
O671   O     0.90866   0.26323   0.57646   0.00000  Uiso   1.00
H672   H     0.91917   0.24795   0.60843   0.00000  Uiso   1.00
C673   C     0.08681   0.50005   0.50248   0.00000  Uiso   1.00
C674   C     0.24652   0.49996   0.49751   0.00000  Uiso   1.00
C675   C     0.16650   0.50001   0.40630   0.00000  Uiso   1.00
C676   C     0.16683   0.49999   0.59370   0.00000  Uiso   1.00
C677   C     0.16661   0.50001   0.35514   0.00000  Uiso   1.00
C678   C     0.16673   0.49999   0.64486   0.00000  Uiso   1.00
C679   C     0.02130   0.45895   0.50507   0.00000  Uiso   1.00
C680   C     0.31202   0.54108   0.49493   0.00000  Uiso   1.00
C681   C     0.31231   0.45876   0.49701   0.00000  Uiso   1.00
C682   C     0.02103   0.54127   0.50290   0.00000  Uiso   1.00
C683   C     0.29081   0.49989   0.49522   0.00000  Uiso   1.00
C684   C     0.04252   0.50014   0.50475   0.00000  Uiso   1.00
C685   C     0.18459   0.35719   0.53927   0.00000  Uiso   1.00
C686   C     0.14875   0.64281   0.46072   0.00000  Uiso   1.00
C687   C     0.14866   0.35735   0.46079   0.00000  Uiso   1.00
C688   C     0.18467   0.64266   0.53921   0.00000  Uiso   1.00
N689   N     0.16667   0.61907   0.50000   0.00000  Uiso   1.00
N690   N     0.16667   0.38093   0.50000   0.00000  Uiso   1.00
O691   O     0.10559   0.53821   0.50000   0.00000  Uiso   1.00
O692   O     0.22774   0.46179   0.50000   0.00000  Uiso   1.00
O693   O     0.22774   0.53821   0.50000   0.00000  Uiso   1.00
O694   O     0.10559   0.46179   0.50000   0.00000  Uiso   1.00
O695   O     0.16667   0.53821   0.42845   0.00000  Uiso   1.00
O696   O     0.16666   0.46179   0.57155   0.00000  Uiso   1.00
O697   O     0.16666   0.53821   0.57155   0.00000  Uiso   1.00
O698   O     0.16667   0.46179   0.42845   0.00000  Uiso   1.00
Zn699  Zn    0.16667   0.55104   0.50000   0.00000  Uiso   1.00
Zn700  Zn    0.16667   0.44896   0.50000   0.00000  Uiso   1.00
N701   N     0.04245   0.41746   0.51617   0.00000  Uiso   1.00
H702   H     0.03189   0.40449   0.54956   0.00000  Uiso   1.00
H703   H     0.03612   0.39440   0.48749   0.00000  Uiso   1.00
N704   N     0.29086   0.58259   0.48399   0.00000  Uiso   1.00
H705   H     0.30136   0.59566   0.45062   0.00000  Uiso   1.00
H706   H     0.29719   0.60558   0.51273   0.00000  Uiso   1.00
N707   N     0.29148   0.41681   0.48813   0.00000  Uiso   1.00
H708   H     0.30207   0.40258   0.45539   0.00000  Uiso   1.00
H709   H     0.29813   0.39491   0.51789   0.00000  Uiso   1.00
N710   N     0.04187   0.58323   0.51162   0.00000  Uiso   1.00
H711   H     0.03133   0.59756   0.54433   0.00000  Uiso   1.00
H712   H     0.03521   0.60506   0.48179   0.00000  Uiso   1.00
C713   C     0.20388   0.38112   0.58243   0.00000  Uiso   1.00
O714   O     0.18779   0.38003   0.62279   0.00000  Uiso   1.00
O715   O     0.24072   0.40408   0.57761   0.00000  Uiso   1.00
H716   H     0.25077   0.41905   0.60991   0.00000  Uiso   1.00
C717   C     0.12949   0.61889   0.41752   0.00000  Uiso   1.00
O718   O     0.14536   0.62041   0.37704   0.00000  Uiso   1.00
O719   O     0.09292   0.59544   0.42244   0.00000  Uiso   1.00
H720   H     0.08292   0.58044   0.39014   0.00000  Uiso   1.00
C721   C     0.12863   0.38148   0.41817   0.00000  Uiso   1.00
O722   O     0.14464   0.38162   0.37774   0.00000  Uiso   1.00
O723   O     0.09108   0.40306   0.42356   0.00000  Uiso   1.00
H724   H     0.08053   0.41835   0.39162   0.00000  Uiso   1.00
C725   C     0.20465   0.61854   0.58189   0.00000  Uiso   1.00
O726   O     0.18877   0.61874   0.62240   0.00000  Uiso   1.00
O727   O     0.24200   0.59656   0.57646   0.00000  Uiso   1.00
H728   H     0.25250   0.58129   0.60843   0.00000  Uiso   1.00
C729   C     0.42014   0.50005   0.50248   0.00000  Uiso   1.00
C730   C     0.57986   0.49996   0.49751   0.00000  Uiso   1.00
C731   C     0.49983   0.50001   0.40630   0.00000  Uiso   1.00
C732   C     0.50017   0.49999   0.59370   0.00000  Uiso   1.00
C733   C     0.49994   0.50001   0.35514   0.00000  Uiso   1.00
C734   C     0.50006   0.49999   0.64486   0.00000  Uiso   1.00
C735   C     0.35464   0.45895   0.50507   0.00000  Uiso   1.00
C736   C     0.64536   0.54108   0.49493   0.00000  Uiso   1.00
C737   C     0.64564   0.45876   0.49701   0.00000  Uiso   1.00
C738   C     0.35436   0.54127   0.50290   0.00000  Uiso   1.00
C739   C     0.62414   0.49989   0.49522   0.00000  Uiso   1.00
C740   C     0.37586   0.50014   0.50475   0.00000  Uiso   1.00
C741   C     0.51793   0.35719   0.53927   0.00000  Uiso   1.00
C742   C     0.48208   0.64281   0.46072   0.00000  Uiso   1.00
C743   C     0.48199   0.35735   0.46079   0.00000  Uiso   1.00
C744   C     0.51800   0.64266   0.53921   0.00000  Uiso   1.00
N745   N     0.50000   0.61907   0.50000   0.00000  Uiso   1.00
N746   N     0.50000   0.38093   0.50000   0.00000  Uiso   1.00
O747   O     0.43892   0.53821   0.50000   0.00000  Uiso   1.00
O748   O     0.56108   0.46179   0.50000   0.00000  Uiso   1.00
O749   O     0.56108   0.53821   0.50000   0.00000  Uiso   1.00
O750   O     0.43892   0.46179   0.50000   0.00000  Uiso   1.00
O751   O     0.50000   0.53821   0.42845   0.00000  Uiso   1.00
O752   O     0.50000   0.46179   0.57155   0.00000  Uiso   1.00
O753   O     0.50000   0.53821   0.57155   0.00000  Uiso   1.00
O754   O     0.50000   0.46179   0.42845   0.00000  Uiso   1.00
Zn755  Zn    0.50000   0.55104   0.50000   0.00000  Uiso   1.00
Zn756  Zn    0.50000   0.44896   0.50000   0.00000  Uiso   1.00
N757   N     0.37578   0.41746   0.51617   0.00000  Uiso   1.00
H758   H     0.36522   0.40449   0.54956   0.00000  Uiso   1.00
H759   H     0.36946   0.39440   0.48749   0.00000  Uiso   1.00
N760   N     0.62419   0.58259   0.48399   0.00000  Uiso   1.00
H761   H     0.63470   0.59566   0.45062   0.00000  Uiso   1.00
H762   H     0.63053   0.60558   0.51273   0.00000  Uiso   1.00
N763   N     0.62481   0.41681   0.48813   0.00000  Uiso   1.00
H764   H     0.63540   0.40258   0.45539   0.00000  Uiso   1.00
H765   H     0.63146   0.39491   0.51789   0.00000  Uiso   1.00
N766   N     0.37521   0.58323   0.51162   0.00000  Uiso   1.00
H767   H     0.36467   0.59756   0.54433   0.00000  Uiso   1.00
H768   H     0.36854   0.60506   0.48179   0.00000  Uiso   1.00
C769   C     0.53721   0.38112   0.58243   0.00000  Uiso   1.00
O770   O     0.52112   0.38003   0.62279   0.00000  Uiso   1.00
O771   O     0.57406   0.40408   0.57761   0.00000  Uiso   1.00
H772   H     0.58410   0.41905   0.60991   0.00000  Uiso   1.00
C773   C     0.46282   0.61889   0.41752   0.00000  Uiso   1.00
O774   O     0.47869   0.62041   0.37704   0.00000  Uiso   1.00
O775   O     0.42625   0.59544   0.42244   0.00000  Uiso   1.00
H776   H     0.41626   0.58044   0.39014   0.00000  Uiso   1.00
C777   C     0.46196   0.38148   0.41817   0.00000  Uiso   1.00
O778   O     0.47797   0.38162   0.37774   0.00000  Uiso   1.00
O779   O     0.42441   0.40306   0.42356   0.00000  Uiso   1.00
H780   H     0.41386   0.41835   0.39162   0.00000  Uiso   1.00
C781   C     0.53798   0.61854   0.58189   0.00000  Uiso   1.00
O782   O     0.52210   0.61874   0.62240   0.00000  Uiso   1.00
O783   O     0.57533   0.59656   0.57646   0.00000  Uiso   1.00
H784   H     0.58584   0.58129   0.60843   0.00000  Uiso   1.00
C785   C     0.75347   0.50005   0.50248   0.00000  Uiso   1.00
C786   C     0.91319   0.49996   0.49751   0.00000  Uiso   1.00
C787   C     0.83317   0.50001   0.40630   0.00000  Uiso   1.00
C788   C     0.83350   0.49999   0.59370   0.00000  Uiso   1.00
C789   C     0.83327   0.50001   0.35514   0.00000  Uiso   1.00
C790   C     0.83340   0.49999   0.64486   0.00000  Uiso   1.00
C791   C     0.68797   0.45895   0.50507   0.00000  Uiso   1.00
C792   C     0.97869   0.54108   0.49493   0.00000  Uiso   1.00
C793   C     0.97897   0.45876   0.49701   0.00000  Uiso   1.00
C794   C     0.68769   0.54127   0.50290   0.00000  Uiso   1.00
C795   C     0.95747   0.49989   0.49522   0.00000  Uiso   1.00
C796   C     0.70919   0.50014   0.50475   0.00000  Uiso   1.00
C797   C     0.85126   0.35719   0.53927   0.00000  Uiso   1.00
C798   C     0.81541   0.64281   0.46072   0.00000  Uiso   1.00
C799   C     0.81532   0.35735   0.46079   0.00000  Uiso   1.00
C800   C     0.85134   0.64266   0.53921   0.00000  Uiso   1.00
N801   N     0.83333   0.61907   0.50000   0.00000  Uiso   1.00
N802   N     0.83333   0.38093   0.50000   0.00000  Uiso   1.00
O803   O     0.77226   0.53821   0.50000   0.00000  Uiso   1.00
O804   O     0.89441   0.46179   0.50000   0.00000  Uiso   1.00
O805   O     0.89441   0.53821   0.50000   0.00000  Uiso   1.00
O806   O     0.77226   0.46179   0.50000   0.00000  Uiso   1.00
O807   O     0.83334   0.53821   0.42845   0.00000  Uiso   1.00
O808   O     0.83333   0.46179   0.57155   0.00000  Uiso   1.00
O809   O     0.83333   0.53821   0.57155   0.00000  Uiso   1.00
O810   O     0.83334   0.46179   0.42845   0.00000  Uiso   1.00
Zn811  Zn    0.83333   0.55104   0.50000   0.00000  Uiso   1.00
Zn812  Zn    0.83333   0.44896   0.50000   0.00000  Uiso   1.00
N813   N     0.70911   0.41746   0.51617   0.00000  Uiso   1.00
H814   H     0.69856   0.40449   0.54956   0.00000  Uiso   1.00
H815   H     0.70279   0.39440   0.48749   0.00000  Uiso   1.00
N816   N     0.95753   0.58259   0.48399   0.00000  Uiso   1.00
H817   H     0.96803   0.59566   0.45062   0.00000  Uiso   1.00
H818   H     0.96386   0.60558   0.51273   0.00000  Uiso   1.00
N819   N     0.95815   0.41681   0.48813   0.00000  Uiso   1.00
H820   H     0.96874   0.40258   0.45539   0.00000  Uiso   1.00
H821   H     0.96480   0.39491   0.51789   0.00000  Uiso   1.00
N822   N     0.70854   0.58323   0.51162   0.00000  Uiso   1.00
H823   H     0.69800   0.59756   0.54433   0.00000  Uiso   1.00
H824   H     0.70187   0.60506   0.48179   0.00000  Uiso   1.00
C825   C     0.87055   0.38112   0.58243   0.00000  Uiso   1.00
O826   O     0.85446   0.38003   0.62279   0.00000  Uiso   1.00
O827   O     0.90739   0.40408   0.57761   0.00000  Uiso   1.00
H828   H     0.91743   0.41905   0.60991   0.00000  Uiso   1.00
C829   C     0.79615   0.61889   0.41752   0.00000  Uiso   1.00
O830   O     0.81203   0.62041   0.37704   0.00000  Uiso   1.00
O831   O     0.75958   0.59544   0.42244   0.00000  Uiso   1.00
H832   H     0.74959   0.58044   0.39014   0.00000  Uiso   1.00
C833   C     0.79529   0.38148   0.41817   0.00000  Uiso   1.00
O834   O     0.81131   0.38162   0.37774   0.00000  Uiso   1.00
O835   O     0.75775   0.40306   0.42356   0.00000  Uiso   1.00
H836   H     0.74719   0.41835   0.39162   0.00000  Uiso   1.00
C837   C     0.87131   0.61854   0.58189   0.00000  Uiso   1.00
O838   O     0.85543   0.61874   0.62240   0.00000  Uiso   1.00
O839   O     0.90866   0.59656   0.57646   0.00000  Uiso   1.00
H840   H     0.91917   0.58129   0.60843   0.00000  Uiso   1.00
C841   C     0.08681   0.83338   0.50248   0.00000  Uiso   1.00
C842   C     0.24652   0.83329   0.49751   0.00000  Uiso   1.00
C843   C     0.16650   0.83334   0.40630   0.00000  Uiso   1.00
C844   C     0.16683   0.83332   0.59370   0.00000  Uiso   1.00
C845   C     0.16661   0.83335   0.35514   0.00000  Uiso   1.00
C846   C     0.16673   0.83332   0.64486   0.00000  Uiso   1.00
C847   C     0.02130   0.79229   0.50507   0.00000  Uiso   1.00
C848   C     0.31202   0.87441   0.49493   0.00000  Uiso   1.00
C849   C     0.31231   0.79209   0.49701   0.00000  Uiso   1.00
C850   C     0.02103   0.87461   0.50290   0.00000  Uiso   1.00
C851   C     0.29081   0.83322   0.49522   0.00000  Uiso   1.00
C852   C     0.04252   0.83347   0.50475   0.00000  Uiso   1.00
C853   C     0.18459   0.69053   0.53927   0.00000  Uiso   1.00
C854   C     0.14875   0.97614   0.46072   0.00000  Uiso   1.00
C855   C     0.14866   0.69068   0.46079   0.00000  Uiso   1.00
C856   C     0.18467   0.97599   0.53921   0.00000  Uiso   1.00
N857   N     0.16667   0.95240   0.50000   0.00000  Uiso   1.00
N858   N     0.16667   0.71427   0.50000   0.00000  Uiso   1.00
O859   O     0.10559   0.87154   0.50000   0.00000  Uiso   1.00
O860   O     0.22774   0.79513   0.50000   0.00000  Uiso   1.00
O861   O     0.22774   0.87154   0.50000   0.00000  Uiso   1.00
O862   O     0.10559   0.79513   0.50000   0.00000  Uiso   1.00
O863   O     0.16667   0.87155   0.42845   0.00000  Uiso   1.00
O864   O     0.16666   0.79512   0.57155   0.00000  Uiso   1.00
O865   O     0.16666   0.87155   0.57155   0.00000  Uiso   1.00
O866   O     0.16667   0.79512   0.42845   0.00000  Uiso   1.00
Zn867  Zn    0.16667   0.88437   0.50000   0.00000  Uiso   1.00
Zn868  Zn    0.16667   0.78229   0.50000   0.00000  Uiso   1.00
N869   N     0.04245   0.75079   0.51617   0.00000  Uiso   1.00
H870   H     0.03189   0.73782   0.54956   0.00000  Uiso   1.00
H871   H     0.03612   0.72773   0.48749   0.00000  Uiso   1.00
N872   N     0.29086   0.91592   0.48399   0.00000  Uiso   1.00
H873   H     0.30136   0.92899   0.45062   0.00000  Uiso   1.00
H874   H     0.29719   0.93891   0.51273   0.00000  Uiso   1.00
N875   N     0.29148   0.75014   0.48813   0.00000  Uiso   1.00
H876   H     0.30207   0.73591   0.45539   0.00000  Uiso   1.00
H877   H     0.29813   0.72824   0.51789   0.00000  Uiso   1.00
N878   N     0.04187   0.91657   0.51162   0.00000  Uiso   1.00
H879   H     0.03133   0.93089   0.54433   0.00000  Uiso   1.00
H880   H     0.03521   0.93840   0.48179   0.00000  Uiso   1.00
C881   C     0.20388   0.71446   0.58243   0.00000  Uiso   1.00
O882   O     0.18779   0.71336   0.62279   0.00000  Uiso   1.00
O883   O     0.24072   0.73741   0.57761   0.00000  Uiso   1.00
H884   H     0.25077   0.75239   0.60991   0.00000  Uiso   1.00
C885   C     0.12949   0.95222   0.41752   0.00000  Uiso   1.00
O886   O     0.14536   0.95374   0.37704   0.00000  Uiso   1.00
O887   O     0.09292   0.92877   0.42244   0.00000  Uiso   1.00
H888   H     0.08292   0.91377   0.39014   0.00000  Uiso   1.00
C889   C     0.12863   0.71481   0.41817   0.00000  Uiso   1.00
O890   O     0.14464   0.71495   0.37774   0.00000  Uiso   1.00
O891   O     0.09108   0.73640   0.42356   0.00000  Uiso   1.00
H892   H     0.08053   0.75168   0.39162   0.00000  Uiso   1.00
C893   C     0.20465   0.95187   0.58189   0.00000  Uiso   1.00
O894   O     0.18877   0.95208   0.62240   0.00000  Uiso   1.00
O895   O     0.24200   0.92989   0.57646   0.00000  Uiso   1.00
H896   H     0.25250   0.91462   0.60843   0.00000  Uiso   1.00
C897   C     0.42014   0.83338   0.50248   0.00000  Uiso   1.00
C898   C     0.57986   0.83329   0.49751   0.00000  Uiso   1.00
C899   C     0.49983   0.83334   0.40630   0.00000  Uiso   1.00
C900   C     0.50017   0.83332   0.59370   0.00000  Uiso   1.00
C901   C     0.49994   0.83335   0.35514   0.00000  Uiso   1.00
C902   C     0.50006   0.83332   0.64486   0.00000  Uiso   1.00
C903   C     0.35464   0.79229   0.50507   0.00000  Uiso   1.00
C904   C     0.64536   0.87441   0.49493   0.00000  Uiso   1.00
C905   C     0.64564   0.79209   0.49701   0.00000  Uiso   1.00
C906   C     0.35436   0.87461   0.50290   0.00000  Uiso   1.00
C907   C     0.62414   0.83322   0.49522   0.00000  Uiso   1.00
C908   C     0.37586   0.83347   0.50475   0.00000  Uiso   1.00
C909   C     0.51793   0.69053   0.53927   0.00000  Uiso   1.00
C910   C     0.48208   0.97614   0.46072   0.00000  Uiso   1.00
C911   C     0.48199   0.69068   0.46079   0.00000  Uiso   1.00
C912   C     0.51800   0.97599   0.53921   0.00000  Uiso   1.00
N913   N     0.50000   0.95240   0.50000   0.00000  Uiso   1.00
N914   N     0.50000   0.71427   0.50000   0.00000  Uiso   1.00
O915   O     0.43892   0.87154   0.50000   0.00000  Uiso   1.00
O916   O     0.56108   0.79513   0.50000   0.00000  Uiso   1.00
O917   O     0.56108   0.87154   0.50000   0.00000  Uiso   1.00
O918   O     0.43892   0.79513   0.50000   0.00000  Uiso   1.00
O919   O     0.50000   0.87155   0.42845   0.00000  Uiso   1.00
O920   O     0.50000   0.79512   0.57155   0.00000  Uiso   1.00
O921   O     0.50000   0.87155   0.57155   0.00000  Uiso   1.00
O922   O     0.50000   0.79512   0.42845   0.00000  Uiso   1.00
Zn923  Zn    0.50000   0.88437   0.50000   0.00000  Uiso   1.00
Zn924  Zn    0.50000   0.78229   0.50000   0.00000  Uiso   1.00
N925   N     0.37578   0.75079   0.51617   0.00000  Uiso   1.00
H926   H     0.36522   0.73782   0.54956   0.00000  Uiso   1.00
H927   H     0.36946   0.72773   0.48749   0.00000  Uiso   1.00
N928   N     0.62419   0.91592   0.48399   0.00000  Uiso   1.00
H929   H     0.63470   0.92899   0.45062   0.00000  Uiso   1.00
H930   H     0.63053   0.93891   0.51273   0.00000  Uiso   1.00
N931   N     0.62481   0.75014   0.48813   0.00000  Uiso   1.00
H932   H     0.63540   0.73591   0.45539   0.00000  Uiso   1.00
H933   H     0.63146   0.72824   0.51789   0.00000  Uiso   1.00
N934   N     0.37521   0.91657   0.51162   0.00000  Uiso   1.00
H935   H     0.36467   0.93089   0.54433   0.00000  Uiso   1.00
H936   H     0.36854   0.93840   0.48179   0.00000  Uiso   1.00
C937   C     0.53721   0.71446   0.58243   0.00000  Uiso   1.00
O938   O     0.52112   0.71336   0.62279   0.00000  Uiso   1.00
O939   O     0.57406   0.73741   0.57761   0.00000  Uiso   1.00
H940   H     0.58410   0.75239   0.60991   0.00000  Uiso   1.00
C941   C     0.46282   0.95222   0.41752   0.00000  Uiso   1.00
O942   O     0.47869   0.95374   0.37704   0.00000  Uiso   1.00
O943   O     0.42625   0.92877   0.42244   0.00000  Uiso   1.00
H944   H     0.41626   0.91377   0.39014   0.00000  Uiso   1.00
C945   C     0.46196   0.71481   0.41817   0.00000  Uiso   1.00
O946   O     0.47797   0.71495   0.37774   0.00000  Uiso   1.00
O947   O     0.42441   0.73640   0.42356   0.00000  Uiso   1.00
H948   H     0.41386   0.75168   0.39162   0.00000  Uiso   1.00
C949   C     0.53798   0.95187   0.58189   0.00000  Uiso   1.00
O950   O     0.52210   0.95208   0.62240   0.00000  Uiso   1.00
O951   O     0.57533   0.92989   0.57646   0.00000  Uiso   1.00
H952   H     0.58584   0.91462   0.60843   0.00000  Uiso   1.00
C953   C     0.75347   0.83338   0.50248   0.00000  Uiso   1.00
C954   C     0.91319   0.83329   0.49751   0.00000  Uiso   1.00
C955   C     0.83317   0.83334   0.40630   0.00000  Uiso   1.00
C956   C     0.83350   0.83332   0.59370   0.00000  Uiso   1.00
C957   C     0.83327   0.83335   0.35514   0.00000  Uiso   1.00
C958   C     0.83340   0.83332   0.64486   0.00000  Uiso   1.00
C959   C     0.68797   0.79229   0.50507   0.00000  Uiso   1.00
C960   C     0.97869   0.87441   0.49493   0.00000  Uiso   1.00
C961   C     0.97897   0.79209   0.49701   0.00000  Uiso   1.00
C962   C     0.68769   0.87461   0.50290   0.00000  Uiso   1.00
C963   C     0.95747   0.83322   0.49522   0.00000  Uiso   1.00
C964   C     0.70919   0.83347   0.50475   0.00000  Uiso   1.00
C965   C     0.85126   0.69053   0.53927   0.00000  Uiso   1.00
C966   C     0.81541   0.97614   0.46072   0.00000  Uiso   1.00
C967   C     0.81532   0.69068   0.46079   0.00000  Uiso   1.00
C968   C     0.85134   0.97599   0.53921   0.00000  Uiso   1.00
N969   N     0.83333   0.95240   0.50000   0.00000  Uiso   1.00
N970   N     0.83333   0.71427   0.50000   0.00000  Uiso   1.00
O971   O     0.77226   0.87154   0.50000   0.00000  Uiso   1.00
O972   O     0.89441   0.79513   0.50000   0.00000  Uiso   1.00
O973   O     0.89441   0.87154   0.50000   0.00000  Uiso   1.00
O974   O     0.77226   0.79513   0.50000   0.00000  Uiso   1.00
O975   O     0.83334   0.87155   0.42845   0.00000  Uiso   1.00
O976   O     0.83333   0.79512   0.57155   0.00000  Uiso   1.00
O977   O     0.83333   0.87155   0.57155   0.00000  Uiso   1.00
O978   O     0.83334   0.79512   0.42845   0.00000  Uiso   1.00
Zn979  Zn    0.83333   0.88437   0.50000   0.00000  Uiso   1.00
Zn980  Zn    0.83333   0.78229   0.50000   0.00000  Uiso   1.00
N981   N     0.70911   0.75079   0.51617   0.00000  Uiso   1.00
H982   H     0.69856   0.73782   0.54956   0.00000  Uiso   1.00
H983   H     0.70279   0.72773   0.48749   0.00000  Uiso   1.00
N984   N     0.95753   0.91592   0.48399   0.00000  Uiso   1.00
H985   H     0.96803   0.92899   0.45062   0.00000  Uiso   1.00
H986   H     0.96386   0.93891   0.51273   0.00000  Uiso   1.00
N987   N     0.95815   0.75014   0.48813   0.00000  Uiso   1.00
H988   H     0.96874   0.73591   0.45539   0.00000  Uiso   1.00
H989   H     0.96480   0.72824   0.51789   0.00000  Uiso   1.00
N990   N     0.70854   0.91657   0.51162   0.00000  Uiso   1.00
H991   H     0.69800   0.93089   0.54433   0.00000  Uiso   1.00
H992   H     0.70187   0.93840   0.48179   0.00000  Uiso   1.00
C993   C     0.87055   0.71446   0.58243   0.00000  Uiso   1.00
O994   O     0.85446   0.71336   0.62279   0.00000  Uiso   1.00
O995   O     0.90739   0.73741   0.57761   0.00000  Uiso   1.00
H996   H     0.91743   0.75239   0.60991   0.00000  Uiso   1.00
C997   C     0.79615   0.95222   0.41752   0.00000  Uiso   1.00
O998   O     0.81203   0.95374   0.37704   0.00000  Uiso   1.00
O999   O     0.75958   0.92877   0.42244   0.00000  Uiso   1.00
H1000  H     0.74959   0.91377   0.39014   0.00000  Uiso   1.00
C1001  C     0.79529   0.71481   0.41817   0.00000  Uiso   1.00
O1002  O     0.81131   0.71495   0.37774   0.00000  Uiso   1.00
O1003  O     0.75775   0.73640   0.42356   0.00000  Uiso   1.00
H1004  H     0.74719   0.75168   0.39162   0.00000  Uiso   1.00
C1005  C     0.87131   0.95187   0.58189   0.00000  Uiso   1.00
O1006  O     0.85543   0.95208   0.62240   0.00000  Uiso   1.00
O1007  O     0.90866   0.92989   0.57646   0.00000  Uiso   1.00
H1008  H     0.91917   0.91462   0.60843   0.00000  Uiso   1.00
C1009  C     0.08681   0.16672   0.83581   0.00000  Uiso   1.00
C1010  C     0.24652   0.16662   0.83085   0.00000  Uiso   1.00
C1011  C     0.16650   0.16668   0.73963   0.00000  Uiso   1.00
C1012  C     0.16683   0.16666   0.92703   0.00000  Uiso   1.00
C1013  C     0.16661   0.16668   0.68848   0.00000  Uiso   1.00
C1014  C     0.16673   0.16665   0.97819   0.00000  Uiso   1.00
C1015  C     0.02130   0.12562   0.83841   0.00000  Uiso   1.00
C1016  C     0.31202   0.20774   0.82826   0.00000  Uiso   1.00
C1017  C     0.31231   0.12542   0.83034   0.00000  Uiso   1.00
C1018  C     0.02103   0.20794   0.83623   0.00000  Uiso   1.00
C1019  C     0.29081   0.16656   0.82855   0.00000  Uiso   1.00
C1020  C     0.04252   0.16680   0.83808   0.00000  Uiso   1.00
C1021  C     0.18459   0.02386   0.87261   0.00000  Uiso   1.00
C1022  C     0.14875   0.30948   0.79405   0.00000  Uiso   1.00
C1023  C     0.14866   0.02401   0.79413   0.00000  Uiso   1.00
C1024  C     0.18467   0.30932   0.87255   0.00000  Uiso   1.00
N1025  N     0.16667   0.28573   0.83333   0.00000  Uiso   1.00
N1026  N     0.16667   0.04760   0.83333   0.00000  Uiso   1.00
O1027  O     0.10559   0.20487   0.83333   0.00000  Uiso   1.00
O1028  O     0.22774   0.12846   0.83334   0.00000  Uiso   1.00
O1029  O     0.22774   0.20487   0.83334   0.00000  Uiso   1.00
O1030  O     0.10559   0.12846   0.83333   0.00000  Uiso   1.00
O1031  O     0.16667   0.20488   0.76178   0.00000  Uiso   1.00
O1032  O     0.16666   0.12845   0.90489   0.00000  Uiso   1.00
O1033  O     0.16666   0.20488   0.90489   0.00000  Uiso   1.00
O1034  O     0.16667   0.12845   0.76178   0.00000  Uiso   1.00
Zn1035 Zn    0.16667   0.21771   0.83333   0.00000  Uiso   1.00
Zn1036 Zn    0.16667   0.11563   0.83333   0.00000  Uiso   1.00
N1037  N     0.04245   0.08413   0.84951   0.00000  Uiso   1.00
H1038  H     0.03189   0.07115   0.88289   0.00000  Uiso   1.00
H1039  H     0.03612   0.06106   0.82083   0.00000  Uiso   1.00
N1040  N     0.29086   0.24926   0.81732   0.00000  Uiso   1.00
H1041  H     0.30136   0.26232   0.78396   0.00000  Uiso   1.00
H1042  H     0.29719   0.27225   0.84607   0.00000  Uiso   1.00
N1043  N     0.29148   0.08348   0.82146   0.00000  Uiso   1.00
H1044  H     0.30207   0.06925   0.78872   0.00000  Uiso   1.00
H1045  H     0.29813   0.06157   0.85123   0.00000  Uiso   1.00
N1046  N     0.04187   0.24990   0.84495   0.00000  Uiso   1.00
H1047  H     0.03133   0.26423   0.87766   0.00000  Uiso   1.00
H1048  H     0.03521   0.27173   0.81512   0.00000  Uiso   1.00
C1049  C     0.20388   0.04779   0.91577   0.00000  Uiso   1.00
O1050  O     0.18779   0.04669   0.95613   0.00000  Uiso   1.00
O1051  O     0.24072   0.07075   0.91095   0.00000  Uiso   1.00
H1052  H     0.25077   0.08572   0.94324   0.00000  Uiso   1.00
C1053  C     0.12949   0.28555   0.75085   0.00000  Uiso   1.00
O1054  O     0.14536   0.28707   0.71038   0.00000  Uiso   1.00
O1055  O     0.09292   0.26211   0.75578   0.00000  Uiso   1.00
H1056  H     0.08292   0.24711   0.72347   0.00000  Uiso   1.00
C1057  C     0.12863   0.04815   0.75150   0.00000  Uiso   1.00
O1058  O     0.14464   0.04829   0.71107   0.00000  Uiso   1.00
O1059  O     0.09108   0.06973   0.75689   0.00000  Uiso   1.00
H1060  H     0.08053   0.08502   0.72495   0.00000  Uiso   1.00
C1061  C     0.20465   0.28520   0.91523   0.00000  Uiso   1.00
O1062  O     0.18877   0.28541   0.95573   0.00000  Uiso   1.00
O1063  O     0.24200   0.26323   0.90979   0.00000  Uiso   1.00
H1064  H     0.25250   0.24795   0.94176   0.00000  Uiso   1.00
C1065  C     0.42014   0.16672   0.83581   0.00000  Uiso   1.00
C1066  C     0.57986   0.16662   0.83085   0.00000  Uiso   1.00
C1067  C     0.49983   0.16668   0.73963   0.00000  Uiso   1.00
C1068  C     0.50017   0.16666   0.92703   0.00000  Uiso   1.00
C1069  C     0.49994   0.16668   0.68848   0.00000  Uiso   1.00
C1070  C     0.50006   0.16665   0.97819   0.00000  Uiso   1.00
C1071  C     0.35464   0.12562   0.83841   0.00000  Uiso   1.00
C1072  C     0.64536   0.20774   0.82826   0.00000  Uiso   1.00
C1073  C     0.64564   0.12542   0.83034   0.00000  Uiso   1.00
C1074  C     0.35436   0.20794   0.83623   0.00000  Uiso   1.00
C1075  C     0.62414   0.16656   0.82855   0.00000  Uiso   1.00
C1076  C     0.37586   0.16680   0.83808   0.00000  Uiso   1.00
C1077  C     0.51793   0.02386   0.87261   0.00000  Uiso   1.00
C1078  C     0.48208   0.30948   0.79405   0.00000  Uiso   1.00
C1079  C     0.48199   0.02401   0.79413   0.00000  Uiso   1.00
C1080  C     0.51800   0.30932   0.87255   0.00000  Uiso   1.00
N1081  N     0.50000   0.28573   0.83333   0.00000  Uiso   1.00
N1082  N     0.50000   0.04760   0.83333   0.00000  Uiso   1.00
O1083  O     0.43892   0.20487   0.83333   0.00000  Uiso   1.00
O1084  O     0.56108   0.12846   0.83334   0.00000  Uiso   1.00
O1085  O     0.56108   0.20487   0.83334   0.00000  Uiso   1.00
O1086  O     0.43892   0.12846   0.83333   0.00000  Uiso   1.00
O1087  O     0.50000   0.20488   0.76178   0.00000  Uiso   1.00
O1088  O     0.50000   0.12845   0.90489   0.00000  Uiso   1.00
O1089  O     0.50000   0.20488   0.90489   0.00000  Uiso   1.00
O1090  O     0.50000   0.12845   0.76178   0.00000  Uiso   1.00
Zn1091 Zn    0.50000   0.21771   0.83333   0.00000  Uiso   1.00
Zn1092 Zn    0.50000   0.11563   0.83333   0.00000  Uiso   1.00
N1093  N     0.37578   0.08413   0.84951   0.00000  Uiso   1.00
H1094  H     0.36522   0.07115   0.88289   0.00000  Uiso   1.00
H1095  H     0.36946   0.06106   0.82083   0.00000  Uiso   1.00
N1096  N     0.62419   0.24926   0.81732   0.00000  Uiso   1.00
H1097  H     0.63470   0.26232   0.78396   0.00000  Uiso   1.00
H1098  H     0.63053   0.27225   0.84607   0.00000  Uiso   1.00
N1099  N     0.62481   0.08348   0.82146   0.00000  Uiso   1.00
H1100  H     0.63540   0.06925   0.78872   0.00000  Uiso   1.00
H1101  H     0.63146   0.06157   0.85123   0.00000  Uiso   1.00
N1102  N     0.37521   0.24990   0.84495   0.00000  Uiso   1.00
H1103  H     0.36467   0.26423   0.87766   0.00000  Uiso   1.00
H1104  H     0.36854   0.27173   0.81512   0.00000  Uiso   1.00
C1105  C     0.53721   0.04779   0.91577   0.00000  Uiso   1.00
O1106  O     0.52112   0.04669   0.95613   0.00000  Uiso   1.00
O1107  O     0.57406   0.07075   0.91095   0.00000  Uiso   1.00
H1108  H     0.58410   0.08572   0.94324   0.00000  Uiso   1.00
C1109  C     0.46282   0.28555   0.75085   0.00000  Uiso   1.00
O1110  O     0.47869   0.28707   0.71038   0.00000  Uiso   1.00
O1111  O     0.42625   0.26211   0.75578   0.00000  Uiso   1.00
H1112  H     0.41626   0.24711   0.72347   0.00000  Uiso   1.00
C1113  C     0.46196   0.04815   0.75150   0.00000  Uiso   1.00
O1114  O     0.47797   0.04829   0.71107   0.00000  Uiso   1.00
O1115  O     0.42441   0.06973   0.75689   0.00000  Uiso   1.00
H1116  H     0.41386   0.08502   0.72495   0.00000  Uiso   1.00
C1117  C     0.53798   0.28520   0.91523   0.00000  Uiso   1.00
O1118  O     0.52210   0.28541   0.95573   0.00000  Uiso   1.00
O1119  O     0.57533   0.26323   0.90979   0.00000  Uiso   1.00
H1120  H     0.58584   0.24795   0.94176   0.00000  Uiso   1.00
C1121  C     0.75347   0.16672   0.83581   0.00000  Uiso   1.00
C1122  C     0.91319   0.16662   0.83085   0.00000  Uiso   1.00
C1123  C     0.83317   0.16668   0.73963   0.00000  Uiso   1.00
C1124  C     0.83350   0.16666   0.92703   0.00000  Uiso   1.00
C1125  C     0.83327   0.16668   0.68848   0.00000  Uiso   1.00
C1126  C     0.83340   0.16665   0.97819   0.00000  Uiso   1.00
C1127  C     0.68797   0.12562   0.83841   0.00000  Uiso   1.00
C1128  C     0.97869   0.20774   0.82826   0.00000  Uiso   1.00
C1129  C     0.97897   0.12542   0.83034   0.00000  Uiso   1.00
C1130  C     0.68769   0.20794   0.83623   0.00000  Uiso   1.00
C1131  C     0.95747   0.16656   0.82855   0.00000  Uiso   1.00
C1132  C     0.70919   0.16680   0.83808   0.00000  Uiso   1.00
C1133  C     0.85126   0.02386   0.87261   0.00000  Uiso   1.00
C1134  C     0.81541   0.30948   0.79405   0.00000  Uiso   1.00
C1135  C     0.81532   0.02401   0.79413   0.00000  Uiso   1.00
C1136  C     0.85134   0.30932   0.87255   0.00000  Uiso   1.00
N1137  N     0.83333   0.28573   0.83333   0.00000  Uiso   1.00
N1138  N     0.83333   0.04760   0.83333   0.00000  Uiso   1.00
O1139  O     0.77226   0.20487   0.83333   0.00000  Uiso   1.00
O1140  O     0.89441   0.12846   0.83334   0.00000  Uiso   1.00
O1141  O     0.89441   0.20487   0.83334   0.00000  Uiso   1.00
O1142  O     0.77226   0.12846   0.83333   0.00000  Uiso   1.00
O1143  O     0.83334   0.20488   0.76178   0.00000  Uiso   1.00
O1144  O     0.83333   0.12845   0.90489   0.00000  Uiso   1.00
O1145  O     0.83333   0.20488   0.90489   0.00000  Uiso   1.00
O1146  O     0.83334   0.12845   0.76178   0.00000  Uiso   1.00
Zn1147 Zn    0.83333   0.21771   0.83333   0.00000  Uiso   1.00
Zn1148 Zn    0.83333   0.11563   0.83333   0.00000  Uiso   1.00
N1149  N     0.70911   0.08413   0.84951   0.00000  Uiso   1.00
H1150  H     0.69856   0.07115   0.88289   0.00000  Uiso   1.00
H1151  H     0.70279   0.06106   0.82083   0.00000  Uiso   1.00
N1152  N     0.95753   0.24926   0.81732   0.00000  Uiso   1.00
H1153  H     0.96803   0.26232   0.78396   0.00000  Uiso   1.00
H1154  H     0.96386   0.27225   0.84607   0.00000  Uiso   1.00
N1155  N     0.95815   0.08348   0.82146   0.00000  Uiso   1.00
H1156  H     0.96874   0.06925   0.78872   0.00000  Uiso   1.00
H1157  H     0.96480   0.06157   0.85123   0.00000  Uiso   1.00
N1158  N     0.70854   0.24990   0.84495   0.00000  Uiso   1.00
H1159  H     0.69800   0.26423   0.87766   0.00000  Uiso   1.00
H1160  H     0.70187   0.27173   0.81512   0.00000  Uiso   1.00
C1161  C     0.87055   0.04779   0.91577   0.00000  Uiso   1.00
O1162  O     0.85446   0.04669   0.95613   0.00000  Uiso   1.00
O1163  O     0.90739   0.07075   0.91095   0.00000  Uiso   1.00
H1164  H     0.91743   0.08572   0.94324   0.00000  Uiso   1.00
C1165  C     0.79615   0.28555   0.75085   0.00000  Uiso   1.00
O1166  O     0.81203   0.28707   0.71038   0.00000  Uiso   1.00
O1167  O     0.75958   0.26211   0.75578   0.00000  Uiso   1.00
H1168  H     0.74959   0.24711   0.72347   0.00000  Uiso   1.00
C1169  C     0.79529   0.04815   0.75150   0.00000  Uiso   1.00
O1170  O     0.81131   0.04829   0.71107   0.00000  Uiso   1.00
O1171  O     0.75775   0.06973   0.75689   0.00000  Uiso   1.00
H1172  H     0.74719   0.08502   0.72495   0.00000  Uiso   1.00
C1173  C     0.87131   0.28520   0.91523   0.00000  Uiso   1.00
O1174  O     0.85543   0.28541   0.95573   0.00000  Uiso   1.00
O1175  O     0.90866   0.26323   0.90979   0.00000  Uiso   1.00
H1176  H     0.91917   0.24795   0.94176   0.00000  Uiso   1.00
C1177  C     0.08681   0.50005   0.83581   0.00000  Uiso   1.00
C1178  C     0.24652   0.49996   0.83085   0.00000  Uiso   1.00
C1179  C     0.16650   0.50001   0.73963   0.00000  Uiso   1.00
C1180  C     0.16683   0.49999   0.92703   0.00000  Uiso   1.00
C1181  C     0.16661   0.50001   0.68848   0.00000  Uiso   1.00
C1182  C     0.16673   0.49999   0.97819   0.00000  Uiso   1.00
C1183  C     0.02130   0.45895   0.83841   0.00000  Uiso   1.00
C1184  C     0.31202   0.54108   0.82826   0.00000  Uiso   1.00
C1185  C     0.31231   0.45876   0.83034   0.00000  Uiso   1.00
C1186  C     0.02103   0.54127   0.83623   0.00000  Uiso   1.00
C1187  C     0.29081   0.49989   0.82855   0.00000  Uiso   1.00
C1188  C     0.04252   0.50014   0.83808   0.00000  Uiso   1.00
C1189  C     0.18459   0.35719   0.87261   0.00000  Uiso   1.00
C1190  C     0.14875   0.64281   0.79405   0.00000  Uiso   1.00
C1191  C     0.14866   0.35735   0.79413   0.00000  Uiso   1.00
C1192  C     0.18467   0.64266   0.87255   0.00000  Uiso   1.00
N1193  N     0.16667   0.61907   0.83333   0.00000  Uiso   1.00
N1194  N     0.16667   0.38093   0.83333   0.00000  Uiso   1.00
O1195  O     0.10559   0.53821   0.83333   0.00000  Uiso   1.00
O1196  O     0.22774   0.46179   0.83334   0.00000  Uiso   1.00
O1197  O     0.22774   0.53821   0.83334   0.00000  Uiso   1.00
O1198  O     0.10559   0.46179   0.83333   0.00000  Uiso   1.00
O1199  O     0.16667   0.53821   0.76178   0.00000  Uiso   1.00
O1200  O     0.16666   0.46179   0.90489   0.00000  Uiso   1.00
O1201  O     0.16666   0.53821   0.90489   0.00000  Uiso   1.00
O1202  O     0.16667   0.46179   0.76178   0.00000  Uiso   1.00
Zn1203 Zn    0.16667   0.55104   0.83333   0.00000  Uiso   1.00
Zn1204 Zn    0.16667   0.44896   0.83333   0.00000  Uiso   1.00
N1205  N     0.04245   0.41746   0.84951   0.00000  Uiso   1.00
H1206  H     0.03189   0.40449   0.88289   0.00000  Uiso   1.00
H1207  H     0.03612   0.39440   0.82083   0.00000  Uiso   1.00
N1208  N     0.29086   0.58259   0.81732   0.00000  Uiso   1.00
H1209  H     0.30136   0.59566   0.78396   0.00000  Uiso   1.00
H1210  H     0.29719   0.60558   0.84607   0.00000  Uiso   1.00
N1211  N     0.29148   0.41681   0.82146   0.00000  Uiso   1.00
H1212  H     0.30207   0.40258   0.78872   0.00000  Uiso   1.00
H1213  H     0.29813   0.39491   0.85123   0.00000  Uiso   1.00
N1214  N     0.04187   0.58323   0.84495   0.00000  Uiso   1.00
H1215  H     0.03133   0.59756   0.87766   0.00000  Uiso   1.00
H1216  H     0.03521   0.60506   0.81512   0.00000  Uiso   1.00
C1217  C     0.20388   0.38112   0.91577   0.00000  Uiso   1.00
O1218  O     0.18779   0.38003   0.95613   0.00000  Uiso   1.00
O1219  O     0.24072   0.40408   0.91095   0.00000  Uiso   1.00
H1220  H     0.25077   0.41905   0.94324   0.00000  Uiso   1.00
C1221  C     0.12949   0.61889   0.75085   0.00000  Uiso   1.00
O1222  O     0.14536   0.62041   0.71038   0.00000  Uiso   1.00
O1223  O     0.09292   0.59544   0.75578   0.00000  Uiso   1.00
H1224  H     0.08292   0.58044   0.72347   0.00000  Uiso   1.00
C1225  C     0.12863   0.38148   0.75150   0.00000  Uiso   1.00
O1226  O     0.14464   0.38162   0.71107   0.00000  Uiso   1.00
O1227  O     0.09108   0.40306   0.75689   0.00000  Uiso   1.00
H1228  H     0.08053   0.41835   0.72495   0.00000  Uiso   1.00
C1229  C     0.20465   0.61854   0.91523   0.00000  Uiso   1.00
O1230  O     0.18877   0.61874   0.95573   0.00000  Uiso   1.00
O1231  O     0.24200   0.59656   0.90979   0.00000  Uiso   1.00
H1232  H     0.25250   0.58129   0.94176   0.00000  Uiso   1.00
C1233  C     0.42014   0.50005   0.83581   0.00000  Uiso   1.00
C1234  C     0.57986   0.49996   0.83085   0.00000  Uiso   1.00
C1235  C     0.49983   0.50001   0.73963   0.00000  Uiso   1.00
C1236  C     0.50017   0.49999   0.92703   0.00000  Uiso   1.00
C1237  C     0.49994   0.50001   0.68848   0.00000  Uiso   1.00
C1238  C     0.50006   0.49999   0.97819   0.00000  Uiso   1.00
C1239  C     0.35464   0.45895   0.83841   0.00000  Uiso   1.00
C1240  C     0.64536   0.54108   0.82826   0.00000  Uiso   1.00
C1241  C     0.64564   0.45876   0.83034   0.00000  Uiso   1.00
C1242  C     0.35436   0.54127   0.83623   0.00000  Uiso   1.00
C1243  C     0.62414   0.49989   0.82855   0.00000  Uiso   1.00
C1244  C     0.37586   0.50014   0.83808   0.00000  Uiso   1.00
C1245  C     0.51793   0.35719   0.87261   0.00000  Uiso   1.00
C1246  C     0.48208   0.64281   0.79405   0.00000  Uiso   1.00
C1247  C     0.48199   0.35735   0.79413   0.00000  Uiso   1.00
C1248  C     0.51800   0.64266   0.87255   0.00000  Uiso   1.00
N1249  N     0.50000   0.61907   0.83333   0.00000  Uiso   1.00
N1250  N     0.50000   0.38093   0.83333   0.00000  Uiso   1.00
O1251  O     0.43892   0.53821   0.83333   0.00000  Uiso   1.00
O1252  O     0.56108   0.46179   0.83334   0.00000  Uiso   1.00
O1253  O     0.56108   0.53821   0.83334   0.00000  Uiso   1.00
O1254  O     0.43892   0.46179   0.83333   0.00000  Uiso   1.00
O1255  O     0.50000   0.53821   0.76178   0.00000  Uiso   1.00
O1256  O     0.50000   0.46179   0.90489   0.00000  Uiso   1.00
O1257  O     0.50000   0.53821   0.90489   0.00000  Uiso   1.00
O1258  O     0.50000   0.46179   0.76178   0.00000  Uiso   1.00
Zn1259 Zn    0.50000   0.55104   0.83333   0.00000  Uiso   1.00
Zn1260 Zn    0.50000   0.44896   0.83333   0.00000  Uiso   1.00
N1261  N     0.37578   0.41746   0.84951   0.00000  Uiso   1.00
H1262  H     0.36522   0.40449   0.88289   0.00000  Uiso   1.00
H1263  H     0.36946   0.39440   0.82083   0.00000  Uiso   1.00
N1264  N     0.62419   0.58259   0.81732   0.00000  Uiso   1.00
H1265  H     0.63470   0.59566   0.78396   0.00000  Uiso   1.00
H1266  H     0.63053   0.60558   0.84607   0.00000  Uiso   1.00
N1267  N     0.62481   0.41681   0.82146   0.00000  Uiso   1.00
H1268  H     0.63540   0.40258   0.78872   0.00000  Uiso   1.00
H1269  H     0.63146   0.39491   0.85123   0.00000  Uiso   1.00
N1270  N     0.37521   0.58323   0.84495   0.00000  Uiso   1.00
H1271  H     0.36467   0.59756   0.87766   0.00000  Uiso   1.00
H1272  H     0.36854   0.60506   0.81512   0.00000  Uiso   1.00
C1273  C     0.53721   0.38112   0.91577   0.00000  Uiso   1.00
O1274  O     0.52112   0.38003   0.95613   0.00000  Uiso   1.00
O1275  O     0.57406   0.40408   0.91095   0.00000  Uiso   1.00
H1276  H     0.58410   0.41905   0.94324   0.00000  Uiso   1.00
C1277  C     0.46282   0.61889   0.75085   0.00000  Uiso   1.00
O1278  O     0.47869   0.62041   0.71038   0.00000  Uiso   1.00
O1279  O     0.42625   0.59544   0.75578   0.00000  Uiso   1.00
H1280  H     0.41626   0.58044   0.72347   0.00000  Uiso   1.00
C1281  C     0.46196   0.38148   0.75150   0.00000  Uiso   1.00
O1282  O     0.47797   0.38162   0.71107   0.00000  Uiso   1.00
O1283  O     0.42441   0.40306   0.75689   0.00000  Uiso   1.00
H1284  H     0.41386   0.41835   0.72495   0.00000  Uiso   1.00
C1285  C     0.53798   0.61854   0.91523   0.00000  Uiso   1.00
O1286  O     0.52210   0.61874   0.95573   0.00000  Uiso   1.00
O1287  O     0.57533   0.59656   0.90979   0.00000  Uiso   1.00
H1288  H     0.58584   0.58129   0.94176   0.00000  Uiso   1.00
C1289  C     0.75347   0.50005   0.83581   0.00000  Uiso   1.00
C1290  C     0.91319   0.49996   0.83085   0.00000  Uiso   1.00
C1291  C     0.83317   0.50001   0.73963   0.00000  Uiso   1.00
C1292  C     0.83350   0.49999   0.92703   0.00000  Uiso   1.00
C1293  C     0.83327   0.50001   0.68848   0.00000  Uiso   1.00
C1294  C     0.83340   0.49999   0.97819   0.00000  Uiso   1.00
C1295  C     0.68797   0.45895   0.83841   0.00000  Uiso   1.00
C1296  C     0.97869   0.54108   0.82826   0.00000  Uiso   1.00
C1297  C     0.97897   0.45876   0.83034   0.00000  Uiso   1.00
C1298  C     0.68769   0.54127   0.83623   0.00000  Uiso   1.00
C1299  C     0.95747   0.49989   0.82855   0.00000  Uiso   1.00
C1300  C     0.70919   0.50014   0.83808   0.00000  Uiso   1.00
C1301  C     0.85126   0.35719   0.87261   0.00000  Uiso   1.00
C1302  C     0.81541   0.64281   0.79405   0.00000  Uiso   1.00
C1303  C     0.81532   0.35735   0.79413   0.00000  Uiso   1.00
C1304  C     0.85134   0.64266   0.87255   0.00000  Uiso   1.00
N1305  N     0.83333   0.61907   0.83333   0.00000  Uiso   1.00
N1306  N     0.83333   0.38093   0.83333   0.00000  Uiso   1.00
O1307  O     0.77226   0.53821   0.83333   0.00000  Uiso   1.00
O1308  O     0.89441   0.46179   0.83334   0.00000  Uiso   1.00
O1309  O     0.89441   0.53821   0.83334   0.00000  Uiso   1.00
O1310  O     0.77226   0.46179   0.83333   0.00000  Uiso   1.00
O1311  O     0.83334   0.53821   0.76178   0.00000  Uiso   1.00
O1312  O     0.83333   0.46179   0.90489   0.00000  Uiso   1.00
O1313  O     0.83333   0.53821   0.90489   0.00000  Uiso   1.00
O1314  O     0.83334   0.46179   0.76178   0.00000  Uiso   1.00
Zn1315 Zn    0.83333   0.55104   0.83333   0.00000  Uiso   1.00
Zn1316 Zn    0.83333   0.44896   0.83333   0.00000  Uiso   1.00
N1317  N     0.70911   0.41746   0.84951   0.00000  Uiso   1.00
H1318  H     0.69856   0.40449   0.88289   0.00000  Uiso   1.00
H1319  H     0.70279   0.39440   0.82083   0.00000  Uiso   1.00
N1320  N     0.95753   0.58259   0.81732   0.00000  Uiso   1.00
H1321  H     0.96803   0.59566   0.78396   0.00000  Uiso   1.00
H1322  H     0.96386   0.60558   0.84607   0.00000  Uiso   1.00
N1323  N     0.95815   0.41681   0.82146   0.00000  Uiso   1.00
H1324  H     0.96874   0.40258   0.78872   0.00000  Uiso   1.00
H1325  H     0.96480   0.39491   0.85123   0.00000  Uiso   1.00
N1326  N     0.70854   0.58323   0.84495   0.00000  Uiso   1.00
H1327  H     0.69800   0.59756   0.87766   0.00000  Uiso   1.00
H1328  H     0.70187   0.60506   0.81512   0.00000  Uiso   1.00
C1329  C     0.87055   0.38112   0.91577   0.00000  Uiso   1.00
O1330  O     0.85446   0.38003   0.95613   0.00000  Uiso   1.00
O1331  O     0.90739   0.40408   0.91095   0.00000  Uiso   1.00
H1332  H     0.91743   0.41905   0.94324   0.00000  Uiso   1.00
C1333  C     0.79615   0.61889   0.75085   0.00000  Uiso   1.00
O1334  O     0.81203   0.62041   0.71038   0.00000  Uiso   1.00
O1335  O     0.75958   0.59544   0.75578   0.00000  Uiso   1.00
H1336  H     0.74959   0.58044   0.72347   0.00000  Uiso   1.00
C1337  C     0.79529   0.38148   0.75150   0.00000  Uiso   1.00
O1338  O     0.81131   0.38162   0.71107   0.00000  Uiso   1.00
O1339  O     0.75775   0.40306   0.75689   0.00000  Uiso   1.00
H1340  H     0.74719   0.41835   0.72495   0.00000  Uiso   1.00
C1341  C     0.87131   0.61854   0.91523   0.00000  Uiso   1.00
O1342  O     0.85543   0.61874   0.95573   0.00000  Uiso   1.00
O1343  O     0.90866   0.59656   0.90979   0.00000  Uiso   1.00
H1344  H     0.91917   0.58129   0.94176   0.00000  Uiso   1.00
C1345  C     0.08681   0.83338   0.83581   0.00000  Uiso   1.00
C1346  C     0.24652   0.83329   0.83085   0.00000  Uiso   1.00
C1347  C     0.16650   0.83334   0.73963   0.00000  Uiso   1.00
C1348  C     0.16683   0.83332   0.92703   0.00000  Uiso   1.00
C1349  C     0.16661   0.83335   0.68848   0.00000  Uiso   1.00
C1350  C     0.16673   0.83332   0.97819   0.00000  Uiso   1.00
C1351  C     0.02130   0.79229   0.83841   0.00000  Uiso   1.00
C1352  C     0.31202   0.87441   0.82826   0.00000  Uiso   1.00
C1353  C     0.31231   0.79209   0.83034   0.00000  Uiso   1.00
C1354  C     0.02103   0.87461   0.83623   0.00000  Uiso   1.00
C1355  C     0.29081   0.83322   0.82855   0.00000  Uiso   1.00
C1356  C     0.04252   0.83347   0.83808   0.00000  Uiso   1.00
C1357  C     0.18459   0.69053   0.87261   0.00000  Uiso   1.00
C1358  C     0.14875   0.97614   0.79405   0.00000  Uiso   1.00
C1359  C     0.14866   0.69068   0.79413   0.00000  Uiso   1.00
C1360  C     0.18467   0.97599   0.87255   0.00000  Uiso   1.00
N1361  N     0.16667   0.95240   0.83333   0.00000  Uiso   1.00
N1362  N     0.16667   0.71427   0.83333   0.00000  Uiso   1.00
O1363  O     0.10559   0.87154   0.83333   0.00000  Uiso   1.00
O1364  O     0.22774   0.79513   0.83334   0.00000  Uiso   1.00
O1365  O     0.22774   0.87154   0.83334   0.00000  Uiso   1.00
O1366  O     0.10559   0.79513   0.83333   0.00000  Uiso   1.00
O1367  O     0.16667   0.87155   0.76178   0.00000  Uiso   1.00
O1368  O     0.16666   0.79512   0.90489   0.00000  Uiso   1.00
O1369  O     0.16666   0.87155   0.90489   0.00000  Uiso   1.00
O1370  O     0.16667   0.79512   0.76178   0.00000  Uiso   1.00
Zn1371 Zn    0.16667   0.88437   0.83333   0.00000  Uiso   1.00
Zn1372 Zn    0.16667   0.78229   0.83333   0.00000  Uiso   1.00
N1373  N     0.04245   0.75079   0.84951   0.00000  Uiso   1.00
H1374  H     0.03189   0.73782   0.88289   0.00000  Uiso   1.00
H1375  H     0.03612   0.72773   0.82083   0.00000  Uiso   1.00
N1376  N     0.29086   0.91592   0.81732   0.00000  Uiso   1.00
H1377  H     0.30136   0.92899   0.78396   0.00000  Uiso   1.00
H1378  H     0.29719   0.93891   0.84607   0.00000  Uiso   1.00
N1379  N     0.29148   0.75014   0.82146   0.00000  Uiso   1.00
H1380  H     0.30207   0.73591   0.78872   0.00000  Uiso   1.00
H1381  H     0.29813   0.72824   0.85123   0.00000  Uiso   1.00
N1382  N     0.04187   0.91657   0.84495   0.00000  Uiso   1.00
H1383  H     0.03133   0.93089   0.87766   0.00000  Uiso   1.00
H1384  H     0.03521   0.93840   0.81512   0.00000  Uiso   1.00
C1385  C     0.20388   0.71446   0.91577   0.00000  Uiso   1.00
O1386  O     0.18779   0.71336   0.95613   0.00000  Uiso   1.00
O1387  O     0.24072   0.73741   0.91095   0.00000  Uiso   1.00
H1388  H     0.25077   0.75239   0.94324   0.00000  Uiso   1.00
C1389  C     0.12949   0.95222   0.75085   0.00000  Uiso   1.00
O1390  O     0.14536   0.95374   0.71038   0.00000  Uiso   1.00
O1391  O     0.09292   0.92877   0.75578   0.00000  Uiso   1.00
H1392  H     0.08292   0.91377   0.72347   0.00000  Uiso   1.00
C1393  C     0.12863   0.71481   0.75150   0.00000  Uiso   1.00
O1394  O     0.14464   0.71495   0.71107   0.00000  Uiso   1.00
O1395  O     0.09108   0.73640   0.75689   0.00000  Uiso   1.00
H1396  H     0.08053   0.75168   0.72495   0.00000  Uiso   1.00
C1397  C     0.20465   0.95187   0.91523   0.00000  Uiso   1.00
O1398  O     0.18877   0.95208   0.95573   0.00000  Uiso   1.00
O1399  O     0.24200   0.92989   0.90979   0.00000  Uiso   1.00
H1400  H     0.25250   0.91462   0.94176   0.00000  Uiso   1.00
C1401  C     0.42014   0.83338   0.83581   0.00000  Uiso   1.00
C1402  C     0.57986   0.83329   0.83085   0.00000  Uiso   1.00
C1403  C     0.49983   0.83334   0.73963   0.00000  Uiso   1.00
C1404  C     0.50017   0.83332   0.92703   0.00000  Uiso   1.00
C1405  C     0.49994   0.83335   0.68848   0.00000  Uiso   1.00
C1406  C     0.50006   0.83332   0.97819   0.00000  Uiso   1.00
C1407  C     0.35464   0.79229   0.83841   0.00000  Uiso   1.00
C1408  C     0.64536   0.87441   0.82826   0.00000  Uiso   1.00
C1409  C     0.64564   0.79209   0.83034   0.00000  Uiso   1.00
C1410  C     0.35436   0.87461   0.83623   0.00000  Uiso   1.00
C1411  C     0.62414   0.83322   0.82855   0.00000  Uiso   1.00
C1412  C     0.37586   0.83347   0.83808   0.00000  Uiso   1.00
C1413  C     0.51793   0.69053   0.87261   0.00000  Uiso   1.00
C1414  C     0.48208   0.97614   0.79405   0.00000  Uiso   1.00
C1415  C     0.48199   0.69068   0.79413   0.00000  Uiso   1.00
C1416  C     0.51800   0.97599   0.87255   0.00000  Uiso   1.00
N1417  N     0.50000   0.95240   0.83333   0.00000  Uiso   1.00
N1418  N     0.50000   0.71427   0.83333   0.00000  Uiso   1.00
O1419  O     0.43892   0.87154   0.83333   0.00000  Uiso   1.00
O1420  O     0.56108   0.79513   0.83334   0.00000  Uiso   1.00
O1421  O     0.56108   0.87154   0.83334   0.00000  Uiso   1.00
O1422  O     0.43892   0.79513   0.83333   0.00000  Uiso   1.00
O1423  O     0.50000   0.87155   0.76178   0.00000  Uiso   1.00
O1424  O     0.50000   0.79512   0.90489   0.00000  Uiso   1.00
O1425  O     0.50000   0.87155   0.90489   0.00000  Uiso   1.00
O1426  O     0.50000   0.79512   0.76178   0.00000  Uiso   1.00
Zn1427 Zn    0.50000   0.88437   0.83333   0.00000  Uiso   1.00
Zn1428 Zn    0.50000   0.78229   0.83333   0.00000  Uiso   1.00
N1429  N     0.37578   0.75079   0.84951   0.00000  Uiso   1.00
H1430  H     0.36522   0.73782   0.88289   0.00000  Uiso   1.00
H1431  H     0.36946   0.72773   0.82083   0.00000  Uiso   1.00
N1432  N     0.62419   0.91592   0.81732   0.00000  Uiso   1.00
H1433  H     0.63470   0.92899   0.78396   0.00000  Uiso   1.00
H1434  H     0.63053   0.93891   0.84607   0.00000  Uiso   1.00
N1435  N     0.62481   0.75014   0.82146   0.00000  Uiso   1.00
H1436  H     0.63540   0.73591   0.78872   0.00000  Uiso   1.00
H1437  H     0.63146   0.72824   0.85123   0.00000  Uiso   1.00
N1438  N     0.37521   0.91657   0.84495   0.00000  Uiso   1.00
H1439  H     0.36467   0.93089   0.87766   0.00000  Uiso   1.00
H1440  H     0.36854   0.93840   0.81512   0.00000  Uiso   1.00
C1441  C     0.53721   0.71446   0.91577   0.00000  Uiso   1.00
O1442  O     0.52112   0.71336   0.95613   0.00000  Uiso   1.00
O1443  O     0.57406   0.73741   0.91095   0.00000  Uiso   1.00
H1444  H     0.58410   0.75239   0.94324   0.00000  Uiso   1.00
C1445  C     0.46282   0.95222   0.75085   0.00000  Uiso   1.00
O1446  O     0.47869   0.95374   0.71038   0.00000  Uiso   1.00
O1447  O     0.42625   0.92877   0.75578   0.00000  Uiso   1.00
H1448  H     0.41626   0.91377   0.72347   0.00000  Uiso   1.00
C1449  C     0.46196   0.71481   0.75150   0.00000  Uiso   1.00
O1450  O     0.47797   0.71495   0.71107   0.00000  Uiso   1.00
O1451  O     0.42441   0.73640   0.75689   0.00000  Uiso   1.00
H1452  H     0.41386   0.75168   0.72495   0.00000  Uiso   1.00
C1453  C     0.53798   0.95187   0.91523   0.00000  Uiso   1.00
O1454  O     0.52210   0.95208   0.95573   0.00000  Uiso   1.00
O1455  O     0.57533   0.92989   0.90979   0.00000  Uiso   1.00
H1456  H     0.58584   0.91462   0.94176   0.00000  Uiso   1.00
C1457  C     0.75347   0.83338   0.83581   0.00000  Uiso   1.00
C1458  C     0.91319   0.83329   0.83085   0.00000  Uiso   1.00
C1459  C     0.83317   0.83334   0.73963   0.00000  Uiso   1.00
C1460  C     0.83350   0.83332   0.92703   0.00000  Uiso   1.00
C1461  C     0.83327   0.83335   0.68848   0.00000  Uiso   1.00
C1462  C     0.83340   0.83332   0.97819   0.00000  Uiso   1.00
C1463  C     0.68797   0.79229   0.83841   0.00000  Uiso   1.00
C1464  C     0.97869   0.87441   0.82826   0.00000  Uiso   1.00
C1465  C     0.97897   0.79209   0.83034   0.00000  Uiso   1.00
C1466  C     0.68769   0.87461   0.83623   0.00000  Uiso   1.00
C1467  C     0.95747   0.83322   0.82855   0.00000  Uiso   1.00
C1468  C     0.70919   0.83347   0.83808   0.00000  Uiso   1.00
C1469  C     0.85126   0.69053   0.87261   0.00000  Uiso   1.00
C1470  C     0.81541   0.97614   0.79405   0.00000  Uiso   1.00
C1471  C     0.81532   0.69068   0.79413   0.00000  Uiso   1.00
C1472  C     0.85134   0.97599   0.87255   0.00000  Uiso   1.00
N1473  N     0.83333   0.95240   0.83333   0.00000  Uiso   1.00
N1474  N     0.83333   0.71427   0.83333   0.00000  Uiso   1.00
O1475  O     0.77226   0.87154   0.83333   0.00000  Uiso   1.00
O1476  O     0.89441   0.79513   0.83334   0.00000  Uiso   1.00
O1477  O     0.89441   0.87154   0.83334   0.00000  Uiso   1.00
O1478  O     0.77226   0.79513   0.83333   0.00000  Uiso   1.00
O1479  O     0.83334   0.87155   0.76178   0.00000  Uiso   1.00
O1480  O     0.83333   0.79512   0.90489   0.00000  Uiso   1.00
O1481  O     0.83333   0.87155   0.90489   0.00000  Uiso   1.00
O1482  O     0.83334   0.79512   0.76178   0.00000  Uiso   1.00
Zn1483 Zn    0.83333   0.88437   0.83333   0.00000  Uiso   1.00
Zn1484 Zn    0.83333   0.78229   0.83333   0.00000  Uiso   1.00
N1485  N     0.70911   0.75079   0.84951   0.00000  Uiso   1.00
H1486  H     0.69856   0.73782   0.88289   0.00000  Uiso   1.00
H1487  H     0.70279   0.72773   0.82083   0.00000  Uiso   1.00
N1488  N     0.95753   0.91592   0.81732   0.00000  Uiso   1.00
H1489  H     0.96803   0.92899   0.78396   0.00000  Uiso   1.00
H1490  H     0.96386   0.93891   0.84607   0.00000  Uiso   1.00
N1491  N     0.95815   0.75014   0.82146   0.00000  Uiso   1.00
H1492  H     0.96874   0.73591   0.78872   0.00000  Uiso   1.00
H1493  H     0.96480   0.72824   0.85123   0.00000  Uiso   1.00
N1494  N     0.70854   0.91657   0.84495   0.00000  Uiso   1.00
H1495  H     0.69800   0.93089   0.87766   0.00000  Uiso   1.00
H1496  H     0.70187   0.93840   0.81512   0.00000  Uiso   1.00
C1497  C     0.87055   0.71446   0.91577   0.00000  Uiso   1.00
O1498  O     0.85446   0.71336   0.95613   0.00000  Uiso   1.00
O1499  O     0.90739   0.73741   0.91095   0.00000  Uiso   1.00
H1500  H     0.91743   0.75239   0.94324   0.00000  Uiso   1.00
C1501  C     0.79615   0.95222   0.75085   0.00000  Uiso   1.00
O1502  O     0.81203   0.95374   0.71038   0.00000  Uiso   1.00
O1503  O     0.75958   0.92877   0.75578   0.00000  Uiso   1.00
H1504  H     0.74959   0.91377   0.72347   0.00000  Uiso   1.00
C1505  C     0.79529   0.71481   0.75150   0.00000  Uiso   1.00
O1506  O     0.81131   0.71495   0.71107   0.00000  Uiso   1.00
O1507  O     0.75775   0.73640   0.75689   0.00000  Uiso   1.00
H1508  H     0.74719   0.75168   0.72495   0.00000  Uiso   1.00
C1509  C     0.87131   0.95187   0.91523   0.00000  Uiso   1.00
O1510  O     0.85543   0.95208   0.95573   0.00000  Uiso   1.00
O1511  O     0.90866   0.92989   0.90979   0.00000  Uiso   1.00
H1512  H     0.91917   0.91462   0.94176   0.00000  Uiso   1.00
loop_
_geom_bond_atom_site_label_1
_geom_bond_atom_site_label_2
_geom_bond_distance
_geom_bond_site_symmetry_2
_ccdc_geom_bond_type
C1     O22     1.297   .     A
C1     C12     1.446   .     S
C1     O19     1.296   .     A
C2     O21     1.296   .     A
C2     C11     1.446   .     S
C2     O20     1.296   .     A
C3     O23     1.284   .     A
C3     O26     1.284   .     A
C3     C5      1.368   .     S
C4     O25     1.284   .     A
C4     C6      1.368   .     S
C4     O24     1.284   .     A
C5     C1014   1.167   1_554 S
C6     C509    1.167   .     S
C7     N29     1.439   .     S
C7     C12     1.411   .     A
C7     C121    1.386   1_455 S
C8     C11     1.411   .     A
C8     N32     1.439   .     S
C8     C66     1.386   .     S
C9     C11     1.411   .     A
C9     N35     1.439   .     S
C9     C63     1.386   .     S
C10    N38     1.439   .     S
C10    C12     1.411   .     A
C10    C120    1.386   1_455 S
C13    C41     1.474   .     S
C13    N18     1.374   .     A
C13    C352    1.428   1_545 S
C14    N17     1.374   .     A
C14    C45     1.475   .     S
C14    C183    1.428   .     S
C15    N18     1.373   .     A
C15    C49     1.474   .     S
C15    C350    1.428   1_545 S
C16    C53     1.474   .     S
C16    N17     1.373   .     A
C16    C181    1.428   .     S
N17    Zn27    2.029   .     S
N18    Zn28    2.029   .     S
O19    Zn27    2.026   .     S
O20    Zn28    2.026   .     S
O21    Zn27    2.025   .     S
O22    Zn28    2.025   .     S
O23    Zn27    1.952   .     S
O24    Zn28    1.952   .     S
O25    Zn27    1.951   .     S
O26    Zn28    1.951   .     S
N29    H30     1.045   .     S
N29    H31     1.044   .     S
N32    H33     1.045   .     S
N32    H34     1.044   .     S
N35    H36     1.045   .     S
N35    H37     1.044   .     S
N38    H40     1.044   .     S
N38    H39     1.045   .     S
C41    O42     1.221   .     D
C41    O43     1.394   .     S
O43    H44     1.014   .     S
C45    O47     1.394   .     S
C45    O46     1.221   .     D
O47    H48     1.014   .     S
C49    O50     1.221   .     D
C49    O51     1.394   .     S
O51    H52     1.014   .     S
C53    O54     1.221   .     D
C53    O55     1.394   .     S
O55    H56     1.014   .     S
C57    O78     1.297   .     A
C57    C68     1.446   .     S
C57    O75     1.296   .     A
C58    O77     1.296   .     A
C58    C67     1.446   .     S
C58    O76     1.296   .     A
C59    O79     1.284   .     A
C59    O82     1.284   .     A
C59    C61     1.368   .     S
C60    O81     1.284   .     A
C60    C62     1.368   .     S
C60    O80     1.284   .     A
C61    C1070   1.167   1_554 S
C62    C565    1.167   .     S
C63    N85     1.439   .     S
C63    C68     1.411   .     A
C64    C67     1.411   .     A
C64    N88     1.439   .     S
C64    C122    1.386   .     S
C65    C67     1.411   .     A
C65    N91     1.439   .     S
C65    C119    1.386   .     S
C66    N94     1.439   .     S
C66    C68     1.411   .     A
C69    C97     1.474   .     S
C69    N74     1.374   .     A
C69    C408    1.428   1_545 S
C70    N73     1.374   .     A
C70    C101    1.475   .     S
C70    C239    1.428   .     S
C71    N74     1.373   .     A
C71    C105    1.474   .     S
C71    C406    1.428   1_545 S
C72    C109    1.474   .     S
C72    N73     1.373   .     A
C72    C237    1.428   .     S
N73    Zn83    2.029   .     S
N74    Zn84    2.029   .     S
O75    Zn83    2.026   .     S
O76    Zn84    2.026   .     S
O77    Zn83    2.025   .     S
O78    Zn84    2.025   .     S
O79    Zn83    1.952   .     S
O80    Zn84    1.952   .     S
O81    Zn83    1.951   .     S
O82    Zn84    1.951   .     S
N85    H86     1.045   .     S
N85    H87     1.044   .     S
N88    H89     1.045   .     S
N88    H90     1.044   .     S
N91    H92     1.045   .     S
N91    H93     1.044   .     S
N94    H96     1.044   .     S
N94    H95     1.045   .     S
C97    O98     1.221   .     D
C97    O99     1.394   .     S
O99    H100    1.014   .     S
C101   O103    1.394   .     S
C101   O102    1.221   .     D
O103   H104    1.014   .     S
C105   O106    1.221   .     D
C105   O107    1.394   .     S
O107   H108    1.014   .     S
C109   O110    1.221   .     D
C109   O111    1.394   .     S
O111   H112    1.014   .     S
C113   O134    1.297   .     A
C113   C124    1.446   .     S
C113   O131    1.296   .     A
C114   O133    1.296   .     A
C114   C123    1.446   .     S
C114   O132    1.296   .     A
C115   O135    1.284   .     A
C115   O138    1.284   .     A
C115   C117    1.368   .     S
C116   O137    1.284   .     A
C116   C118    1.368   .     S
C116   O136    1.284   .     A
C117   C1126   1.167   1_554 S
C118   C621    1.167   .     S
C119   N141    1.439   .     S
C119   C124    1.411   .     A
C120   C123    1.411   .     A
C120   N144    1.439   .     S
C120   C10     1.386   1_655 S
C121   C123    1.411   .     A
C121   N147    1.439   .     S
C121   C7      1.386   1_655 S
C122   N150    1.439   .     S
C122   C124    1.411   .     A
C125   C153    1.474   .     S
C125   N130    1.374   .     A
C125   C464    1.428   1_545 S
C126   N129    1.374   .     A
C126   C157    1.475   .     S
C126   C295    1.428   .     S
C127   N130    1.373   .     A
C127   C161    1.474   .     S
C127   C462    1.428   1_545 S
C128   C165    1.474   .     S
C128   N129    1.373   .     A
C128   C293    1.428   .     S
N129   Zn139   2.029   .     S
N130   Zn140   2.029   .     S
O131   Zn139   2.026   .     S
O132   Zn140   2.026   .     S
O133   Zn139   2.025   .     S
O134   Zn140   2.025   .     S
O135   Zn139   1.952   .     S
O136   Zn140   1.952   .     S
O137   Zn139   1.951   .     S
O138   Zn140   1.951   .     S
N141   H142    1.045   .     S
N141   H143    1.044   .     S
N144   H145    1.045   .     S
N144   H146    1.044   .     S
N147   H148    1.045   .     S
N147   H149    1.044   .     S
N150   H152    1.044   .     S
N150   H151    1.045   .     S
C153   O154    1.221   .     D
C153   O155    1.394   .     S
O155   H156    1.014   .     S
C157   O159    1.394   .     S
C157   O158    1.221   .     D
O159   H160    1.014   .     S
C161   O162    1.221   .     D
C161   O163    1.394   .     S
O163   H164    1.014   .     S
C165   O166    1.221   .     D
C165   O167    1.394   .     S
O167   H168    1.014   .     S
C169   O190    1.297   .     A
C169   C180    1.446   .     S
C169   O187    1.296   .     A
C170   O189    1.296   .     A
C170   C179    1.446   .     S
C170   O188    1.296   .     A
C171   O191    1.284   .     A
C171   O194    1.284   .     A
C171   C173    1.368   .     S
C172   O193    1.284   .     A
C172   C174    1.368   .     S
C172   O192    1.284   .     A
C173   C1182   1.167   1_554 S
C174   C677    1.167   .     S
C175   N197    1.439   .     S
C175   C180    1.411   .     A
C175   C289    1.386   1_455 S
C176   C179    1.411   .     A
C176   N200    1.439   .     S
C176   C234    1.386   .     S
C177   C179    1.411   .     A
C177   N203    1.439   .     S
C177   C231    1.386   .     S
C178   N206    1.439   .     S
C178   C180    1.411   .     A
C178   C288    1.386   1_455 S
C181   C209    1.474   .     S
C181   N186    1.374   .     A
C182   N185    1.374   .     A
C182   C213    1.475   .     S
C182   C351    1.428   .     S
C183   N186    1.373   .     A
C183   C217    1.474   .     S
C184   C221    1.474   .     S
C184   N185    1.373   .     A
C184   C349    1.428   .     S
N185   Zn195   2.029   .     S
N186   Zn196   2.029   .     S
O187   Zn195   2.026   .     S
O188   Zn196   2.026   .     S
O189   Zn195   2.025   .     S
O190   Zn196   2.025   .     S
O191   Zn195   1.952   .     S
O192   Zn196   1.952   .     S
O193   Zn195   1.951   .     S
O194   Zn196   1.951   .     S
N197   H198    1.045   .     S
N197   H199    1.044   .     S
N200   H201    1.045   .     S
N200   H202    1.044   .     S
N203   H204    1.045   .     S
N203   H205    1.044   .     S
N206   H208    1.044   .     S
N206   H207    1.045   .     S
C209   O210    1.221   .     D
C209   O211    1.394   .     S
O211   H212    1.014   .     S
C213   O215    1.394   .     S
C213   O214    1.221   .     D
O215   H216    1.014   .     S
C217   O218    1.221   .     D
C217   O219    1.394   .     S
O219   H220    1.014   .     S
C221   O222    1.221   .     D
C221   O223    1.394   .     S
O223   H224    1.014   .     S
C225   O246    1.297   .     A
C225   C236    1.446   .     S
C225   O243    1.296   .     A
C226   O245    1.296   .     A
C226   C235    1.446   .     S
C226   O244    1.296   .     A
C227   O247    1.284   .     A
C227   O250    1.284   .     A
C227   C229    1.368   .     S
C228   O249    1.284   .     A
C228   C230    1.368   .     S
C228   O248    1.284   .     A
C229   C1238   1.167   1_554 S
C230   C733    1.167   .     S
C231   N253    1.439   .     S
C231   C236    1.411   .     A
C232   C235    1.411   .     A
C232   N256    1.439   .     S
C232   C290    1.386   .     S
C233   C235    1.411   .     A
C233   N259    1.439   .     S
C233   C287    1.386   .     S
C234   N262    1.439   .     S
C234   C236    1.411   .     A
C237   C265    1.474   .     S
C237   N242    1.374   .     A
C238   N241    1.374   .     A
C238   C269    1.475   .     S
C238   C407    1.428   .     S
C239   N242    1.373   .     A
C239   C273    1.474   .     S
C240   C277    1.474   .     S
C240   N241    1.373   .     A
C240   C405    1.428   .     S
N241   Zn251   2.029   .     S
N242   Zn252   2.029   .     S
O243   Zn251   2.026   .     S
O244   Zn252   2.026   .     S
O245   Zn251   2.025   .     S
O246   Zn252   2.025   .     S
O247   Zn251   1.952   .     S
O248   Zn252   1.952   .     S
O249   Zn251   1.951   .     S
O250   Zn252   1.951   .     S
N253   H254    1.045   .     S
N253   H255    1.044   .     S
N256   H257    1.045   .     S
N256   H258    1.044   .     S
N259   H260    1.045   .     S
N259   H261    1.044   .     S
N262   H264    1.044   .     S
N262   H263    1.045   .     S
C265   O266    1.221   .     D
C265   O267    1.394   .     S
O267   H268    1.014   .     S
C269   O271    1.394   .     S
C269   O270    1.221   .     D
O271   H272    1.014   .     S
C273   O274    1.221   .     D
C273   O275    1.394   .     S
O275   H276    1.014   .     S
C277   O278    1.221   .     D
C277   O279    1.394   .     S
O279   H280    1.014   .     S
C281   O302    1.297   .     A
C281   C292    1.446   .     S
C281   O299    1.296   .     A
C282   O301    1.296   .     A
C282   C291    1.446   .     S
C282   O300    1.296   .     A
C283   O303    1.284   .     A
C283   O306    1.284   .     A
C283   C285    1.368   .     S
C284   O305    1.284   .     A
C284   C286    1.368   .     S
C284   O304    1.284   .     A
C285   C1294   1.167   1_554 S
C286   C789    1.167   .     S
C287   N309    1.439   .     S
C287   C292    1.411   .     A
C288   C291    1.411   .     A
C288   N312    1.439   .     S
C288   C178    1.386   1_655 S
C289   C291    1.411   .     A
C289   N315    1.439   .     S
C289   C175    1.386   1_655 S
C290   N318    1.439   .     S
C290   C292    1.411   .     A
C293   C321    1.474   .     S
C293   N298    1.374   .     A
C294   N297    1.374   .     A
C294   C325    1.475   .     S
C294   C463    1.428   .     S
C295   N298    1.373   .     A
C295   C329    1.474   .     S
C296   C333    1.474   .     S
C296   N297    1.373   .     A
C296   C461    1.428   .     S
N297   Zn307   2.029   .     S
N298   Zn308   2.029   .     S
O299   Zn307   2.026   .     S
O300   Zn308   2.026   .     S
O301   Zn307   2.025   .     S
O302   Zn308   2.025   .     S
O303   Zn307   1.952   .     S
O304   Zn308   1.952   .     S
O305   Zn307   1.951   .     S
O306   Zn308   1.951   .     S
N309   H310    1.045   .     S
N309   H311    1.044   .     S
N312   H313    1.045   .     S
N312   H314    1.044   .     S
N315   H316    1.045   .     S
N315   H317    1.044   .     S
N318   H320    1.044   .     S
N318   H319    1.045   .     S
C321   O322    1.221   .     D
C321   O323    1.394   .     S
O323   H324    1.014   .     S
C325   O327    1.394   .     S
C325   O326    1.221   .     D
O327   H328    1.014   .     S
C329   O330    1.221   .     D
C329   O331    1.394   .     S
O331   H332    1.014   .     S
C333   O334    1.221   .     D
C333   O335    1.394   .     S
O335   H336    1.014   .     S
C337   O358    1.297   .     A
C337   C348    1.446   .     S
C337   O355    1.296   .     A
C338   O357    1.296   .     A
C338   C347    1.446   .     S
C338   O356    1.296   .     A
C339   O359    1.284   .     A
C339   O362    1.284   .     A
C339   C341    1.368   .     S
C340   O361    1.284   .     A
C340   C342    1.368   .     S
C340   O360    1.284   .     A
C341   C1350   1.167   1_554 S
C342   C845    1.167   .     S
C343   N365    1.439   .     S
C343   C348    1.411   .     A
C343   C457    1.386   1_455 S
C344   C347    1.411   .     A
C344   N368    1.439   .     S
C344   C402    1.386   .     S
C345   C347    1.411   .     A
C345   N371    1.439   .     S
C345   C399    1.386   .     S
C346   N374    1.439   .     S
C346   C348    1.411   .     A
C346   C456    1.386   1_455 S
C349   C377    1.474   .     S
C349   N354    1.374   .     A
C350   N353    1.374   .     A
C350   C381    1.475   .     S
C350   C15     1.428   1_565 S
C351   N354    1.373   .     A
C351   C385    1.474   .     S
C352   C389    1.474   .     S
C352   N353    1.373   .     A
C352   C13     1.428   1_565 S
N353   Zn363   2.029   .     S
N354   Zn364   2.029   .     S
O355   Zn363   2.026   .     S
O356   Zn364   2.026   .     S
O357   Zn363   2.025   .     S
O358   Zn364   2.025   .     S
O359   Zn363   1.952   .     S
O360   Zn364   1.952   .     S
O361   Zn363   1.951   .     S
O362   Zn364   1.951   .     S
N365   H366    1.045   .     S
N365   H367    1.044   .     S
N368   H369    1.045   .     S
N368   H370    1.044   .     S
N371   H372    1.045   .     S
N371   H373    1.044   .     S
N374   H376    1.044   .     S
N374   H375    1.045   .     S
C377   O378    1.221   .     D
C377   O379    1.394   .     S
O379   H380    1.014   .     S
C381   O383    1.394   .     S
C381   O382    1.221   .     D
O383   H384    1.014   .     S
C385   O386    1.221   .     D
C385   O387    1.394   .     S
O387   H388    1.014   .     S
C389   O390    1.221   .     D
C389   O391    1.394   .     S
O391   H392    1.014   .     S
C393   O414    1.297   .     A
C393   C404    1.446   .     S
C393   O411    1.296   .     A
C394   O413    1.296   .     A
C394   C403    1.446   .     S
C394   O412    1.296   .     A
C395   O415    1.284   .     A
C395   O418    1.284   .     A
C395   C397    1.368   .     S
C396   O417    1.284   .     A
C396   C398    1.368   .     S
C396   O416    1.284   .     A
C397   C1406   1.167   1_554 S
C398   C901    1.167   .     S
C399   N421    1.439   .     S
C399   C404    1.411   .     A
C400   C403    1.411   .     A
C400   N424    1.439   .     S
C400   C458    1.386   .     S
C401   C403    1.411   .     A
C401   N427    1.439   .     S
C401   C455    1.386   .     S
C402   N430    1.439   .     S
C402   C404    1.411   .     A
C405   C433    1.474   .     S
C405   N410    1.374   .     A
C406   N409    1.374   .     A
C406   C437    1.475   .     S
C406   C71     1.428   1_565 S
C407   N410    1.373   .     A
C407   C441    1.474   .     S
C408   C445    1.474   .     S
C408   N409    1.373   .     A
C408   C69     1.428   1_565 S
N409   Zn419   2.029   .     S
N410   Zn420   2.029   .     S
O411   Zn419   2.026   .     S
O412   Zn420   2.026   .     S
O413   Zn419   2.025   .     S
O414   Zn420   2.025   .     S
O415   Zn419   1.952   .     S
O416   Zn420   1.952   .     S
O417   Zn419   1.951   .     S
O418   Zn420   1.951   .     S
N421   H422    1.045   .     S
N421   H423    1.044   .     S
N424   H425    1.045   .     S
N424   H426    1.044   .     S
N427   H428    1.045   .     S
N427   H429    1.044   .     S
N430   H432    1.044   .     S
N430   H431    1.045   .     S
C433   O434    1.221   .     D
C433   O435    1.394   .     S
O435   H436    1.014   .     S
C437   O439    1.394   .     S
C437   O438    1.221   .     D
O439   H440    1.014   .     S
C441   O442    1.221   .     D
C441   O443    1.394   .     S
O443   H444    1.014   .     S
C445   O446    1.221   .     D
C445   O447    1.394   .     S
O447   H448    1.014   .     S
C449   O470    1.297   .     A
C449   C460    1.446   .     S
C449   O467    1.296   .     A
C450   O469    1.296   .     A
C450   C459    1.446   .     S
C450   O468    1.296   .     A
C451   O471    1.284   .     A
C451   O474    1.284   .     A
C451   C453    1.368   .     S
C452   O473    1.284   .     A
C452   C454    1.368   .     S
C452   O472    1.284   .     A
C453   C1462   1.167   1_554 S
C454   C957    1.167   .     S
C455   N477    1.439   .     S
C455   C460    1.411   .     A
C456   C459    1.411   .     A
C456   N480    1.439   .     S
C456   C346    1.386   1_655 S
C457   C459    1.411   .     A
C457   N483    1.439   .     S
C457   C343    1.386   1_655 S
C458   N486    1.439   .     S
C458   C460    1.411   .     A
C461   C489    1.474   .     S
C461   N466    1.374   .     A
C462   N465    1.374   .     A
C462   C493    1.475   .     S
C462   C127    1.428   1_565 S
C463   N466    1.373   .     A
C463   C497    1.474   .     S
C464   C501    1.474   .     S
C464   N465    1.373   .     A
C464   C125    1.428   1_565 S
N465   Zn475   2.029   .     S
N466   Zn476   2.029   .     S
O467   Zn475   2.026   .     S
O468   Zn476   2.026   .     S
O469   Zn475   2.025   .     S
O470   Zn476   2.025   .     S
O471   Zn475   1.952   .     S
O472   Zn476   1.952   .     S
O473   Zn475   1.951   .     S
O474   Zn476   1.951   .     S
N477   H478    1.045   .     S
N477   H479    1.044   .     S
N480   H481    1.045   .     S
N480   H482    1.044   .     S
N483   H484    1.045   .     S
N483   H485    1.044   .     S
N486   H488    1.044   .     S
N486   H487    1.045   .     S
C489   O490    1.221   .     D
C489   O491    1.394   .     S
O491   H492    1.014   .     S
C493   O495    1.394   .     S
C493   O494    1.221   .     D
O495   H496    1.014   .     S
C497   O498    1.221   .     D
C497   O499    1.394   .     S
O499   H500    1.014   .     S
C501   O502    1.221   .     D
C501   O503    1.394   .     S
O503   H504    1.014   .     S
C505   O526    1.297   .     A
C505   C516    1.446   .     S
C505   O523    1.296   .     A
C506   O525    1.296   .     A
C506   C515    1.446   .     S
C506   O524    1.296   .     A
C507   O527    1.284   .     A
C507   O530    1.284   .     A
C507   C509    1.368   .     S
C508   O529    1.284   .     A
C508   C510    1.368   .     S
C508   O528    1.284   .     A
C510   C1013   1.167   .     S
C511   N533    1.439   .     S
C511   C516    1.411   .     A
C511   C625    1.386   1_455 S
C512   C515    1.411   .     A
C512   N536    1.439   .     S
C512   C570    1.386   .     S
C513   C515    1.411   .     A
C513   N539    1.439   .     S
C513   C567    1.386   .     S
C514   N542    1.439   .     S
C514   C516    1.411   .     A
C514   C624    1.386   1_455 S
C517   C545    1.474   .     S
C517   N522    1.374   .     A
C517   C856    1.428   1_545 S
C518   N521    1.374   .     A
C518   C549    1.475   .     S
C518   C687    1.428   .     S
C519   N522    1.373   .     A
C519   C553    1.474   .     S
C519   C854    1.428   1_545 S
C520   C557    1.474   .     S
C520   N521    1.373   .     A
C520   C685    1.428   .     S
N521   Zn531   2.029   .     S
N522   Zn532   2.029   .     S
O523   Zn531   2.026   .     S
O524   Zn532   2.026   .     S
O525   Zn531   2.025   .     S
O526   Zn532   2.025   .     S
O527   Zn531   1.952   .     S
O528   Zn532   1.952   .     S
O529   Zn531   1.951   .     S
O530   Zn532   1.951   .     S
N533   H534    1.045   .     S
N533   H535    1.044   .     S
N536   H537    1.045   .     S
N536   H538    1.044   .     S
N539   H540    1.045   .     S
N539   H541    1.044   .     S
N542   H544    1.044   .     S
N542   H543    1.045   .     S
C545   O546    1.221   .     D
C545   O547    1.394   .     S
O547   H548    1.014   .     S
C549   O551    1.394   .     S
C549   O550    1.221   .     D
O551   H552    1.014   .     S
C553   O554    1.221   .     D
C553   O555    1.394   .     S
O555   H556    1.014   .     S
C557   O558    1.221   .     D
C557   O559    1.394   .     S
O559   H560    1.014   .     S
C561   O582    1.297   .     A
C561   C572    1.446   .     S
C561   O579    1.296   .     A
C562   O581    1.296   .     A
C562   C571    1.446   .     S
C562   O580    1.296   .     A
C563   O583    1.284   .     A
C563   O586    1.284   .     A
C563   C565    1.368   .     S
C564   O585    1.284   .     A
C564   C566    1.368   .     S
C564   O584    1.284   .     A
C566   C1069   1.167   .     S
C567   N589    1.439   .     S
C567   C572    1.411   .     A
C568   C571    1.411   .     A
C568   N592    1.439   .     S
C568   C626    1.386   .     S
C569   C571    1.411   .     A
C569   N595    1.439   .     S
C569   C623    1.386   .     S
C570   N598    1.439   .     S
C570   C572    1.411   .     A
C573   C601    1.474   .     S
C573   N578    1.374   .     A
C573   C912    1.428   1_545 S
C574   N577    1.374   .     A
C574   C605    1.475   .     S
C574   C743    1.428   .     S
C575   N578    1.373   .     A
C575   C609    1.474   .     S
C575   C910    1.428   1_545 S
C576   C613    1.474   .     S
C576   N577    1.373   .     A
C576   C741    1.428   .     S
N577   Zn587   2.029   .     S
N578   Zn588   2.029   .     S
O579   Zn587   2.026   .     S
O580   Zn588   2.026   .     S
O581   Zn587   2.025   .     S
O582   Zn588   2.025   .     S
O583   Zn587   1.952   .     S
O584   Zn588   1.952   .     S
O585   Zn587   1.951   .     S
O586   Zn588   1.951   .     S
N589   H590    1.045   .     S
N589   H591    1.044   .     S
N592   H593    1.045   .     S
N592   H594    1.044   .     S
N595   H596    1.045   .     S
N595   H597    1.044   .     S
N598   H600    1.044   .     S
N598   H599    1.045   .     S
C601   O602    1.221   .     D
C601   O603    1.394   .     S
O603   H604    1.014   .     S
C605   O607    1.394   .     S
C605   O606    1.221   .     D
O607   H608    1.014   .     S
C609   O610    1.221   .     D
C609   O611    1.394   .     S
O611   H612    1.014   .     S
C613   O614    1.221   .     D
C613   O615    1.394   .     S
O615   H616    1.014   .     S
C617   O638    1.297   .     A
C617   C628    1.446   .     S
C617   O635    1.296   .     A
C618   O637    1.296   .     A
C618   C627    1.446   .     S
C618   O636    1.296   .     A
C619   O639    1.284   .     A
C619   O642    1.284   .     A
C619   C621    1.368   .     S
C620   O641    1.284   .     A
C620   C622    1.368   .     S
C620   O640    1.284   .     A
C622   C1125   1.167   .     S
C623   N645    1.439   .     S
C623   C628    1.411   .     A
C624   C627    1.411   .     A
C624   N648    1.439   .     S
C624   C514    1.386   1_655 S
C625   C627    1.411   .     A
C625   N651    1.439   .     S
C625   C511    1.386   1_655 S
C626   N654    1.439   .     S
C626   C628    1.411   .     A
C629   C657    1.474   .     S
C629   N634    1.374   .     A
C629   C968    1.428   1_545 S
C630   N633    1.374   .     A
C630   C661    1.475   .     S
C630   C799    1.428   .     S
C631   N634    1.373   .     A
C631   C665    1.474   .     S
C631   C966    1.428   1_545 S
C632   C669    1.474   .     S
C632   N633    1.373   .     A
C632   C797    1.428   .     S
N633   Zn643   2.029   .     S
N634   Zn644   2.029   .     S
O635   Zn643   2.026   .     S
O636   Zn644   2.026   .     S
O637   Zn643   2.025   .     S
O638   Zn644   2.025   .     S
O639   Zn643   1.952   .     S
O640   Zn644   1.952   .     S
O641   Zn643   1.951   .     S
O642   Zn644   1.951   .     S
N645   H646    1.045   .     S
N645   H647    1.044   .     S
N648   H649    1.045   .     S
N648   H650    1.044   .     S
N651   H652    1.045   .     S
N651   H653    1.044   .     S
N654   H656    1.044   .     S
N654   H655    1.045   .     S
C657   O658    1.221   .     D
C657   O659    1.394   .     S
O659   H660    1.014   .     S
C661   O663    1.394   .     S
C661   O662    1.221   .     D
O663   H664    1.014   .     S
C665   O666    1.221   .     D
C665   O667    1.394   .     S
O667   H668    1.014   .     S
C669   O670    1.221   .     D
C669   O671    1.394   .     S
O671   H672    1.014   .     S
C673   O694    1.297   .     A
C673   C684    1.446   .     S
C673   O691    1.296   .     A
C674   O693    1.296   .     A
C674   C683    1.446   .     S
C674   O692    1.296   .     A
C675   O695    1.284   .     A
C675   O698    1.284   .     A
C675   C677    1.368   .     S
C676   O697    1.284   .     A
C676   C678    1.368   .     S
C676   O696    1.284   .     A
C678   C1181   1.167   .     S
C679   N701    1.439   .     S
C679   C684    1.411   .     A
C679   C793    1.386   1_455 S
C680   C683    1.411   .     A
C680   N704    1.439   .     S
C680   C738    1.386   .     S
C681   C683    1.411   .     A
C681   N707    1.439   .     S
C681   C735    1.386   .     S
C682   N710    1.439   .     S
C682   C684    1.411   .     A
C682   C792    1.386   1_455 S
C685   C713    1.474   .     S
C685   N690    1.374   .     A
C686   N689    1.374   .     A
C686   C717    1.475   .     S
C686   C855    1.428   .     S
C687   N690    1.373   .     A
C687   C721    1.474   .     S
C688   C725    1.474   .     S
C688   N689    1.373   .     A
C688   C853    1.428   .     S
N689   Zn699   2.029   .     S
N690   Zn700   2.029   .     S
O691   Zn699   2.026   .     S
O692   Zn700   2.026   .     S
O693   Zn699   2.025   .     S
O694   Zn700   2.025   .     S
O695   Zn699   1.952   .     S
O696   Zn700   1.952   .     S
O697   Zn699   1.951   .     S
O698   Zn700   1.951   .     S
N701   H702    1.045   .     S
N701   H703    1.044   .     S
N704   H705    1.045   .     S
N704   H706    1.044   .     S
N707   H708    1.045   .     S
N707   H709    1.044   .     S
N710   H712    1.044   .     S
N710   H711    1.045   .     S
C713   O714    1.221   .     D
C713   O715    1.394   .     S
O715   H716    1.014   .     S
C717   O719    1.394   .     S
C717   O718    1.221   .     D
O719   H720    1.014   .     S
C721   O722    1.221   .     D
C721   O723    1.394   .     S
O723   H724    1.014   .     S
C725   O726    1.221   .     D
C725   O727    1.394   .     S
O727   H728    1.014   .     S
C729   O750    1.297   .     A
C729   C740    1.446   .     S
C729   O747    1.296   .     A
C730   O749    1.296   .     A
C730   C739    1.446   .     S
C730   O748    1.296   .     A
C731   O751    1.284   .     A
C731   O754    1.284   .     A
C731   C733    1.368   .     S
C732   O753    1.284   .     A
C732   C734    1.368   .     S
C732   O752    1.284   .     A
C734   C1237   1.167   .     S
C735   N757    1.439   .     S
C735   C740    1.411   .     A
C736   C739    1.411   .     A
C736   N760    1.439   .     S
C736   C794    1.386   .     S
C737   C739    1.411   .     A
C737   N763    1.439   .     S
C737   C791    1.386   .     S
C738   N766    1.439   .     S
C738   C740    1.411   .     A
C741   C769    1.474   .     S
C741   N746    1.374   .     A
C742   N745    1.374   .     A
C742   C773    1.475   .     S
C742   C911    1.428   .     S
C743   N746    1.373   .     A
C743   C777    1.474   .     S
C744   C781    1.474   .     S
C744   N745    1.373   .     A
C744   C909    1.428   .     S
N745   Zn755   2.029   .     S
N746   Zn756   2.029   .     S
O747   Zn755   2.026   .     S
O748   Zn756   2.026   .     S
O749   Zn755   2.025   .     S
O750   Zn756   2.025   .     S
O751   Zn755   1.952   .     S
O752   Zn756   1.952   .     S
O753   Zn755   1.951   .     S
O754   Zn756   1.951   .     S
N757   H758    1.045   .     S
N757   H759    1.044   .     S
N760   H761    1.045   .     S
N760   H762    1.044   .     S
N763   H764    1.045   .     S
N763   H765    1.044   .     S
N766   H768    1.044   .     S
N766   H767    1.045   .     S
C769   O770    1.221   .     D
C769   O771    1.394   .     S
O771   H772    1.014   .     S
C773   O775    1.394   .     S
C773   O774    1.221   .     D
O775   H776    1.014   .     S
C777   O778    1.221   .     D
C777   O779    1.394   .     S
O779   H780    1.014   .     S
C781   O782    1.221   .     D
C781   O783    1.394   .     S
O783   H784    1.014   .     S
C785   O806    1.297   .     A
C785   C796    1.446   .     S
C785   O803    1.296   .     A
C786   O805    1.296   .     A
C786   C795    1.446   .     S
C786   O804    1.296   .     A
C787   O807    1.284   .     A
C787   O810    1.284   .     A
C787   C789    1.368   .     S
C788   O809    1.284   .     A
C788   C790    1.368   .     S
C788   O808    1.284   .     A
C790   C1293   1.167   .     S
C791   N813    1.439   .     S
C791   C796    1.411   .     A
C792   C795    1.411   .     A
C792   N816    1.439   .     S
C792   C682    1.386   1_655 S
C793   C795    1.411   .     A
C793   N819    1.439   .     S
C793   C679    1.386   1_655 S
C794   N822    1.439   .     S
C794   C796    1.411   .     A
C797   C825    1.474   .     S
C797   N802    1.374   .     A
C798   N801    1.374   .     A
C798   C829    1.475   .     S
C798   C967    1.428   .     S
C799   N802    1.373   .     A
C799   C833    1.474   .     S
C800   C837    1.474   .     S
C800   N801    1.373   .     A
C800   C965    1.428   .     S
N801   Zn811   2.029   .     S
N802   Zn812   2.029   .     S
O803   Zn811   2.026   .     S
O804   Zn812   2.026   .     S
O805   Zn811   2.025   .     S
O806   Zn812   2.025   .     S
O807   Zn811   1.952   .     S
O808   Zn812   1.952   .     S
O809   Zn811   1.951   .     S
O810   Zn812   1.951   .     S
N813   H814    1.045   .     S
N813   H815    1.044   .     S
N816   H817    1.045   .     S
N816   H818    1.044   .     S
N819   H820    1.045   .     S
N819   H821    1.044   .     S
N822   H824    1.044   .     S
N822   H823    1.045   .     S
C825   O826    1.221   .     D
C825   O827    1.394   .     S
O827   H828    1.014   .     S
C829   O831    1.394   .     S
C829   O830    1.221   .     D
O831   H832    1.014   .     S
C833   O834    1.221   .     D
C833   O835    1.394   .     S
O835   H836    1.014   .     S
C837   O838    1.221   .     D
C837   O839    1.394   .     S
O839   H840    1.014   .     S
C841   O862    1.297   .     A
C841   C852    1.446   .     S
C841   O859    1.296   .     A
C842   O861    1.296   .     A
C842   C851    1.446   .     S
C842   O860    1.296   .     A
C843   O863    1.284   .     A
C843   O866    1.284   .     A
C843   C845    1.368   .     S
C844   O865    1.284   .     A
C844   C846    1.368   .     S
C844   O864    1.284   .     A
C846   C1349   1.167   .     S
C847   N869    1.439   .     S
C847   C852    1.411   .     A
C847   C961    1.386   1_455 S
C848   C851    1.411   .     A
C848   N872    1.439   .     S
C848   C906    1.386   .     S
C849   C851    1.411   .     A
C849   N875    1.439   .     S
C849   C903    1.386   .     S
C850   N878    1.439   .     S
C850   C852    1.411   .     A
C850   C960    1.386   1_455 S
C853   C881    1.474   .     S
C853   N858    1.374   .     A
C854   N857    1.374   .     A
C854   C885    1.475   .     S
C854   C519    1.428   1_565 S
C855   N858    1.373   .     A
C855   C889    1.474   .     S
C856   C893    1.474   .     S
C856   N857    1.373   .     A
C856   C517    1.428   1_565 S
N857   Zn867   2.029   .     S
N858   Zn868   2.029   .     S
O859   Zn867   2.026   .     S
O860   Zn868   2.026   .     S
O861   Zn867   2.025   .     S
O862   Zn868   2.025   .     S
O863   Zn867   1.952   .     S
O864   Zn868   1.952   .     S
O865   Zn867   1.951   .     S
O866   Zn868   1.951   .     S
N869   H870    1.045   .     S
N869   H871    1.044   .     S
N872   H873    1.045   .     S
N872   H874    1.044   .     S
N875   H876    1.045   .     S
N875   H877    1.044   .     S
N878   H880    1.044   .     S
N878   H879    1.045   .     S
C881   O882    1.221   .     D
C881   O883    1.394   .     S
O883   H884    1.014   .     S
C885   O887    1.394   .     S
C885   O886    1.221   .     D
O887   H888    1.014   .     S
C889   O890    1.221   .     D
C889   O891    1.394   .     S
O891   H892    1.014   .     S
C893   O894    1.221   .     D
C893   O895    1.394   .     S
O895   H896    1.014   .     S
C897   O918    1.297   .     A
C897   C908    1.446   .     S
C897   O915    1.296   .     A
C898   O917    1.296   .     A
C898   C907    1.446   .     S
C898   O916    1.296   .     A
C899   O919    1.284   .     A
C899   O922    1.284   .     A
C899   C901    1.368   .     S
C900   O921    1.284   .     A
C900   C902    1.368   .     S
C900   O920    1.284   .     A
C902   C1405   1.167   .     S
C903   N925    1.439   .     S
C903   C908    1.411   .     A
C904   C907    1.411   .     A
C904   N928    1.439   .     S
C904   C962    1.386   .     S
C905   C907    1.411   .     A
C905   N931    1.439   .     S
C905   C959    1.386   .     S
C906   N934    1.439   .     S
C906   C908    1.411   .     A
C909   C937    1.474   .     S
C909   N914    1.374   .     A
C910   N913    1.374   .     A
C910   C941    1.475   .     S
C910   C575    1.428   1_565 S
C911   N914    1.373   .     A
C911   C945    1.474   .     S
C912   C949    1.474   .     S
C912   N913    1.373   .     A
C912   C573    1.428   1_565 S
N913   Zn923   2.029   .     S
N914   Zn924   2.029   .     S
O915   Zn923   2.026   .     S
O916   Zn924   2.026   .     S
O917   Zn923   2.025   .     S
O918   Zn924   2.025   .     S
O919   Zn923   1.952   .     S
O920   Zn924   1.952   .     S
O921   Zn923   1.951   .     S
O922   Zn924   1.951   .     S
N925   H926    1.045   .     S
N925   H927    1.044   .     S
N928   H929    1.045   .     S
N928   H930    1.044   .     S
N931   H932    1.045   .     S
N931   H933    1.044   .     S
N934   H936    1.044   .     S
N934   H935    1.045   .     S
C937   O938    1.221   .     D
C937   O939    1.394   .     S
O939   H940    1.014   .     S
C941   O943    1.394   .     S
C941   O942    1.221   .     D
O943   H944    1.014   .     S
C945   O946    1.221   .     D
C945   O947    1.394   .     S
O947   H948    1.014   .     S
C949   O950    1.221   .     D
C949   O951    1.394   .     S
O951   H952    1.014   .     S
C953   O974    1.297   .     A
C953   C964    1.446   .     S
C953   O971    1.296   .     A
C954   O973    1.296   .     A
C954   C963    1.446   .     S
C954   O972    1.296   .     A
C955   O975    1.284   .     A
C955   O978    1.284   .     A
C955   C957    1.368   .     S
C956   O977    1.284   .     A
C956   C958    1.368   .     S
C956   O976    1.284   .     A
C958   C1461   1.167   .     S
C959   N981    1.439   .     S
C959   C964    1.411   .     A
C960   C963    1.411   .     A
C960   N984    1.439   .     S
C960   C850    1.386   1_655 S
C961   C963    1.411   .     A
C961   N987    1.439   .     S
C961   C847    1.386   1_655 S
C962   N990    1.439   .     S
C962   C964    1.411   .     A
C965   C993    1.474   .     S
C965   N970    1.374   .     A
C966   N969    1.374   .     A
C966   C997    1.475   .     S
C966   C631    1.428   1_565 S
C967   N970    1.373   .     A
C967   C1001   1.474   .     S
C968   C1005   1.474   .     S
C968   N969    1.373   .     A
C968   C629    1.428   1_565 S
N969   Zn979   2.029   .     S
N970   Zn980   2.029   .     S
O971   Zn979   2.026   .     S
O972   Zn980   2.026   .     S
O973   Zn979   2.025   .     S
O974   Zn980   2.025   .     S
O975   Zn979   1.952   .     S
O976   Zn980   1.952   .     S
O977   Zn979   1.951   .     S
O978   Zn980   1.951   .     S
N981   H982    1.045   .     S
N981   H983    1.044   .     S
N984   H985    1.045   .     S
N984   H986    1.044   .     S
N987   H988    1.045   .     S
N987   H989    1.044   .     S
N990   H992    1.044   .     S
N990   H991    1.045   .     S
C993   O994    1.221   .     D
C993   O995    1.394   .     S
O995   H996    1.014   .     S
C997   O999    1.394   .     S
C997   O998    1.221   .     D
O999   H1000   1.014   .     S
C1001  O1002   1.221   .     D
C1001  O1003   1.394   .     S
O1003  H1004   1.014   .     S
C1005  O1006   1.221   .     D
C1005  O1007   1.394   .     S
O1007  H1008   1.014   .     S
C1009  O1030   1.297   .     A
C1009  C1020   1.446   .     S
C1009  O1027   1.296   .     A
C1010  O1029   1.296   .     A
C1010  C1019   1.446   .     S
C1010  O1028   1.296   .     A
C1011  O1031   1.284   .     A
C1011  O1034   1.284   .     A
C1011  C1013   1.368   .     S
C1012  O1033   1.284   .     A
C1012  C1014   1.368   .     S
C1012  O1032   1.284   .     A
C1014  C5      1.167   1_556 S
C1015  N1037   1.439   .     S
C1015  C1020   1.411   .     A
C1015  C1129   1.386   1_455 S
C1016  C1019   1.411   .     A
C1016  N1040   1.439   .     S
C1016  C1074   1.386   .     S
C1017  C1019   1.411   .     A
C1017  N1043   1.439   .     S
C1017  C1071   1.386   .     S
C1018  N1046   1.439   .     S
C1018  C1020   1.411   .     A
C1018  C1128   1.386   1_455 S
C1021  C1049   1.474   .     S
C1021  N1026   1.374   .     A
C1021  C1360   1.428   1_545 S
C1022  N1025   1.374   .     A
C1022  C1053   1.475   .     S
C1022  C1191   1.428   .     S
C1023  N1026   1.373   .     A
C1023  C1057   1.474   .     S
C1023  C1358   1.428   1_545 S
C1024  C1061   1.474   .     S
C1024  N1025   1.373   .     A
C1024  C1189   1.428   .     S
N1025  Zn1035  2.029   .     S
N1026  Zn1036  2.029   .     S
O1027  Zn1035  2.026   .     S
O1028  Zn1036  2.026   .     S
O1029  Zn1035  2.025   .     S
O1030  Zn1036  2.025   .     S
O1031  Zn1035  1.952   .     S
O1032  Zn1036  1.952   .     S
O1033  Zn1035  1.951   .     S
O1034  Zn1036  1.951   .     S
N1037  H1038   1.045   .     S
N1037  H1039   1.044   .     S
N1040  H1041   1.045   .     S
N1040  H1042   1.044   .     S
N1043  H1044   1.045   .     S
N1043  H1045   1.044   .     S
N1046  H1048   1.044   .     S
N1046  H1047   1.045   .     S
C1049  O1050   1.221   .     D
C1049  O1051   1.394   .     S
O1051  H1052   1.014   .     S
C1053  O1055   1.394   .     S
C1053  O1054   1.221   .     D
O1055  H1056   1.014   .     S
C1057  O1058   1.221   .     D
C1057  O1059   1.394   .     S
O1059  H1060   1.014   .     S
C1061  O1062   1.221   .     D
C1061  O1063   1.394   .     S
O1063  H1064   1.014   .     S
C1065  O1086   1.297   .     A
C1065  C1076   1.446   .     S
C1065  O1083   1.296   .     A
C1066  O1085   1.296   .     A
C1066  C1075   1.446   .     S
C1066  O1084   1.296   .     A
C1067  O1087   1.284   .     A
C1067  O1090   1.284   .     A
C1067  C1069   1.368   .     S
C1068  O1089   1.284   .     A
C1068  C1070   1.368   .     S
C1068  O1088   1.284   .     A
C1070  C61     1.167   1_556 S
C1071  N1093   1.439   .     S
C1071  C1076   1.411   .     A
C1072  C1075   1.411   .     A
C1072  N1096   1.439   .     S
C1072  C1130   1.386   .     S
C1073  C1075   1.411   .     A
C1073  N1099   1.439   .     S
C1073  C1127   1.386   .     S
C1074  N1102   1.439   .     S
C1074  C1076   1.411   .     A
C1077  C1105   1.474   .     S
C1077  N1082   1.374   .     A
C1077  C1416   1.428   1_545 S
C1078  N1081   1.374   .     A
C1078  C1109   1.475   .     S
C1078  C1247   1.428   .     S
C1079  N1082   1.373   .     A
C1079  C1113   1.474   .     S
C1079  C1414   1.428   1_545 S
C1080  C1117   1.474   .     S
C1080  N1081   1.373   .     A
C1080  C1245   1.428   .     S
N1081  Zn1091  2.029   .     S
N1082  Zn1092  2.029   .     S
O1083  Zn1091  2.026   .     S
O1084  Zn1092  2.026   .     S
O1085  Zn1091  2.025   .     S
O1086  Zn1092  2.025   .     S
O1087  Zn1091  1.952   .     S
O1088  Zn1092  1.952   .     S
O1089  Zn1091  1.951   .     S
O1090  Zn1092  1.951   .     S
N1093  H1094   1.045   .     S
N1093  H1095   1.044   .     S
N1096  H1097   1.045   .     S
N1096  H1098   1.044   .     S
N1099  H1100   1.045   .     S
N1099  H1101   1.044   .     S
N1102  H1104   1.044   .     S
N1102  H1103   1.045   .     S
C1105  O1106   1.221   .     D
C1105  O1107   1.394   .     S
O1107  H1108   1.014   .     S
C1109  O1111   1.394   .     S
C1109  O1110   1.221   .     D
O1111  H1112   1.014   .     S
C1113  O1114   1.221   .     D
C1113  O1115   1.394   .     S
O1115  H1116   1.014   .     S
C1117  O1118   1.221   .     D
C1117  O1119   1.394   .     S
O1119  H1120   1.014   .     S
C1121  O1142   1.297   .     A
C1121  C1132   1.446   .     S
C1121  O1139   1.296   .     A
C1122  O1141   1.296   .     A
C1122  C1131   1.446   .     S
C1122  O1140   1.296   .     A
C1123  O1143   1.284   .     A
C1123  O1146   1.284   .     A
C1123  C1125   1.368   .     S
C1124  O1145   1.284   .     A
C1124  C1126   1.368   .     S
C1124  O1144   1.284   .     A
C1126  C117    1.167   1_556 S
C1127  N1149   1.439   .     S
C1127  C1132   1.411   .     A
C1128  C1131   1.411   .     A
C1128  N1152   1.439   .     S
C1128  C1018   1.386   1_655 S
C1129  C1131   1.411   .     A
C1129  N1155   1.439   .     S
C1129  C1015   1.386   1_655 S
C1130  N1158   1.439   .     S
C1130  C1132   1.411   .     A
C1133  C1161   1.474   .     S
C1133  N1138   1.374   .     A
C1133  C1472   1.428   1_545 S
C1134  N1137   1.374   .     A
C1134  C1165   1.475   .     S
C1134  C1303   1.428   .     S
C1135  N1138   1.373   .     A
C1135  C1169   1.474   .     S
C1135  C1470   1.428   1_545 S
C1136  C1173   1.474   .     S
C1136  N1137   1.373   .     A
C1136  C1301   1.428   .     S
N1137  Zn1147  2.029   .     S
N1138  Zn1148  2.029   .     S
O1139  Zn1147  2.026   .     S
O1140  Zn1148  2.026   .     S
O1141  Zn1147  2.025   .     S
O1142  Zn1148  2.025   .     S
O1143  Zn1147  1.952   .     S
O1144  Zn1148  1.952   .     S
O1145  Zn1147  1.951   .     S
O1146  Zn1148  1.951   .     S
N1149  H1150   1.045   .     S
N1149  H1151   1.044   .     S
N1152  H1153   1.045   .     S
N1152  H1154   1.044   .     S
N1155  H1156   1.045   .     S
N1155  H1157   1.044   .     S
N1158  H1160   1.044   .     S
N1158  H1159   1.045   .     S
C1161  O1162   1.221   .     D
C1161  O1163   1.394   .     S
O1163  H1164   1.014   .     S
C1165  O1167   1.394   .     S
C1165  O1166   1.221   .     D
O1167  H1168   1.014   .     S
C1169  O1170   1.221   .     D
C1169  O1171   1.394   .     S
O1171  H1172   1.014   .     S
C1173  O1174   1.221   .     D
C1173  O1175   1.394   .     S
O1175  H1176   1.014   .     S
C1177  O1198   1.297   .     A
C1177  C1188   1.446   .     S
C1177  O1195   1.296   .     A
C1178  O1197   1.296   .     A
C1178  C1187   1.446   .     S
C1178  O1196   1.296   .     A
C1179  O1199   1.284   .     A
C1179  O1202   1.284   .     A
C1179  C1181   1.368   .     S
C1180  O1201   1.284   .     A
C1180  C1182   1.368   .     S
C1180  O1200   1.284   .     A
C1182  C173    1.167   1_556 S
C1183  N1205   1.439   .     S
C1183  C1188   1.411   .     A
C1183  C1297   1.386   1_455 S
C1184  C1187   1.411   .     A
C1184  N1208   1.439   .     S
C1184  C1242   1.386   .     S
C1185  C1187   1.411   .     A
C1185  N1211   1.439   .     S
C1185  C1239   1.386   .     S
C1186  N1214   1.439   .     S
C1186  C1188   1.411   .     A
C1186  C1296   1.386   1_455 S
C1189  C1217   1.474   .     S
C1189  N1194   1.374   .     A
C1190  N1193   1.374   .     A
C1190  C1221   1.475   .     S
C1190  C1359   1.428   .     S
C1191  N1194   1.373   .     A
C1191  C1225   1.474   .     S
C1192  C1229   1.474   .     S
C1192  N1193   1.373   .     A
C1192  C1357   1.428   .     S
N1193  Zn1203  2.029   .     S
N1194  Zn1204  2.029   .     S
O1195  Zn1203  2.026   .     S
O1196  Zn1204  2.026   .     S
O1197  Zn1203  2.025   .     S
O1198  Zn1204  2.025   .     S
O1199  Zn1203  1.952   .     S
O1200  Zn1204  1.952   .     S
O1201  Zn1203  1.951   .     S
O1202  Zn1204  1.951   .     S
N1205  H1206   1.045   .     S
N1205  H1207   1.044   .     S
N1208  H1209   1.045   .     S
N1208  H1210   1.044   .     S
N1211  H1212   1.045   .     S
N1211  H1213   1.044   .     S
N1214  H1216   1.044   .     S
N1214  H1215   1.045   .     S
C1217  O1218   1.221   .     D
C1217  O1219   1.394   .     S
O1219  H1220   1.014   .     S
C1221  O1223   1.394   .     S
C1221  O1222   1.221   .     D
O1223  H1224   1.014   .     S
C1225  O1226   1.221   .     D
C1225  O1227   1.394   .     S
O1227  H1228   1.014   .     S
C1229  O1230   1.221   .     D
C1229  O1231   1.394   .     S
O1231  H1232   1.014   .     S
C1233  O1254   1.297   .     A
C1233  C1244   1.446   .     S
C1233  O1251   1.296   .     A
C1234  O1253   1.296   .     A
C1234  C1243   1.446   .     S
C1234  O1252   1.296   .     A
C1235  O1255   1.284   .     A
C1235  O1258   1.284   .     A
C1235  C1237   1.368   .     S
C1236  O1257   1.284   .     A
C1236  C1238   1.368   .     S
C1236  O1256   1.284   .     A
C1238  C229    1.167   1_556 S
C1239  N1261   1.439   .     S
C1239  C1244   1.411   .     A
C1240  C1243   1.411   .     A
C1240  N1264   1.439   .     S
C1240  C1298   1.386   .     S
C1241  C1243   1.411   .     A
C1241  N1267   1.439   .     S
C1241  C1295   1.386   .     S
C1242  N1270   1.439   .     S
C1242  C1244   1.411   .     A
C1245  C1273   1.474   .     S
C1245  N1250   1.374   .     A
C1246  N1249   1.374   .     A
C1246  C1277   1.475   .     S
C1246  C1415   1.428   .     S
C1247  N1250   1.373   .     A
C1247  C1281   1.474   .     S
C1248  C1285   1.474   .     S
C1248  N1249   1.373   .     A
C1248  C1413   1.428   .     S
N1249  Zn1259  2.029   .     S
N1250  Zn1260  2.029   .     S
O1251  Zn1259  2.026   .     S
O1252  Zn1260  2.026   .     S
O1253  Zn1259  2.025   .     S
O1254  Zn1260  2.025   .     S
O1255  Zn1259  1.952   .     S
O1256  Zn1260  1.952   .     S
O1257  Zn1259  1.951   .     S
O1258  Zn1260  1.951   .     S
N1261  H1262   1.045   .     S
N1261  H1263   1.044   .     S
N1264  H1265   1.045   .     S
N1264  H1266   1.044   .     S
N1267  H1268   1.045   .     S
N1267  H1269   1.044   .     S
N1270  H1272   1.044   .     S
N1270  H1271   1.045   .     S
C1273  O1274   1.221   .     D
C1273  O1275   1.394   .     S
O1275  H1276   1.014   .     S
C1277  O1279   1.394   .     S
C1277  O1278   1.221   .     D
O1279  H1280   1.014   .     S
C1281  O1282   1.221   .     D
C1281  O1283   1.394   .     S
O1283  H1284   1.014   .     S
C1285  O1286   1.221   .     D
C1285  O1287   1.394   .     S
O1287  H1288   1.014   .     S
C1289  O1310   1.297   .     A
C1289  C1300   1.446   .     S
C1289  O1307   1.296   .     A
C1290  O1309   1.296   .     A
C1290  C1299   1.446   .     S
C1290  O1308   1.296   .     A
C1291  O1311   1.284   .     A
C1291  O1314   1.284   .     A
C1291  C1293   1.368   .     S
C1292  O1313   1.284   .     A
C1292  C1294   1.368   .     S
C1292  O1312   1.284   .     A
C1294  C285    1.167   1_556 S
C1295  N1317   1.439   .     S
C1295  C1300   1.411   .     A
C1296  C1299   1.411   .     A
C1296  N1320   1.439   .     S
C1296  C1186   1.386   1_655 S
C1297  C1299   1.411   .     A
C1297  N1323   1.439   .     S
C1297  C1183   1.386   1_655 S
C1298  N1326   1.439   .     S
C1298  C1300   1.411   .     A
C1301  C1329   1.474   .     S
C1301  N1306   1.374   .     A
C1302  N1305   1.374   .     A
C1302  C1333   1.475   .     S
C1302  C1471   1.428   .     S
C1303  N1306   1.373   .     A
C1303  C1337   1.474   .     S
C1304  C1341   1.474   .     S
C1304  N1305   1.373   .     A
C1304  C1469   1.428   .     S
N1305  Zn1315  2.029   .     S
N1306  Zn1316  2.029   .     S
O1307  Zn1315  2.026   .     S
O1308  Zn1316  2.026   .     S
O1309  Zn1315  2.025   .     S
O1310  Zn1316  2.025   .     S
O1311  Zn1315  1.952   .     S
O1312  Zn1316  1.952   .     S
O1313  Zn1315  1.951   .     S
O1314  Zn1316  1.951   .     S
N1317  H1318   1.045   .     S
N1317  H1319   1.044   .     S
N1320  H1321   1.045   .     S
N1320  H1322   1.044   .     S
N1323  H1324   1.045   .     S
N1323  H1325   1.044   .     S
N1326  H1328   1.044   .     S
N1326  H1327   1.045   .     S
C1329  O1330   1.221   .     D
C1329  O1331   1.394   .     S
O1331  H1332   1.014   .     S
C1333  O1335   1.394   .     S
C1333  O1334   1.221   .     D
O1335  H1336   1.014   .     S
C1337  O1338   1.221   .     D
C1337  O1339   1.394   .     S
O1339  H1340   1.014   .     S
C1341  O1342   1.221   .     D
C1341  O1343   1.394   .     S
O1343  H1344   1.014   .     S
C1345  O1366   1.297   .     A
C1345  C1356   1.446   .     S
C1345  O1363   1.296   .     A
C1346  O1365   1.296   .     A
C1346  C1355   1.446   .     S
C1346  O1364   1.296   .     A
C1347  O1367   1.284   .     A
C1347  O1370   1.284   .     A
C1347  C1349   1.368   .     S
C1348  O1369   1.284   .     A
C1348  C1350   1.368   .     S
C1348  O1368   1.284   .     A
C1350  C341    1.167   1_556 S
C1351  N1373   1.439   .     S
C1351  C1356   1.411   .     A
C1351  C1465   1.386   1_455 S
C1352  C1355   1.411   .     A
C1352  N1376   1.439   .     S
C1352  C1410   1.386   .     S
C1353  C1355   1.411   .     A
C1353  N1379   1.439   .     S
C1353  C1407   1.386   .     S
C1354  N1382   1.439   .     S
C1354  C1356   1.411   .     A
C1354  C1464   1.386   1_455 S
C1357  C1385   1.474   .     S
C1357  N1362   1.374   .     A
C1358  N1361   1.374   .     A
C1358  C1389   1.475   .     S
C1358  C1023   1.428   1_565 S
C1359  N1362   1.373   .     A
C1359  C1393   1.474   .     S
C1360  C1397   1.474   .     S
C1360  N1361   1.373   .     A
C1360  C1021   1.428   1_565 S
N1361  Zn1371  2.029   .     S
N1362  Zn1372  2.029   .     S
O1363  Zn1371  2.026   .     S
O1364  Zn1372  2.026   .     S
O1365  Zn1371  2.025   .     S
O1366  Zn1372  2.025   .     S
O1367  Zn1371  1.952   .     S
O1368  Zn1372  1.952   .     S
O1369  Zn1371  1.951   .     S
O1370  Zn1372  1.951   .     S
N1373  H1374   1.045   .     S
N1373  H1375   1.044   .     S
N1376  H1377   1.045   .     S
N1376  H1378   1.044   .     S
N1379  H1380   1.045   .     S
N1379  H1381   1.044   .     S
N1382  H1384   1.044   .     S
N1382  H1383   1.045   .     S
C1385  O1386   1.221   .     D
C1385  O1387   1.394   .     S
O1387  H1388   1.014   .     S
C1389  O1391   1.394   .     S
C1389  O1390   1.221   .     D
O1391  H1392   1.014   .     S
C1393  O1394   1.221   .     D
C1393  O1395   1.394   .     S
O1395  H1396   1.014   .     S
C1397  O1398   1.221   .     D
C1397  O1399   1.394   .     S
O1399  H1400   1.014   .     S
C1401  O1422   1.297   .     A
C1401  C1412   1.446   .     S
C1401  O1419   1.296   .     A
C1402  O1421   1.296   .     A
C1402  C1411   1.446   .     S
C1402  O1420   1.296   .     A
C1403  O1423   1.284   .     A
C1403  O1426   1.284   .     A
C1403  C1405   1.368   .     S
C1404  O1425   1.284   .     A
C1404  C1406   1.368   .     S
C1404  O1424   1.284   .     A
C1406  C397    1.167   1_556 S
C1407  N1429   1.439   .     S
C1407  C1412   1.411   .     A
C1408  C1411   1.411   .     A
C1408  N1432   1.439   .     S
C1408  C1466   1.386   .     S
C1409  C1411   1.411   .     A
C1409  N1435   1.439   .     S
C1409  C1463   1.386   .     S
C1410  N1438   1.439   .     S
C1410  C1412   1.411   .     A
C1413  C1441   1.474   .     S
C1413  N1418   1.374   .     A
C1414  N1417   1.374   .     A
C1414  C1445   1.475   .     S
C1414  C1079   1.428   1_565 S
C1415  N1418   1.373   .     A
C1415  C1449   1.474   .     S
C1416  C1453   1.474   .     S
C1416  N1417   1.373   .     A
C1416  C1077   1.428   1_565 S
N1417  Zn1427  2.029   .     S
N1418  Zn1428  2.029   .     S
O1419  Zn1427  2.026   .     S
O1420  Zn1428  2.026   .     S
O1421  Zn1427  2.025   .     S
O1422  Zn1428  2.025   .     S
O1423  Zn1427  1.952   .     S
O1424  Zn1428  1.952   .     S
O1425  Zn1427  1.951   .     S
O1426  Zn1428  1.951   .     S
N1429  H1430   1.045   .     S
N1429  H1431   1.044   .     S
N1432  H1433   1.045   .     S
N1432  H1434   1.044   .     S
N1435  H1436   1.045   .     S
N1435  H1437   1.044   .     S
N1438  H1440   1.044   .     S
N1438  H1439   1.045   .     S
C1441  O1442   1.221   .     D
C1441  O1443   1.394   .     S
O1443  H1444   1.014   .     S
C1445  O1447   1.394   .     S
C1445  O1446   1.221   .     D
O1447  H1448   1.014   .     S
C1449  O1450   1.221   .     D
C1449  O1451   1.394   .     S
O1451  H1452   1.014   .     S
C1453  O1454   1.221   .     D
C1453  O1455   1.394   .     S
O1455  H1456   1.014   .     S
C1457  O1478   1.297   .     A
C1457  C1468   1.446   .     S
C1457  O1475   1.296   .     A
C1458  O1477   1.296   .     A
C1458  C1467   1.446   .     S
C1458  O1476   1.296   .     A
C1459  O1479   1.284   .     A
C1459  O1482   1.284   .     A
C1459  C1461   1.368   .     S
C1460  O1481   1.284   .     A
C1460  C1462   1.368   .     S
C1460  O1480   1.284   .     A
C1462  C453    1.167   1_556 S
C1463  N1485   1.439   .     S
C1463  C1468   1.411   .     A
C1464  C1467   1.411   .     A
C1464  N1488   1.439   .     S
C1464  C1354   1.386   1_655 S
C1465  C1467   1.411   .     A
C1465  N1491   1.439   .     S
C1465  C1351   1.386   1_655 S
C1466  N1494   1.439   .     S
C1466  C1468   1.411   .     A
C1469  C1497   1.474   .     S
C1469  N1474   1.374   .     A
C1470  N1473   1.374   .     A
C1470  C1501   1.475   .     S
C1470  C1135   1.428   1_565 S
C1471  N1474   1.373   .     A
C1471  C1505   1.474   .     S
C1472  C1509   1.474   .     S
C1472  N1473   1.373   .     A
C1472  C1133   1.428   1_565 S
N1473  Zn1483  2.029   .     S
N1474  Zn1484  2.029   .     S
O1475  Zn1483  2.026   .     S
O1476  Zn1484  2.026   .     S
O1477  Zn1483  2.025   .     S
O1478  Zn1484  2.025   .     S
O1479  Zn1483  1.952   .     S
O1480  Zn1484  1.952   .     S
O1481  Zn1483  1.951   .     S
O1482  Zn1484  1.951   .     S
N1485  H1486   1.045   .     S
N1485  H1487   1.044   .     S
N1488  H1489   1.045   .     S
N1488  H1490   1.044   .     S
N1491  H1492   1.045   .     S
N1491  H1493   1.044   .     S
N1494  H1496   1.044   .     S
N1494  H1495   1.045   .     S
C1497  O1498   1.221   .     D
C1497  O1499   1.394   .     S
O1499  H1500   1.014   .     S
C1501  O1503   1.394   .     S
C1501  O1502   1.221   .     D
O1503  H1504   1.014   .     S
C1505  O1506   1.221   .     D
C1505  O1507   1.394   .     S
O1507  H1508   1.014   .     S
C1509  O1510   1.221   .     D
C1509  O1511   1.394   .     S
O1511  H1512   1.014   .     S
