data_str_m2_o10_o17_pcu_sym.41
_audit_creation_date              2020-01-03
_audit_creation_method            'Materials Studio'
_symmetry_space_group_name_H-M    'P1'
_symmetry_Int_Tables_number       1
_symmetry_cell_setting            triclinic
loop_
_symmetry_equiv_pos_as_xyz
  x,y,z
_cell_length_a                    29.9983
_cell_length_b                    26.6252
_cell_length_c                    22.9149
_cell_angle_alpha                 104.1657
_cell_angle_beta                  94.8629
_cell_angle_gamma                 96.0300
loop_
_atom_site_label
_atom_site_type_symbol
_atom_site_fract_x
_atom_site_fract_y
_atom_site_fract_z
_atom_site_U_iso_or_equiv
_atom_site_adp_type
_atom_site_occupancy
C1     C     0.24683   0.06658   0.15069   0.00000  Uiso   1.00
C2     C     0.08746   0.11811   0.15343   0.00000  Uiso   1.00
C3     C     0.38359   0.16931   0.16520   0.00000  Uiso   1.00
C4     C     0.11635   0.16548   0.16754   0.00000  Uiso   1.00
C5     C     0.40039   0.12287   0.14212   0.00000  Uiso   1.00
C6     C     0.09945   0.21288   0.18338   0.00000  Uiso   1.00
C7     C     0.44663   0.12183   0.14115   0.00000  Uiso   1.00
C8     C     0.05329   0.21421   0.18628   0.00000  Uiso   1.00
C9     C     0.47651   0.16873   0.16456   0.00000  Uiso   1.00
C10    C     0.02333   0.16716   0.16547   0.00000  Uiso   1.00
C11    C     0.45949   0.21708   0.18656   0.00000  Uiso   1.00
C12    C     0.25201   0.26660   0.18194   0.00000  Uiso   1.00
C13    C     0.04033   0.11860   0.14572   0.00000  Uiso   1.00
C14    C     0.46312   0.07460   0.11654   0.00000  Uiso   1.00
C15    C     0.03692   0.26168   0.21001   0.00000  Uiso   1.00
C16    C     0.20844   0.30895   0.08659   0.00000  Uiso   1.00
C17    C     0.19045   0.00100   0.03762   0.00000  Uiso   1.00
C18    C     0.15932   0.29535   0.32056   0.00000  Uiso   1.00
C19    C     0.29440   0.02028   0.24069   0.00000  Uiso   1.00
C20    C     0.33778   0.04377   0.22076   0.00000  Uiso   1.00
C21    C     0.37420   0.06659   0.27419   0.00000  Uiso   1.00
C22    C     0.19388   0.12484   0.31529   0.00000  Uiso   1.00
C23    C     0.00966   0.07273   0.11814   0.00000  Uiso   1.00
C24    C     0.15402   0.15785   0.32720   0.00000  Uiso   1.00
C25    C     0.11104   0.12510   0.00206   0.00000  Uiso   1.00
C26    C     0.30628   0.20537   0.02079   0.00000  Uiso   1.00
C27    C     0.33030   0.25208   0.00205   0.00000  Uiso   1.00
C28    C     0.32142   0.30533   0.03957   0.00000  Uiso   1.00
C29    C     0.49051   0.26334   0.21136   0.00000  Uiso   1.00
C30    C     0.24048   0.00997   0.14240   0.00000  Uiso   1.00
C31    C     0.25968   0.32281   0.18737   0.00000  Uiso   1.00
C32    C     0.16471   0.16607   0.16689   0.00000  Uiso   1.00
C33    C     0.33528   0.16785   0.16642   0.00000  Uiso   1.00
C34    C     0.41215   0.21693   0.18357   0.00000  Uiso   1.00
Cu35   Cu    0.25501   0.17246   0.22813   0.00000  Uiso   1.00
Cu36   Cu    0.24500   0.16087   0.10521   0.00000  Uiso   1.00
H37    H     0.37688   0.08748   0.12467   0.00000  Uiso   1.00
H38    H     0.05956   0.00398   0.21463   0.00000  Uiso   1.00
H39    H     0.03864   0.00637   0.11679   0.00000  Uiso   1.00
H40    H     0.04700   0.03269   0.05650   0.00000  Uiso   1.00
H41    H     0.45684   0.30662   0.27532   0.00000  Uiso   1.00
H42    H     0.45971   0.32815   0.21038   0.00000  Uiso   1.00
H43    H     0.17746   0.26273   0.29895   0.00000  Uiso   1.00
H44    H     0.12889   0.27988   0.00497   0.00000  Uiso   1.00
H45    H     0.14906   0.31558   0.28571   0.00000  Uiso   1.00
H46    H     0.17171   0.03314   0.05720   0.00000  Uiso   1.00
H47    H     0.21899   0.01593   0.01597   0.00000  Uiso   1.00
H48    H     0.12285   0.24860   0.19467   0.00000  Uiso   1.00
H49    H     0.22655   0.27906   0.05971   0.00000  Uiso   1.00
H50    H     0.17934   0.28946   0.10335   0.00000  Uiso   1.00
H51    H     0.36096   0.09494   0.31050   0.00000  Uiso   1.00
H52    H     0.38615   0.03490   0.29259   0.00000  Uiso   1.00
H53    H     0.40342   0.08700   0.25883   0.00000  Uiso   1.00
H54    H     0.35133   0.01352   0.18740   0.00000  Uiso   1.00
H55    H     0.33086   0.07491   0.19878   0.00000  Uiso   1.00
H56    H     0.27932   0.04987   0.27339   0.00000  Uiso   1.00
H57    H     0.30541   0.32712   0.26734   0.00000  Uiso   1.00
H58    H     0.09772   0.09603   0.29220   0.00000  Uiso   1.00
H59    H     0.37173   0.26392   0.15433   0.00000  Uiso   1.00
H60    H     0.11757   0.10386   0.03709   0.00000  Uiso   1.00
H61    H     0.08490   0.15088   0.01578   0.00000  Uiso   1.00
H62    H     0.16328   0.19263   0.03252   0.00000  Uiso   1.00
H63    H     0.14379   0.17473   0.28996   0.00000  Uiso   1.00
H64    H     0.19471   0.10665   0.26708   0.00000  Uiso   1.00
H65    H     0.18726   0.09063   0.00040   0.00000  Uiso   1.00
H66    H     0.28702   0.31265   0.02608   0.00000  Uiso   1.00
H67    H     0.32582   0.30780   0.08863   0.00000  Uiso   1.00
H68    H     0.34550   0.00333   0.03135   0.00000  Uiso   1.00
H69    H     0.36728   0.25084   0.00899   0.00000  Uiso   1.00
H70    H     0.37343   0.26739   0.22946   0.00000  Uiso   1.00
H71    H     0.32213   0.25020   0.28780   0.00000  Uiso   1.00
H72    H     0.30231   0.22209   0.06779   0.00000  Uiso   1.00
H73    H     0.32924   0.17488   0.01692   0.00000  Uiso   1.00
H74    H     0.12463   0.07365   0.19307   0.00000  Uiso   1.00
H75    H     0.12769   0.06527   0.11841   0.00000  Uiso   1.00
H76    H     0.43759   0.01564   0.04328   0.00000  Uiso   1.00
H77    H     0.43902   0.33230   0.11003   0.00000  Uiso   1.00
H78    H     0.06402   0.32132   0.28158   0.00000  Uiso   1.00
N79    N     0.23745   0.15214   0.01284   0.00000  Uiso   1.00
N80    N     0.26256   0.18119   0.32049   0.00000  Uiso   1.00
N81    N     0.39274   0.26474   0.19344   0.00000  Uiso   1.00
N82    N     0.10586   0.07030   0.15145   0.00000  Uiso   1.00
N83    N     0.43219   0.02824   0.08870   0.00000  Uiso   1.00
N84    N     0.06790   0.30838   0.23562   0.00000  Uiso   1.00
N85    N     0.02415   0.02485   0.08615   0.00000  Uiso   1.00
N86    N     0.47680   0.31222   0.24165   0.00000  Uiso   1.00
O87    O     0.25326   0.09538   0.20659   0.00000  Uiso   1.00
O88    O     0.24675   0.23796   0.12674   0.00000  Uiso   1.00
O89    O     0.24480   0.08559   0.10279   0.00000  Uiso   1.00
O90    O     0.25520   0.24774   0.23055   0.00000  Uiso   1.00
O91    O     0.18936   0.17155   0.21857   0.00000  Uiso   1.00
O92    O     0.31065   0.16179   0.11476   0.00000  Uiso   1.00
O93    O     0.18090   0.16176   0.11477   0.00000  Uiso   1.00
O94    O     0.31910   0.17157   0.21857   0.00000  Uiso   1.00
C95    C     0.74683   0.06658   0.15069   0.00000  Uiso   1.00
C96    C     0.58746   0.11811   0.15343   0.00000  Uiso   1.00
C97    C     0.88359   0.16931   0.16520   0.00000  Uiso   1.00
C98    C     0.61635   0.16548   0.16754   0.00000  Uiso   1.00
C99    C     0.90039   0.12287   0.14212   0.00000  Uiso   1.00
C100   C     0.59945   0.21288   0.18338   0.00000  Uiso   1.00
C101   C     0.94663   0.12183   0.14115   0.00000  Uiso   1.00
C102   C     0.55329   0.21421   0.18628   0.00000  Uiso   1.00
C103   C     0.97651   0.16873   0.16456   0.00000  Uiso   1.00
C104   C     0.52333   0.16716   0.16547   0.00000  Uiso   1.00
C105   C     0.95949   0.21708   0.18656   0.00000  Uiso   1.00
C106   C     0.75201   0.26660   0.18194   0.00000  Uiso   1.00
C107   C     0.54033   0.11860   0.14572   0.00000  Uiso   1.00
C108   C     0.96312   0.07460   0.11654   0.00000  Uiso   1.00
C109   C     0.53692   0.26168   0.21001   0.00000  Uiso   1.00
C110   C     0.70844   0.30895   0.08659   0.00000  Uiso   1.00
C111   C     0.69045   0.00100   0.03762   0.00000  Uiso   1.00
C112   C     0.65932   0.29535   0.32056   0.00000  Uiso   1.00
C113   C     0.79440   0.02028   0.24069   0.00000  Uiso   1.00
C114   C     0.83778   0.04377   0.22076   0.00000  Uiso   1.00
C115   C     0.87420   0.06659   0.27419   0.00000  Uiso   1.00
C116   C     0.69388   0.12484   0.31529   0.00000  Uiso   1.00
C117   C     0.50966   0.07273   0.11814   0.00000  Uiso   1.00
C118   C     0.65402   0.15785   0.32720   0.00000  Uiso   1.00
C119   C     0.61104   0.12510   0.00206   0.00000  Uiso   1.00
C120   C     0.80628   0.20537   0.02079   0.00000  Uiso   1.00
C121   C     0.83030   0.25208   0.00205   0.00000  Uiso   1.00
C122   C     0.82142   0.30533   0.03957   0.00000  Uiso   1.00
C123   C     0.99051   0.26334   0.21136   0.00000  Uiso   1.00
C124   C     0.74048   0.00997   0.14240   0.00000  Uiso   1.00
C125   C     0.75968   0.32281   0.18737   0.00000  Uiso   1.00
C126   C     0.66471   0.16607   0.16689   0.00000  Uiso   1.00
C127   C     0.83528   0.16785   0.16642   0.00000  Uiso   1.00
C128   C     0.91215   0.21693   0.18357   0.00000  Uiso   1.00
Cu129  Cu    0.75501   0.17246   0.22813   0.00000  Uiso   1.00
Cu130  Cu    0.74500   0.16087   0.10521   0.00000  Uiso   1.00
H131   H     0.87688   0.08748   0.12467   0.00000  Uiso   1.00
H132   H     0.55956   0.00398   0.21463   0.00000  Uiso   1.00
H133   H     0.53864   0.00637   0.11679   0.00000  Uiso   1.00
H134   H     0.54700   0.03269   0.05650   0.00000  Uiso   1.00
H135   H     0.95684   0.30662   0.27532   0.00000  Uiso   1.00
H136   H     0.95971   0.32815   0.21038   0.00000  Uiso   1.00
H137   H     0.67746   0.26273   0.29895   0.00000  Uiso   1.00
H138   H     0.62889   0.27988   0.00497   0.00000  Uiso   1.00
H139   H     0.64906   0.31558   0.28571   0.00000  Uiso   1.00
H140   H     0.67171   0.03314   0.05720   0.00000  Uiso   1.00
H141   H     0.71899   0.01593   0.01597   0.00000  Uiso   1.00
H142   H     0.62285   0.24860   0.19467   0.00000  Uiso   1.00
H143   H     0.72655   0.27906   0.05971   0.00000  Uiso   1.00
H144   H     0.67934   0.28946   0.10335   0.00000  Uiso   1.00
H145   H     0.86096   0.09494   0.31050   0.00000  Uiso   1.00
H146   H     0.88615   0.03490   0.29259   0.00000  Uiso   1.00
H147   H     0.90342   0.08700   0.25883   0.00000  Uiso   1.00
H148   H     0.85133   0.01352   0.18740   0.00000  Uiso   1.00
H149   H     0.83086   0.07491   0.19878   0.00000  Uiso   1.00
H150   H     0.77932   0.04987   0.27339   0.00000  Uiso   1.00
H151   H     0.80541   0.32712   0.26734   0.00000  Uiso   1.00
H152   H     0.59772   0.09603   0.29220   0.00000  Uiso   1.00
H153   H     0.87173   0.26392   0.15433   0.00000  Uiso   1.00
H154   H     0.61757   0.10386   0.03709   0.00000  Uiso   1.00
H155   H     0.58490   0.15088   0.01578   0.00000  Uiso   1.00
H156   H     0.66328   0.19263   0.03252   0.00000  Uiso   1.00
H157   H     0.64379   0.17473   0.28996   0.00000  Uiso   1.00
H158   H     0.69471   0.10665   0.26708   0.00000  Uiso   1.00
H159   H     0.68726   0.09063   0.00040   0.00000  Uiso   1.00
H160   H     0.78702   0.31265   0.02608   0.00000  Uiso   1.00
H161   H     0.82582   0.30780   0.08863   0.00000  Uiso   1.00
H162   H     0.84550   0.00333   0.03135   0.00000  Uiso   1.00
H163   H     0.86728   0.25084   0.00899   0.00000  Uiso   1.00
H164   H     0.87343   0.26739   0.22946   0.00000  Uiso   1.00
H165   H     0.82213   0.25020   0.28780   0.00000  Uiso   1.00
H166   H     0.80231   0.22209   0.06779   0.00000  Uiso   1.00
H167   H     0.82924   0.17488   0.01692   0.00000  Uiso   1.00
H168   H     0.62463   0.07365   0.19307   0.00000  Uiso   1.00
H169   H     0.62769   0.06527   0.11841   0.00000  Uiso   1.00
H170   H     0.93759   0.01564   0.04328   0.00000  Uiso   1.00
H171   H     0.93902   0.33230   0.11003   0.00000  Uiso   1.00
H172   H     0.56402   0.32132   0.28158   0.00000  Uiso   1.00
N173   N     0.73745   0.15214   0.01284   0.00000  Uiso   1.00
N174   N     0.76256   0.18119   0.32049   0.00000  Uiso   1.00
N175   N     0.89274   0.26474   0.19344   0.00000  Uiso   1.00
N176   N     0.60586   0.07030   0.15145   0.00000  Uiso   1.00
N177   N     0.93219   0.02824   0.08870   0.00000  Uiso   1.00
N178   N     0.56790   0.30838   0.23562   0.00000  Uiso   1.00
N179   N     0.52415   0.02485   0.08615   0.00000  Uiso   1.00
N180   N     0.97680   0.31222   0.24165   0.00000  Uiso   1.00
O181   O     0.75326   0.09538   0.20659   0.00000  Uiso   1.00
O182   O     0.74675   0.23796   0.12674   0.00000  Uiso   1.00
O183   O     0.74480   0.08559   0.10279   0.00000  Uiso   1.00
O184   O     0.75520   0.24774   0.23055   0.00000  Uiso   1.00
O185   O     0.68936   0.17155   0.21857   0.00000  Uiso   1.00
O186   O     0.81065   0.16179   0.11476   0.00000  Uiso   1.00
O187   O     0.68090   0.16176   0.11477   0.00000  Uiso   1.00
O188   O     0.81910   0.17157   0.21857   0.00000  Uiso   1.00
C189   C     0.24683   0.39992   0.15069   0.00000  Uiso   1.00
C190   C     0.08746   0.45144   0.15343   0.00000  Uiso   1.00
C191   C     0.38359   0.50264   0.16520   0.00000  Uiso   1.00
C192   C     0.11635   0.49881   0.16754   0.00000  Uiso   1.00
C193   C     0.40039   0.45621   0.14212   0.00000  Uiso   1.00
C194   C     0.09945   0.54621   0.18338   0.00000  Uiso   1.00
C195   C     0.44663   0.45516   0.14115   0.00000  Uiso   1.00
C196   C     0.05329   0.54754   0.18628   0.00000  Uiso   1.00
C197   C     0.47651   0.50207   0.16456   0.00000  Uiso   1.00
C198   C     0.02333   0.50050   0.16547   0.00000  Uiso   1.00
C199   C     0.45949   0.55041   0.18656   0.00000  Uiso   1.00
C200   C     0.25201   0.59993   0.18194   0.00000  Uiso   1.00
C201   C     0.04033   0.45193   0.14572   0.00000  Uiso   1.00
C202   C     0.46312   0.40794   0.11654   0.00000  Uiso   1.00
C203   C     0.03692   0.59501   0.21001   0.00000  Uiso   1.00
C204   C     0.20844   0.64228   0.08659   0.00000  Uiso   1.00
C205   C     0.19045   0.33433   0.03762   0.00000  Uiso   1.00
C206   C     0.15932   0.62868   0.32056   0.00000  Uiso   1.00
C207   C     0.29440   0.35361   0.24069   0.00000  Uiso   1.00
C208   C     0.33778   0.37711   0.22076   0.00000  Uiso   1.00
C209   C     0.37420   0.39992   0.27419   0.00000  Uiso   1.00
C210   C     0.19388   0.45817   0.31529   0.00000  Uiso   1.00
C211   C     0.00966   0.40606   0.11814   0.00000  Uiso   1.00
C212   C     0.15402   0.49118   0.32720   0.00000  Uiso   1.00
C213   C     0.11104   0.45844   0.00206   0.00000  Uiso   1.00
C214   C     0.30628   0.53870   0.02079   0.00000  Uiso   1.00
C215   C     0.33030   0.58541   0.00205   0.00000  Uiso   1.00
C216   C     0.32142   0.63866   0.03957   0.00000  Uiso   1.00
C217   C     0.49051   0.59667   0.21136   0.00000  Uiso   1.00
C218   C     0.24048   0.34330   0.14240   0.00000  Uiso   1.00
C219   C     0.25968   0.65614   0.18737   0.00000  Uiso   1.00
C220   C     0.16471   0.49940   0.16689   0.00000  Uiso   1.00
C221   C     0.33528   0.50118   0.16642   0.00000  Uiso   1.00
C222   C     0.41215   0.55026   0.18357   0.00000  Uiso   1.00
Cu223  Cu    0.25501   0.50579   0.22813   0.00000  Uiso   1.00
Cu224  Cu    0.24500   0.49421   0.10521   0.00000  Uiso   1.00
H225   H     0.37688   0.42081   0.12467   0.00000  Uiso   1.00
H226   H     0.05956   0.33732   0.21463   0.00000  Uiso   1.00
H227   H     0.03864   0.33970   0.11679   0.00000  Uiso   1.00
H228   H     0.04700   0.36602   0.05650   0.00000  Uiso   1.00
H229   H     0.45684   0.63996   0.27532   0.00000  Uiso   1.00
H230   H     0.45971   0.66149   0.21038   0.00000  Uiso   1.00
H231   H     0.17746   0.59606   0.29895   0.00000  Uiso   1.00
H232   H     0.12889   0.61321   0.00497   0.00000  Uiso   1.00
H233   H     0.14906   0.64891   0.28571   0.00000  Uiso   1.00
H234   H     0.17171   0.36647   0.05720   0.00000  Uiso   1.00
H235   H     0.21899   0.34926   0.01597   0.00000  Uiso   1.00
H236   H     0.12285   0.58193   0.19467   0.00000  Uiso   1.00
H237   H     0.22655   0.61239   0.05971   0.00000  Uiso   1.00
H238   H     0.17934   0.62279   0.10335   0.00000  Uiso   1.00
H239   H     0.36096   0.42827   0.31050   0.00000  Uiso   1.00
H240   H     0.38615   0.36824   0.29259   0.00000  Uiso   1.00
H241   H     0.40342   0.42033   0.25883   0.00000  Uiso   1.00
H242   H     0.35133   0.34685   0.18740   0.00000  Uiso   1.00
H243   H     0.33086   0.40824   0.19878   0.00000  Uiso   1.00
H244   H     0.27932   0.38320   0.27339   0.00000  Uiso   1.00
H245   H     0.30541   0.66045   0.26734   0.00000  Uiso   1.00
H246   H     0.09772   0.42937   0.29220   0.00000  Uiso   1.00
H247   H     0.37173   0.59725   0.15433   0.00000  Uiso   1.00
H248   H     0.11757   0.43719   0.03709   0.00000  Uiso   1.00
H249   H     0.08490   0.48421   0.01578   0.00000  Uiso   1.00
H250   H     0.16328   0.52596   0.03252   0.00000  Uiso   1.00
H251   H     0.14379   0.50806   0.28996   0.00000  Uiso   1.00
H252   H     0.19471   0.43999   0.26708   0.00000  Uiso   1.00
H253   H     0.18726   0.42396   0.00040   0.00000  Uiso   1.00
H254   H     0.28702   0.64599   0.02608   0.00000  Uiso   1.00
H255   H     0.32582   0.64113   0.08863   0.00000  Uiso   1.00
H256   H     0.34550   0.33666   0.03135   0.00000  Uiso   1.00
H257   H     0.36728   0.58417   0.00899   0.00000  Uiso   1.00
H258   H     0.37343   0.60072   0.22946   0.00000  Uiso   1.00
H259   H     0.32213   0.58353   0.28780   0.00000  Uiso   1.00
H260   H     0.30231   0.55543   0.06779   0.00000  Uiso   1.00
H261   H     0.32924   0.50821   0.01692   0.00000  Uiso   1.00
H262   H     0.12463   0.40698   0.19307   0.00000  Uiso   1.00
H263   H     0.12769   0.39860   0.11841   0.00000  Uiso   1.00
H264   H     0.43759   0.34897   0.04328   0.00000  Uiso   1.00
H265   H     0.43902   0.66564   0.11003   0.00000  Uiso   1.00
H266   H     0.06402   0.65465   0.28158   0.00000  Uiso   1.00
N267   N     0.23745   0.48547   0.01284   0.00000  Uiso   1.00
N268   N     0.26256   0.51453   0.32049   0.00000  Uiso   1.00
N269   N     0.39274   0.59808   0.19344   0.00000  Uiso   1.00
N270   N     0.10586   0.40363   0.15145   0.00000  Uiso   1.00
N271   N     0.43219   0.36158   0.08870   0.00000  Uiso   1.00
N272   N     0.06790   0.64171   0.23562   0.00000  Uiso   1.00
N273   N     0.02415   0.35819   0.08615   0.00000  Uiso   1.00
N274   N     0.47680   0.64555   0.24165   0.00000  Uiso   1.00
O275   O     0.25326   0.42871   0.20659   0.00000  Uiso   1.00
O276   O     0.24675   0.57129   0.12674   0.00000  Uiso   1.00
O277   O     0.24480   0.41892   0.10279   0.00000  Uiso   1.00
O278   O     0.25520   0.58108   0.23055   0.00000  Uiso   1.00
O279   O     0.18936   0.50488   0.21857   0.00000  Uiso   1.00
O280   O     0.31065   0.49512   0.11476   0.00000  Uiso   1.00
O281   O     0.18090   0.49510   0.11477   0.00000  Uiso   1.00
O282   O     0.31910   0.50490   0.21857   0.00000  Uiso   1.00
C283   C     0.74683   0.39992   0.15069   0.00000  Uiso   1.00
C284   C     0.58746   0.45144   0.15343   0.00000  Uiso   1.00
C285   C     0.88359   0.50264   0.16520   0.00000  Uiso   1.00
C286   C     0.61635   0.49881   0.16754   0.00000  Uiso   1.00
C287   C     0.90039   0.45621   0.14212   0.00000  Uiso   1.00
C288   C     0.59945   0.54621   0.18338   0.00000  Uiso   1.00
C289   C     0.94663   0.45516   0.14115   0.00000  Uiso   1.00
C290   C     0.55329   0.54754   0.18628   0.00000  Uiso   1.00
C291   C     0.97651   0.50207   0.16456   0.00000  Uiso   1.00
C292   C     0.52333   0.50050   0.16547   0.00000  Uiso   1.00
C293   C     0.95949   0.55041   0.18656   0.00000  Uiso   1.00
C294   C     0.75201   0.59993   0.18194   0.00000  Uiso   1.00
C295   C     0.54033   0.45193   0.14572   0.00000  Uiso   1.00
C296   C     0.96312   0.40794   0.11654   0.00000  Uiso   1.00
C297   C     0.53692   0.59501   0.21001   0.00000  Uiso   1.00
C298   C     0.70844   0.64228   0.08659   0.00000  Uiso   1.00
C299   C     0.69045   0.33433   0.03762   0.00000  Uiso   1.00
C300   C     0.65932   0.62868   0.32056   0.00000  Uiso   1.00
C301   C     0.79440   0.35361   0.24069   0.00000  Uiso   1.00
C302   C     0.83778   0.37711   0.22076   0.00000  Uiso   1.00
C303   C     0.87420   0.39992   0.27419   0.00000  Uiso   1.00
C304   C     0.69388   0.45817   0.31529   0.00000  Uiso   1.00
C305   C     0.50966   0.40606   0.11814   0.00000  Uiso   1.00
C306   C     0.65402   0.49118   0.32720   0.00000  Uiso   1.00
C307   C     0.61104   0.45844   0.00206   0.00000  Uiso   1.00
C308   C     0.80628   0.53870   0.02079   0.00000  Uiso   1.00
C309   C     0.83030   0.58541   0.00205   0.00000  Uiso   1.00
C310   C     0.82142   0.63866   0.03957   0.00000  Uiso   1.00
C311   C     0.99051   0.59667   0.21136   0.00000  Uiso   1.00
C312   C     0.74048   0.34330   0.14240   0.00000  Uiso   1.00
C313   C     0.75968   0.65614   0.18737   0.00000  Uiso   1.00
C314   C     0.66471   0.49940   0.16689   0.00000  Uiso   1.00
C315   C     0.83528   0.50118   0.16642   0.00000  Uiso   1.00
C316   C     0.91215   0.55026   0.18357   0.00000  Uiso   1.00
Cu317  Cu    0.75501   0.50579   0.22813   0.00000  Uiso   1.00
Cu318  Cu    0.74500   0.49421   0.10521   0.00000  Uiso   1.00
H319   H     0.87688   0.42081   0.12467   0.00000  Uiso   1.00
H320   H     0.55956   0.33732   0.21463   0.00000  Uiso   1.00
H321   H     0.53864   0.33970   0.11679   0.00000  Uiso   1.00
H322   H     0.54700   0.36602   0.05650   0.00000  Uiso   1.00
H323   H     0.95684   0.63996   0.27532   0.00000  Uiso   1.00
H324   H     0.95971   0.66149   0.21038   0.00000  Uiso   1.00
H325   H     0.67746   0.59606   0.29895   0.00000  Uiso   1.00
H326   H     0.62889   0.61321   0.00497   0.00000  Uiso   1.00
H327   H     0.64906   0.64891   0.28571   0.00000  Uiso   1.00
H328   H     0.67171   0.36647   0.05720   0.00000  Uiso   1.00
H329   H     0.71899   0.34926   0.01597   0.00000  Uiso   1.00
H330   H     0.62285   0.58193   0.19467   0.00000  Uiso   1.00
H331   H     0.72655   0.61239   0.05971   0.00000  Uiso   1.00
H332   H     0.67934   0.62279   0.10335   0.00000  Uiso   1.00
H333   H     0.86096   0.42827   0.31050   0.00000  Uiso   1.00
H334   H     0.88615   0.36824   0.29259   0.00000  Uiso   1.00
H335   H     0.90342   0.42033   0.25883   0.00000  Uiso   1.00
H336   H     0.85133   0.34685   0.18740   0.00000  Uiso   1.00
H337   H     0.83086   0.40824   0.19878   0.00000  Uiso   1.00
H338   H     0.77932   0.38320   0.27339   0.00000  Uiso   1.00
H339   H     0.80541   0.66045   0.26734   0.00000  Uiso   1.00
H340   H     0.59772   0.42937   0.29220   0.00000  Uiso   1.00
H341   H     0.87173   0.59725   0.15433   0.00000  Uiso   1.00
H342   H     0.61757   0.43719   0.03709   0.00000  Uiso   1.00
H343   H     0.58490   0.48421   0.01578   0.00000  Uiso   1.00
H344   H     0.66328   0.52596   0.03252   0.00000  Uiso   1.00
H345   H     0.64379   0.50806   0.28996   0.00000  Uiso   1.00
H346   H     0.69471   0.43999   0.26708   0.00000  Uiso   1.00
H347   H     0.68726   0.42396   0.00040   0.00000  Uiso   1.00
H348   H     0.78702   0.64599   0.02608   0.00000  Uiso   1.00
H349   H     0.82582   0.64113   0.08863   0.00000  Uiso   1.00
H350   H     0.84550   0.33666   0.03135   0.00000  Uiso   1.00
H351   H     0.86728   0.58417   0.00899   0.00000  Uiso   1.00
H352   H     0.87343   0.60072   0.22946   0.00000  Uiso   1.00
H353   H     0.82213   0.58353   0.28780   0.00000  Uiso   1.00
H354   H     0.80231   0.55543   0.06779   0.00000  Uiso   1.00
H355   H     0.82924   0.50821   0.01692   0.00000  Uiso   1.00
H356   H     0.62463   0.40698   0.19307   0.00000  Uiso   1.00
H357   H     0.62769   0.39860   0.11841   0.00000  Uiso   1.00
H358   H     0.93759   0.34897   0.04328   0.00000  Uiso   1.00
H359   H     0.93902   0.66564   0.11003   0.00000  Uiso   1.00
H360   H     0.56402   0.65465   0.28158   0.00000  Uiso   1.00
N361   N     0.73745   0.48547   0.01284   0.00000  Uiso   1.00
N362   N     0.76256   0.51453   0.32049   0.00000  Uiso   1.00
N363   N     0.89274   0.59808   0.19344   0.00000  Uiso   1.00
N364   N     0.60586   0.40363   0.15145   0.00000  Uiso   1.00
N365   N     0.93219   0.36158   0.08870   0.00000  Uiso   1.00
N366   N     0.56790   0.64171   0.23562   0.00000  Uiso   1.00
N367   N     0.52415   0.35819   0.08615   0.00000  Uiso   1.00
N368   N     0.97680   0.64555   0.24165   0.00000  Uiso   1.00
O369   O     0.75326   0.42871   0.20659   0.00000  Uiso   1.00
O370   O     0.74675   0.57129   0.12674   0.00000  Uiso   1.00
O371   O     0.74480   0.41892   0.10279   0.00000  Uiso   1.00
O372   O     0.75520   0.58108   0.23055   0.00000  Uiso   1.00
O373   O     0.68936   0.50488   0.21857   0.00000  Uiso   1.00
O374   O     0.81065   0.49512   0.11476   0.00000  Uiso   1.00
O375   O     0.68090   0.49510   0.11477   0.00000  Uiso   1.00
O376   O     0.81910   0.50490   0.21857   0.00000  Uiso   1.00
C377   C     0.24683   0.73325   0.15069   0.00000  Uiso   1.00
C378   C     0.08746   0.78477   0.15343   0.00000  Uiso   1.00
C379   C     0.38359   0.83598   0.16520   0.00000  Uiso   1.00
C380   C     0.11635   0.83214   0.16754   0.00000  Uiso   1.00
C381   C     0.40039   0.78954   0.14212   0.00000  Uiso   1.00
C382   C     0.09945   0.87955   0.18338   0.00000  Uiso   1.00
C383   C     0.44663   0.78850   0.14115   0.00000  Uiso   1.00
C384   C     0.05329   0.88087   0.18628   0.00000  Uiso   1.00
C385   C     0.47651   0.83540   0.16456   0.00000  Uiso   1.00
C386   C     0.02333   0.83383   0.16547   0.00000  Uiso   1.00
C387   C     0.45949   0.88375   0.18656   0.00000  Uiso   1.00
C388   C     0.25201   0.93326   0.18194   0.00000  Uiso   1.00
C389   C     0.04033   0.78526   0.14572   0.00000  Uiso   1.00
C390   C     0.46312   0.74127   0.11654   0.00000  Uiso   1.00
C391   C     0.03692   0.92834   0.21001   0.00000  Uiso   1.00
C392   C     0.20844   0.97562   0.08659   0.00000  Uiso   1.00
C393   C     0.19045   0.66766   0.03762   0.00000  Uiso   1.00
C394   C     0.15932   0.96201   0.32056   0.00000  Uiso   1.00
C395   C     0.29440   0.68694   0.24069   0.00000  Uiso   1.00
C396   C     0.33778   0.71044   0.22076   0.00000  Uiso   1.00
C397   C     0.37420   0.73326   0.27419   0.00000  Uiso   1.00
C398   C     0.19388   0.79150   0.31529   0.00000  Uiso   1.00
C399   C     0.00966   0.73939   0.11814   0.00000  Uiso   1.00
C400   C     0.15402   0.82451   0.32720   0.00000  Uiso   1.00
C401   C     0.11104   0.79177   0.00206   0.00000  Uiso   1.00
C402   C     0.30628   0.87203   0.02079   0.00000  Uiso   1.00
C403   C     0.33030   0.91874   0.00205   0.00000  Uiso   1.00
C404   C     0.32142   0.97200   0.03957   0.00000  Uiso   1.00
C405   C     0.49051   0.93001   0.21136   0.00000  Uiso   1.00
C406   C     0.24048   0.67664   0.14240   0.00000  Uiso   1.00
C407   C     0.25968   0.98947   0.18737   0.00000  Uiso   1.00
C408   C     0.16471   0.83274   0.16689   0.00000  Uiso   1.00
C409   C     0.33528   0.83451   0.16642   0.00000  Uiso   1.00
C410   C     0.41215   0.88360   0.18357   0.00000  Uiso   1.00
Cu411  Cu    0.25501   0.83913   0.22813   0.00000  Uiso   1.00
Cu412  Cu    0.24500   0.82754   0.10521   0.00000  Uiso   1.00
H413   H     0.37688   0.75415   0.12467   0.00000  Uiso   1.00
H414   H     0.05956   0.67065   0.21463   0.00000  Uiso   1.00
H415   H     0.03864   0.67303   0.11679   0.00000  Uiso   1.00
H416   H     0.04700   0.69935   0.05650   0.00000  Uiso   1.00
H417   H     0.45684   0.97329   0.27532   0.00000  Uiso   1.00
H418   H     0.45971   0.99482   0.21038   0.00000  Uiso   1.00
H419   H     0.17746   0.92940   0.29895   0.00000  Uiso   1.00
H420   H     0.12889   0.94655   0.00497   0.00000  Uiso   1.00
H421   H     0.14906   0.98225   0.28571   0.00000  Uiso   1.00
H422   H     0.17171   0.69980   0.05720   0.00000  Uiso   1.00
H423   H     0.21899   0.68260   0.01597   0.00000  Uiso   1.00
H424   H     0.12285   0.91526   0.19467   0.00000  Uiso   1.00
H425   H     0.22655   0.94572   0.05971   0.00000  Uiso   1.00
H426   H     0.17934   0.95613   0.10335   0.00000  Uiso   1.00
H427   H     0.36096   0.76161   0.31050   0.00000  Uiso   1.00
H428   H     0.38615   0.70157   0.29259   0.00000  Uiso   1.00
H429   H     0.40342   0.75366   0.25883   0.00000  Uiso   1.00
H430   H     0.35133   0.68018   0.18740   0.00000  Uiso   1.00
H431   H     0.33086   0.74158   0.19878   0.00000  Uiso   1.00
H432   H     0.27932   0.71653   0.27339   0.00000  Uiso   1.00
H433   H     0.30541   0.99379   0.26734   0.00000  Uiso   1.00
H434   H     0.09772   0.76270   0.29220   0.00000  Uiso   1.00
H435   H     0.37173   0.93059   0.15433   0.00000  Uiso   1.00
H436   H     0.11757   0.77053   0.03709   0.00000  Uiso   1.00
H437   H     0.08490   0.81754   0.01578   0.00000  Uiso   1.00
H438   H     0.16328   0.85930   0.03252   0.00000  Uiso   1.00
H439   H     0.14379   0.84140   0.28996   0.00000  Uiso   1.00
H440   H     0.19471   0.77332   0.26708   0.00000  Uiso   1.00
H441   H     0.18726   0.75729   0.00040   0.00000  Uiso   1.00
H442   H     0.28702   0.97932   0.02608   0.00000  Uiso   1.00
H443   H     0.32582   0.97447   0.08863   0.00000  Uiso   1.00
H444   H     0.34550   0.66999   0.03135   0.00000  Uiso   1.00
H445   H     0.36728   0.91750   0.00899   0.00000  Uiso   1.00
H446   H     0.37343   0.93405   0.22946   0.00000  Uiso   1.00
H447   H     0.32213   0.91687   0.28780   0.00000  Uiso   1.00
H448   H     0.30231   0.88876   0.06779   0.00000  Uiso   1.00
H449   H     0.32924   0.84155   0.01692   0.00000  Uiso   1.00
H450   H     0.12463   0.74032   0.19307   0.00000  Uiso   1.00
H451   H     0.12769   0.73194   0.11841   0.00000  Uiso   1.00
H452   H     0.43759   0.68230   0.04328   0.00000  Uiso   1.00
H453   H     0.43902   0.99897   0.11003   0.00000  Uiso   1.00
H454   H     0.06402   0.98798   0.28158   0.00000  Uiso   1.00
N455   N     0.23745   0.81881   0.01284   0.00000  Uiso   1.00
N456   N     0.26256   0.84786   0.32049   0.00000  Uiso   1.00
N457   N     0.39274   0.93141   0.19344   0.00000  Uiso   1.00
N458   N     0.10586   0.73696   0.15145   0.00000  Uiso   1.00
N459   N     0.43219   0.69491   0.08870   0.00000  Uiso   1.00
N460   N     0.06790   0.97504   0.23562   0.00000  Uiso   1.00
N461   N     0.02415   0.69152   0.08615   0.00000  Uiso   1.00
N462   N     0.47680   0.97888   0.24165   0.00000  Uiso   1.00
O463   O     0.25326   0.76204   0.20659   0.00000  Uiso   1.00
O464   O     0.24675   0.90462   0.12674   0.00000  Uiso   1.00
O465   O     0.24480   0.75226   0.10279   0.00000  Uiso   1.00
O466   O     0.25520   0.91441   0.23055   0.00000  Uiso   1.00
O467   O     0.18936   0.83821   0.21857   0.00000  Uiso   1.00
O468   O     0.31065   0.82845   0.11476   0.00000  Uiso   1.00
O469   O     0.18090   0.82843   0.11477   0.00000  Uiso   1.00
O470   O     0.31910   0.83824   0.21857   0.00000  Uiso   1.00
C471   C     0.74683   0.73325   0.15069   0.00000  Uiso   1.00
C472   C     0.58746   0.78477   0.15343   0.00000  Uiso   1.00
C473   C     0.88359   0.83598   0.16520   0.00000  Uiso   1.00
C474   C     0.61635   0.83214   0.16754   0.00000  Uiso   1.00
C475   C     0.90039   0.78954   0.14212   0.00000  Uiso   1.00
C476   C     0.59945   0.87955   0.18338   0.00000  Uiso   1.00
C477   C     0.94663   0.78850   0.14115   0.00000  Uiso   1.00
C478   C     0.55329   0.88087   0.18628   0.00000  Uiso   1.00
C479   C     0.97651   0.83540   0.16456   0.00000  Uiso   1.00
C480   C     0.52333   0.83383   0.16547   0.00000  Uiso   1.00
C481   C     0.95949   0.88375   0.18656   0.00000  Uiso   1.00
C482   C     0.75201   0.93326   0.18194   0.00000  Uiso   1.00
C483   C     0.54033   0.78526   0.14572   0.00000  Uiso   1.00
C484   C     0.96312   0.74127   0.11654   0.00000  Uiso   1.00
C485   C     0.53692   0.92834   0.21001   0.00000  Uiso   1.00
C486   C     0.70844   0.97562   0.08659   0.00000  Uiso   1.00
C487   C     0.69045   0.66766   0.03762   0.00000  Uiso   1.00
C488   C     0.65932   0.96201   0.32056   0.00000  Uiso   1.00
C489   C     0.79440   0.68694   0.24069   0.00000  Uiso   1.00
C490   C     0.83778   0.71044   0.22076   0.00000  Uiso   1.00
C491   C     0.87420   0.73326   0.27419   0.00000  Uiso   1.00
C492   C     0.69388   0.79150   0.31529   0.00000  Uiso   1.00
C493   C     0.50966   0.73939   0.11814   0.00000  Uiso   1.00
C494   C     0.65402   0.82451   0.32720   0.00000  Uiso   1.00
C495   C     0.61104   0.79177   0.00206   0.00000  Uiso   1.00
C496   C     0.80628   0.87203   0.02079   0.00000  Uiso   1.00
C497   C     0.83030   0.91874   0.00205   0.00000  Uiso   1.00
C498   C     0.82142   0.97200   0.03957   0.00000  Uiso   1.00
C499   C     0.99051   0.93001   0.21136   0.00000  Uiso   1.00
C500   C     0.74048   0.67664   0.14240   0.00000  Uiso   1.00
C501   C     0.75968   0.98947   0.18737   0.00000  Uiso   1.00
C502   C     0.66471   0.83274   0.16689   0.00000  Uiso   1.00
C503   C     0.83528   0.83451   0.16642   0.00000  Uiso   1.00
C504   C     0.91215   0.88360   0.18357   0.00000  Uiso   1.00
Cu505  Cu    0.75501   0.83913   0.22813   0.00000  Uiso   1.00
Cu506  Cu    0.74500   0.82754   0.10521   0.00000  Uiso   1.00
H507   H     0.87688   0.75415   0.12467   0.00000  Uiso   1.00
H508   H     0.55956   0.67065   0.21463   0.00000  Uiso   1.00
H509   H     0.53864   0.67303   0.11679   0.00000  Uiso   1.00
H510   H     0.54700   0.69935   0.05650   0.00000  Uiso   1.00
H511   H     0.95684   0.97329   0.27532   0.00000  Uiso   1.00
H512   H     0.95971   0.99482   0.21038   0.00000  Uiso   1.00
H513   H     0.67746   0.92940   0.29895   0.00000  Uiso   1.00
H514   H     0.62889   0.94655   0.00497   0.00000  Uiso   1.00
H515   H     0.64906   0.98225   0.28571   0.00000  Uiso   1.00
H516   H     0.67171   0.69980   0.05720   0.00000  Uiso   1.00
H517   H     0.71899   0.68260   0.01597   0.00000  Uiso   1.00
H518   H     0.62285   0.91526   0.19467   0.00000  Uiso   1.00
H519   H     0.72655   0.94572   0.05971   0.00000  Uiso   1.00
H520   H     0.67934   0.95613   0.10335   0.00000  Uiso   1.00
H521   H     0.86096   0.76161   0.31050   0.00000  Uiso   1.00
H522   H     0.88615   0.70157   0.29259   0.00000  Uiso   1.00
H523   H     0.90342   0.75366   0.25883   0.00000  Uiso   1.00
H524   H     0.85133   0.68018   0.18740   0.00000  Uiso   1.00
H525   H     0.83086   0.74158   0.19878   0.00000  Uiso   1.00
H526   H     0.77932   0.71653   0.27339   0.00000  Uiso   1.00
H527   H     0.80541   0.99379   0.26734   0.00000  Uiso   1.00
H528   H     0.59772   0.76270   0.29220   0.00000  Uiso   1.00
H529   H     0.87173   0.93059   0.15433   0.00000  Uiso   1.00
H530   H     0.61757   0.77053   0.03709   0.00000  Uiso   1.00
H531   H     0.58490   0.81754   0.01578   0.00000  Uiso   1.00
H532   H     0.66328   0.85930   0.03252   0.00000  Uiso   1.00
H533   H     0.64379   0.84140   0.28996   0.00000  Uiso   1.00
H534   H     0.69471   0.77332   0.26708   0.00000  Uiso   1.00
H535   H     0.68726   0.75729   0.00040   0.00000  Uiso   1.00
H536   H     0.78702   0.97932   0.02608   0.00000  Uiso   1.00
H537   H     0.82582   0.97447   0.08863   0.00000  Uiso   1.00
H538   H     0.84550   0.66999   0.03135   0.00000  Uiso   1.00
H539   H     0.86728   0.91750   0.00899   0.00000  Uiso   1.00
H540   H     0.87343   0.93405   0.22946   0.00000  Uiso   1.00
H541   H     0.82213   0.91687   0.28780   0.00000  Uiso   1.00
H542   H     0.80231   0.88876   0.06779   0.00000  Uiso   1.00
H543   H     0.82924   0.84155   0.01692   0.00000  Uiso   1.00
H544   H     0.62463   0.74032   0.19307   0.00000  Uiso   1.00
H545   H     0.62769   0.73194   0.11841   0.00000  Uiso   1.00
H546   H     0.93759   0.68230   0.04328   0.00000  Uiso   1.00
H547   H     0.93902   0.99897   0.11003   0.00000  Uiso   1.00
H548   H     0.56402   0.98798   0.28158   0.00000  Uiso   1.00
N549   N     0.73745   0.81881   0.01284   0.00000  Uiso   1.00
N550   N     0.76256   0.84786   0.32049   0.00000  Uiso   1.00
N551   N     0.89274   0.93141   0.19344   0.00000  Uiso   1.00
N552   N     0.60586   0.73696   0.15145   0.00000  Uiso   1.00
N553   N     0.93219   0.69491   0.08870   0.00000  Uiso   1.00
N554   N     0.56790   0.97504   0.23562   0.00000  Uiso   1.00
N555   N     0.52415   0.69152   0.08615   0.00000  Uiso   1.00
N556   N     0.97680   0.97888   0.24165   0.00000  Uiso   1.00
O557   O     0.75326   0.76204   0.20659   0.00000  Uiso   1.00
O558   O     0.74675   0.90462   0.12674   0.00000  Uiso   1.00
O559   O     0.74480   0.75226   0.10279   0.00000  Uiso   1.00
O560   O     0.75520   0.91441   0.23055   0.00000  Uiso   1.00
O561   O     0.68936   0.83821   0.21857   0.00000  Uiso   1.00
O562   O     0.81065   0.82845   0.11476   0.00000  Uiso   1.00
O563   O     0.68090   0.82843   0.11477   0.00000  Uiso   1.00
O564   O     0.81910   0.83824   0.21857   0.00000  Uiso   1.00
C565   C     0.24683   0.06658   0.48403   0.00000  Uiso   1.00
C566   C     0.08746   0.11811   0.48676   0.00000  Uiso   1.00
C567   C     0.38359   0.16931   0.49853   0.00000  Uiso   1.00
C568   C     0.11635   0.16548   0.50087   0.00000  Uiso   1.00
C569   C     0.40039   0.12287   0.47545   0.00000  Uiso   1.00
C570   C     0.09945   0.21288   0.51672   0.00000  Uiso   1.00
C571   C     0.44663   0.12183   0.47449   0.00000  Uiso   1.00
C572   C     0.05329   0.21421   0.51961   0.00000  Uiso   1.00
C573   C     0.47651   0.16873   0.49790   0.00000  Uiso   1.00
C574   C     0.02333   0.16716   0.49880   0.00000  Uiso   1.00
C575   C     0.45949   0.21708   0.51989   0.00000  Uiso   1.00
C576   C     0.25201   0.26660   0.51528   0.00000  Uiso   1.00
C577   C     0.04033   0.11860   0.47905   0.00000  Uiso   1.00
C578   C     0.46312   0.07460   0.44988   0.00000  Uiso   1.00
C579   C     0.03692   0.26168   0.54334   0.00000  Uiso   1.00
C580   C     0.20844   0.30895   0.41993   0.00000  Uiso   1.00
C581   C     0.19045   0.00100   0.37096   0.00000  Uiso   1.00
C582   C     0.15932   0.29535   0.65389   0.00000  Uiso   1.00
C583   C     0.29440   0.02028   0.57402   0.00000  Uiso   1.00
C584   C     0.33778   0.04377   0.55410   0.00000  Uiso   1.00
C585   C     0.37420   0.06659   0.60752   0.00000  Uiso   1.00
C586   C     0.19388   0.12484   0.64863   0.00000  Uiso   1.00
C587   C     0.00966   0.07273   0.45147   0.00000  Uiso   1.00
C588   C     0.15402   0.15785   0.66054   0.00000  Uiso   1.00
C589   C     0.11104   0.12510   0.33540   0.00000  Uiso   1.00
C590   C     0.30628   0.20537   0.35412   0.00000  Uiso   1.00
C591   C     0.33030   0.25208   0.33538   0.00000  Uiso   1.00
C592   C     0.32142   0.30533   0.37291   0.00000  Uiso   1.00
C593   C     0.49051   0.26334   0.54469   0.00000  Uiso   1.00
C594   C     0.24048   0.00997   0.47573   0.00000  Uiso   1.00
C595   C     0.25968   0.32281   0.52070   0.00000  Uiso   1.00
C596   C     0.16471   0.16607   0.50022   0.00000  Uiso   1.00
C597   C     0.33528   0.16785   0.49975   0.00000  Uiso   1.00
C598   C     0.41215   0.21693   0.51690   0.00000  Uiso   1.00
Cu599  Cu    0.25501   0.17246   0.56146   0.00000  Uiso   1.00
Cu600  Cu    0.24500   0.16087   0.43854   0.00000  Uiso   1.00
H601   H     0.37688   0.08748   0.45800   0.00000  Uiso   1.00
H602   H     0.05956   0.00398   0.54796   0.00000  Uiso   1.00
H603   H     0.03864   0.00637   0.45012   0.00000  Uiso   1.00
H604   H     0.04700   0.03269   0.38984   0.00000  Uiso   1.00
H605   H     0.45684   0.30662   0.60865   0.00000  Uiso   1.00
H606   H     0.45971   0.32815   0.54372   0.00000  Uiso   1.00
H607   H     0.17746   0.26273   0.63229   0.00000  Uiso   1.00
H608   H     0.12889   0.27988   0.33830   0.00000  Uiso   1.00
H609   H     0.14906   0.31558   0.61904   0.00000  Uiso   1.00
H610   H     0.17171   0.03314   0.39054   0.00000  Uiso   1.00
H611   H     0.21899   0.01593   0.34930   0.00000  Uiso   1.00
H612   H     0.12285   0.24860   0.52800   0.00000  Uiso   1.00
H613   H     0.22655   0.27906   0.39304   0.00000  Uiso   1.00
H614   H     0.17934   0.28946   0.43668   0.00000  Uiso   1.00
H615   H     0.36096   0.09494   0.64383   0.00000  Uiso   1.00
H616   H     0.38615   0.03490   0.62593   0.00000  Uiso   1.00
H617   H     0.40342   0.08700   0.59217   0.00000  Uiso   1.00
H618   H     0.35133   0.01352   0.52073   0.00000  Uiso   1.00
H619   H     0.33086   0.07491   0.53211   0.00000  Uiso   1.00
H620   H     0.27932   0.04987   0.60672   0.00000  Uiso   1.00
H621   H     0.30541   0.32712   0.60067   0.00000  Uiso   1.00
H622   H     0.09772   0.09603   0.62553   0.00000  Uiso   1.00
H623   H     0.37173   0.26392   0.48767   0.00000  Uiso   1.00
H624   H     0.11757   0.10386   0.37043   0.00000  Uiso   1.00
H625   H     0.08490   0.15088   0.34912   0.00000  Uiso   1.00
H626   H     0.16328   0.19263   0.36585   0.00000  Uiso   1.00
H627   H     0.14379   0.17473   0.62329   0.00000  Uiso   1.00
H628   H     0.19471   0.10665   0.60042   0.00000  Uiso   1.00
H629   H     0.18726   0.09063   0.33373   0.00000  Uiso   1.00
H630   H     0.28702   0.31265   0.35941   0.00000  Uiso   1.00
H631   H     0.32582   0.30780   0.42197   0.00000  Uiso   1.00
H632   H     0.34550   0.00333   0.36469   0.00000  Uiso   1.00
H633   H     0.36728   0.25084   0.34233   0.00000  Uiso   1.00
H634   H     0.37343   0.26739   0.56280   0.00000  Uiso   1.00
H635   H     0.32213   0.25020   0.62113   0.00000  Uiso   1.00
H636   H     0.30231   0.22209   0.40113   0.00000  Uiso   1.00
H637   H     0.32924   0.17488   0.35025   0.00000  Uiso   1.00
H638   H     0.12463   0.07365   0.52640   0.00000  Uiso   1.00
H639   H     0.12769   0.06527   0.45174   0.00000  Uiso   1.00
H640   H     0.43759   0.01564   0.37661   0.00000  Uiso   1.00
H641   H     0.43902   0.33230   0.44336   0.00000  Uiso   1.00
H642   H     0.06402   0.32132   0.61491   0.00000  Uiso   1.00
N643   N     0.23745   0.15214   0.34617   0.00000  Uiso   1.00
N644   N     0.26256   0.18119   0.65383   0.00000  Uiso   1.00
N645   N     0.39274   0.26474   0.52677   0.00000  Uiso   1.00
N646   N     0.10586   0.07030   0.48478   0.00000  Uiso   1.00
N647   N     0.43219   0.02824   0.42204   0.00000  Uiso   1.00
N648   N     0.06790   0.30838   0.56895   0.00000  Uiso   1.00
N649   N     0.02415   0.02485   0.41949   0.00000  Uiso   1.00
N650   N     0.47680   0.31222   0.57499   0.00000  Uiso   1.00
O651   O     0.25326   0.09538   0.53992   0.00000  Uiso   1.00
O652   O     0.24675   0.23796   0.46008   0.00000  Uiso   1.00
O653   O     0.24480   0.08559   0.43612   0.00000  Uiso   1.00
O654   O     0.25520   0.24774   0.56388   0.00000  Uiso   1.00
O655   O     0.18936   0.17155   0.55191   0.00000  Uiso   1.00
O656   O     0.31065   0.16179   0.44809   0.00000  Uiso   1.00
O657   O     0.18090   0.16176   0.44810   0.00000  Uiso   1.00
O658   O     0.31910   0.17157   0.55190   0.00000  Uiso   1.00
C659   C     0.74683   0.06658   0.48403   0.00000  Uiso   1.00
C660   C     0.58746   0.11811   0.48676   0.00000  Uiso   1.00
C661   C     0.88359   0.16931   0.49853   0.00000  Uiso   1.00
C662   C     0.61635   0.16548   0.50087   0.00000  Uiso   1.00
C663   C     0.90039   0.12287   0.47545   0.00000  Uiso   1.00
C664   C     0.59945   0.21288   0.51672   0.00000  Uiso   1.00
C665   C     0.94663   0.12183   0.47449   0.00000  Uiso   1.00
C666   C     0.55329   0.21421   0.51961   0.00000  Uiso   1.00
C667   C     0.97651   0.16873   0.49790   0.00000  Uiso   1.00
C668   C     0.52333   0.16716   0.49880   0.00000  Uiso   1.00
C669   C     0.95949   0.21708   0.51989   0.00000  Uiso   1.00
C670   C     0.75201   0.26660   0.51528   0.00000  Uiso   1.00
C671   C     0.54033   0.11860   0.47905   0.00000  Uiso   1.00
C672   C     0.96312   0.07460   0.44988   0.00000  Uiso   1.00
C673   C     0.53692   0.26168   0.54334   0.00000  Uiso   1.00
C674   C     0.70844   0.30895   0.41993   0.00000  Uiso   1.00
C675   C     0.69045   0.00100   0.37096   0.00000  Uiso   1.00
C676   C     0.65932   0.29535   0.65389   0.00000  Uiso   1.00
C677   C     0.79440   0.02028   0.57402   0.00000  Uiso   1.00
C678   C     0.83778   0.04377   0.55410   0.00000  Uiso   1.00
C679   C     0.87420   0.06659   0.60752   0.00000  Uiso   1.00
C680   C     0.69388   0.12484   0.64863   0.00000  Uiso   1.00
C681   C     0.50966   0.07273   0.45147   0.00000  Uiso   1.00
C682   C     0.65402   0.15785   0.66054   0.00000  Uiso   1.00
C683   C     0.61104   0.12510   0.33540   0.00000  Uiso   1.00
C684   C     0.80628   0.20537   0.35412   0.00000  Uiso   1.00
C685   C     0.83030   0.25208   0.33538   0.00000  Uiso   1.00
C686   C     0.82142   0.30533   0.37291   0.00000  Uiso   1.00
C687   C     0.99051   0.26334   0.54469   0.00000  Uiso   1.00
C688   C     0.74048   0.00997   0.47573   0.00000  Uiso   1.00
C689   C     0.75968   0.32281   0.52070   0.00000  Uiso   1.00
C690   C     0.66471   0.16607   0.50022   0.00000  Uiso   1.00
C691   C     0.83528   0.16785   0.49975   0.00000  Uiso   1.00
C692   C     0.91215   0.21693   0.51690   0.00000  Uiso   1.00
Cu693  Cu    0.75501   0.17246   0.56146   0.00000  Uiso   1.00
Cu694  Cu    0.74500   0.16087   0.43854   0.00000  Uiso   1.00
H695   H     0.87688   0.08748   0.45800   0.00000  Uiso   1.00
H696   H     0.55956   0.00398   0.54796   0.00000  Uiso   1.00
H697   H     0.53864   0.00637   0.45012   0.00000  Uiso   1.00
H698   H     0.54700   0.03269   0.38984   0.00000  Uiso   1.00
H699   H     0.95684   0.30662   0.60865   0.00000  Uiso   1.00
H700   H     0.95971   0.32815   0.54372   0.00000  Uiso   1.00
H701   H     0.67746   0.26273   0.63229   0.00000  Uiso   1.00
H702   H     0.62889   0.27988   0.33830   0.00000  Uiso   1.00
H703   H     0.64906   0.31558   0.61904   0.00000  Uiso   1.00
H704   H     0.67171   0.03314   0.39054   0.00000  Uiso   1.00
H705   H     0.71899   0.01593   0.34930   0.00000  Uiso   1.00
H706   H     0.62285   0.24860   0.52800   0.00000  Uiso   1.00
H707   H     0.72655   0.27906   0.39304   0.00000  Uiso   1.00
H708   H     0.67934   0.28946   0.43668   0.00000  Uiso   1.00
H709   H     0.86096   0.09494   0.64383   0.00000  Uiso   1.00
H710   H     0.88615   0.03490   0.62593   0.00000  Uiso   1.00
H711   H     0.90342   0.08700   0.59217   0.00000  Uiso   1.00
H712   H     0.85133   0.01352   0.52073   0.00000  Uiso   1.00
H713   H     0.83086   0.07491   0.53211   0.00000  Uiso   1.00
H714   H     0.77932   0.04987   0.60672   0.00000  Uiso   1.00
H715   H     0.80541   0.32712   0.60067   0.00000  Uiso   1.00
H716   H     0.59772   0.09603   0.62553   0.00000  Uiso   1.00
H717   H     0.87173   0.26392   0.48767   0.00000  Uiso   1.00
H718   H     0.61757   0.10386   0.37043   0.00000  Uiso   1.00
H719   H     0.58490   0.15088   0.34912   0.00000  Uiso   1.00
H720   H     0.66328   0.19263   0.36585   0.00000  Uiso   1.00
H721   H     0.64379   0.17473   0.62329   0.00000  Uiso   1.00
H722   H     0.69471   0.10665   0.60042   0.00000  Uiso   1.00
H723   H     0.68726   0.09063   0.33373   0.00000  Uiso   1.00
H724   H     0.78702   0.31265   0.35941   0.00000  Uiso   1.00
H725   H     0.82582   0.30780   0.42197   0.00000  Uiso   1.00
H726   H     0.84550   0.00333   0.36469   0.00000  Uiso   1.00
H727   H     0.86728   0.25084   0.34233   0.00000  Uiso   1.00
H728   H     0.87343   0.26739   0.56280   0.00000  Uiso   1.00
H729   H     0.82213   0.25020   0.62113   0.00000  Uiso   1.00
H730   H     0.80231   0.22209   0.40113   0.00000  Uiso   1.00
H731   H     0.82924   0.17488   0.35025   0.00000  Uiso   1.00
H732   H     0.62463   0.07365   0.52640   0.00000  Uiso   1.00
H733   H     0.62769   0.06527   0.45174   0.00000  Uiso   1.00
H734   H     0.93759   0.01564   0.37661   0.00000  Uiso   1.00
H735   H     0.93902   0.33230   0.44336   0.00000  Uiso   1.00
H736   H     0.56402   0.32132   0.61491   0.00000  Uiso   1.00
N737   N     0.73745   0.15214   0.34617   0.00000  Uiso   1.00
N738   N     0.76256   0.18119   0.65383   0.00000  Uiso   1.00
N739   N     0.89274   0.26474   0.52677   0.00000  Uiso   1.00
N740   N     0.60586   0.07030   0.48478   0.00000  Uiso   1.00
N741   N     0.93219   0.02824   0.42204   0.00000  Uiso   1.00
N742   N     0.56790   0.30838   0.56895   0.00000  Uiso   1.00
N743   N     0.52415   0.02485   0.41949   0.00000  Uiso   1.00
N744   N     0.97680   0.31222   0.57499   0.00000  Uiso   1.00
O745   O     0.75326   0.09538   0.53992   0.00000  Uiso   1.00
O746   O     0.74675   0.23796   0.46008   0.00000  Uiso   1.00
O747   O     0.74480   0.08559   0.43612   0.00000  Uiso   1.00
O748   O     0.75520   0.24774   0.56388   0.00000  Uiso   1.00
O749   O     0.68936   0.17155   0.55191   0.00000  Uiso   1.00
O750   O     0.81065   0.16179   0.44809   0.00000  Uiso   1.00
O751   O     0.68090   0.16176   0.44810   0.00000  Uiso   1.00
O752   O     0.81910   0.17157   0.55190   0.00000  Uiso   1.00
C753   C     0.24683   0.39992   0.48403   0.00000  Uiso   1.00
C754   C     0.08746   0.45144   0.48676   0.00000  Uiso   1.00
C755   C     0.38359   0.50264   0.49853   0.00000  Uiso   1.00
C756   C     0.11635   0.49881   0.50087   0.00000  Uiso   1.00
C757   C     0.40039   0.45621   0.47545   0.00000  Uiso   1.00
C758   C     0.09945   0.54621   0.51672   0.00000  Uiso   1.00
C759   C     0.44663   0.45516   0.47449   0.00000  Uiso   1.00
C760   C     0.05329   0.54754   0.51961   0.00000  Uiso   1.00
C761   C     0.47651   0.50207   0.49790   0.00000  Uiso   1.00
C762   C     0.02333   0.50050   0.49880   0.00000  Uiso   1.00
C763   C     0.45949   0.55041   0.51989   0.00000  Uiso   1.00
C764   C     0.25201   0.59993   0.51528   0.00000  Uiso   1.00
C765   C     0.04033   0.45193   0.47905   0.00000  Uiso   1.00
C766   C     0.46312   0.40794   0.44988   0.00000  Uiso   1.00
C767   C     0.03692   0.59501   0.54334   0.00000  Uiso   1.00
C768   C     0.20844   0.64228   0.41993   0.00000  Uiso   1.00
C769   C     0.19045   0.33433   0.37096   0.00000  Uiso   1.00
C770   C     0.15932   0.62868   0.65389   0.00000  Uiso   1.00
C771   C     0.29440   0.35361   0.57402   0.00000  Uiso   1.00
C772   C     0.33778   0.37711   0.55410   0.00000  Uiso   1.00
C773   C     0.37420   0.39992   0.60752   0.00000  Uiso   1.00
C774   C     0.19388   0.45817   0.64863   0.00000  Uiso   1.00
C775   C     0.00966   0.40606   0.45147   0.00000  Uiso   1.00
C776   C     0.15402   0.49118   0.66054   0.00000  Uiso   1.00
C777   C     0.11104   0.45844   0.33540   0.00000  Uiso   1.00
C778   C     0.30628   0.53870   0.35412   0.00000  Uiso   1.00
C779   C     0.33030   0.58541   0.33538   0.00000  Uiso   1.00
C780   C     0.32142   0.63866   0.37291   0.00000  Uiso   1.00
C781   C     0.49051   0.59667   0.54469   0.00000  Uiso   1.00
C782   C     0.24048   0.34330   0.47573   0.00000  Uiso   1.00
C783   C     0.25968   0.65614   0.52070   0.00000  Uiso   1.00
C784   C     0.16471   0.49940   0.50022   0.00000  Uiso   1.00
C785   C     0.33528   0.50118   0.49975   0.00000  Uiso   1.00
C786   C     0.41215   0.55026   0.51690   0.00000  Uiso   1.00
Cu787  Cu    0.25501   0.50579   0.56146   0.00000  Uiso   1.00
Cu788  Cu    0.24500   0.49421   0.43854   0.00000  Uiso   1.00
H789   H     0.37688   0.42081   0.45800   0.00000  Uiso   1.00
H790   H     0.05956   0.33732   0.54796   0.00000  Uiso   1.00
H791   H     0.03864   0.33970   0.45012   0.00000  Uiso   1.00
H792   H     0.04700   0.36602   0.38984   0.00000  Uiso   1.00
H793   H     0.45684   0.63996   0.60865   0.00000  Uiso   1.00
H794   H     0.45971   0.66149   0.54372   0.00000  Uiso   1.00
H795   H     0.17746   0.59606   0.63229   0.00000  Uiso   1.00
H796   H     0.12889   0.61321   0.33830   0.00000  Uiso   1.00
H797   H     0.14906   0.64891   0.61904   0.00000  Uiso   1.00
H798   H     0.17171   0.36647   0.39054   0.00000  Uiso   1.00
H799   H     0.21899   0.34926   0.34930   0.00000  Uiso   1.00
H800   H     0.12285   0.58193   0.52800   0.00000  Uiso   1.00
H801   H     0.22655   0.61239   0.39304   0.00000  Uiso   1.00
H802   H     0.17934   0.62279   0.43668   0.00000  Uiso   1.00
H803   H     0.36096   0.42827   0.64383   0.00000  Uiso   1.00
H804   H     0.38615   0.36824   0.62593   0.00000  Uiso   1.00
H805   H     0.40342   0.42033   0.59217   0.00000  Uiso   1.00
H806   H     0.35133   0.34685   0.52073   0.00000  Uiso   1.00
H807   H     0.33086   0.40824   0.53211   0.00000  Uiso   1.00
H808   H     0.27932   0.38320   0.60672   0.00000  Uiso   1.00
H809   H     0.30541   0.66045   0.60067   0.00000  Uiso   1.00
H810   H     0.09772   0.42937   0.62553   0.00000  Uiso   1.00
H811   H     0.37173   0.59725   0.48767   0.00000  Uiso   1.00
H812   H     0.11757   0.43719   0.37043   0.00000  Uiso   1.00
H813   H     0.08490   0.48421   0.34912   0.00000  Uiso   1.00
H814   H     0.16328   0.52596   0.36585   0.00000  Uiso   1.00
H815   H     0.14379   0.50806   0.62329   0.00000  Uiso   1.00
H816   H     0.19471   0.43999   0.60042   0.00000  Uiso   1.00
H817   H     0.18726   0.42396   0.33373   0.00000  Uiso   1.00
H818   H     0.28702   0.64599   0.35941   0.00000  Uiso   1.00
H819   H     0.32582   0.64113   0.42197   0.00000  Uiso   1.00
H820   H     0.34550   0.33666   0.36469   0.00000  Uiso   1.00
H821   H     0.36728   0.58417   0.34233   0.00000  Uiso   1.00
H822   H     0.37343   0.60072   0.56280   0.00000  Uiso   1.00
H823   H     0.32213   0.58353   0.62113   0.00000  Uiso   1.00
H824   H     0.30231   0.55543   0.40113   0.00000  Uiso   1.00
H825   H     0.32924   0.50821   0.35025   0.00000  Uiso   1.00
H826   H     0.12463   0.40698   0.52640   0.00000  Uiso   1.00
H827   H     0.12769   0.39860   0.45174   0.00000  Uiso   1.00
H828   H     0.43759   0.34897   0.37661   0.00000  Uiso   1.00
H829   H     0.43902   0.66564   0.44336   0.00000  Uiso   1.00
H830   H     0.06402   0.65465   0.61491   0.00000  Uiso   1.00
N831   N     0.23745   0.48547   0.34617   0.00000  Uiso   1.00
N832   N     0.26256   0.51453   0.65383   0.00000  Uiso   1.00
N833   N     0.39274   0.59808   0.52677   0.00000  Uiso   1.00
N834   N     0.10586   0.40363   0.48478   0.00000  Uiso   1.00
N835   N     0.43219   0.36158   0.42204   0.00000  Uiso   1.00
N836   N     0.06790   0.64171   0.56895   0.00000  Uiso   1.00
N837   N     0.02415   0.35819   0.41949   0.00000  Uiso   1.00
N838   N     0.47680   0.64555   0.57499   0.00000  Uiso   1.00
O839   O     0.25326   0.42871   0.53992   0.00000  Uiso   1.00
O840   O     0.24675   0.57129   0.46008   0.00000  Uiso   1.00
O841   O     0.24480   0.41892   0.43612   0.00000  Uiso   1.00
O842   O     0.25520   0.58108   0.56388   0.00000  Uiso   1.00
O843   O     0.18936   0.50488   0.55191   0.00000  Uiso   1.00
O844   O     0.31065   0.49512   0.44809   0.00000  Uiso   1.00
O845   O     0.18090   0.49510   0.44810   0.00000  Uiso   1.00
O846   O     0.31910   0.50490   0.55190   0.00000  Uiso   1.00
C847   C     0.74683   0.39992   0.48403   0.00000  Uiso   1.00
C848   C     0.58746   0.45144   0.48676   0.00000  Uiso   1.00
C849   C     0.88359   0.50264   0.49853   0.00000  Uiso   1.00
C850   C     0.61635   0.49881   0.50087   0.00000  Uiso   1.00
C851   C     0.90039   0.45621   0.47545   0.00000  Uiso   1.00
C852   C     0.59945   0.54621   0.51672   0.00000  Uiso   1.00
C853   C     0.94663   0.45516   0.47449   0.00000  Uiso   1.00
C854   C     0.55329   0.54754   0.51961   0.00000  Uiso   1.00
C855   C     0.97651   0.50207   0.49790   0.00000  Uiso   1.00
C856   C     0.52333   0.50050   0.49880   0.00000  Uiso   1.00
C857   C     0.95949   0.55041   0.51989   0.00000  Uiso   1.00
C858   C     0.75201   0.59993   0.51528   0.00000  Uiso   1.00
C859   C     0.54033   0.45193   0.47905   0.00000  Uiso   1.00
C860   C     0.96312   0.40794   0.44988   0.00000  Uiso   1.00
C861   C     0.53692   0.59501   0.54334   0.00000  Uiso   1.00
C862   C     0.70844   0.64228   0.41993   0.00000  Uiso   1.00
C863   C     0.69045   0.33433   0.37096   0.00000  Uiso   1.00
C864   C     0.65932   0.62868   0.65389   0.00000  Uiso   1.00
C865   C     0.79440   0.35361   0.57402   0.00000  Uiso   1.00
C866   C     0.83778   0.37711   0.55410   0.00000  Uiso   1.00
C867   C     0.87420   0.39992   0.60752   0.00000  Uiso   1.00
C868   C     0.69388   0.45817   0.64863   0.00000  Uiso   1.00
C869   C     0.50966   0.40606   0.45147   0.00000  Uiso   1.00
C870   C     0.65402   0.49118   0.66054   0.00000  Uiso   1.00
C871   C     0.61104   0.45844   0.33540   0.00000  Uiso   1.00
C872   C     0.80628   0.53870   0.35412   0.00000  Uiso   1.00
C873   C     0.83030   0.58541   0.33538   0.00000  Uiso   1.00
C874   C     0.82142   0.63866   0.37291   0.00000  Uiso   1.00
C875   C     0.99051   0.59667   0.54469   0.00000  Uiso   1.00
C876   C     0.74048   0.34330   0.47573   0.00000  Uiso   1.00
C877   C     0.75968   0.65614   0.52070   0.00000  Uiso   1.00
C878   C     0.66471   0.49940   0.50022   0.00000  Uiso   1.00
C879   C     0.83528   0.50118   0.49975   0.00000  Uiso   1.00
C880   C     0.91215   0.55026   0.51690   0.00000  Uiso   1.00
Cu881  Cu    0.75501   0.50579   0.56146   0.00000  Uiso   1.00
Cu882  Cu    0.74500   0.49421   0.43854   0.00000  Uiso   1.00
H883   H     0.87688   0.42081   0.45800   0.00000  Uiso   1.00
H884   H     0.55956   0.33732   0.54796   0.00000  Uiso   1.00
H885   H     0.53864   0.33970   0.45012   0.00000  Uiso   1.00
H886   H     0.54700   0.36602   0.38984   0.00000  Uiso   1.00
H887   H     0.95684   0.63996   0.60865   0.00000  Uiso   1.00
H888   H     0.95971   0.66149   0.54372   0.00000  Uiso   1.00
H889   H     0.67746   0.59606   0.63229   0.00000  Uiso   1.00
H890   H     0.62889   0.61321   0.33830   0.00000  Uiso   1.00
H891   H     0.64906   0.64891   0.61904   0.00000  Uiso   1.00
H892   H     0.67171   0.36647   0.39054   0.00000  Uiso   1.00
H893   H     0.71899   0.34926   0.34930   0.00000  Uiso   1.00
H894   H     0.62285   0.58193   0.52800   0.00000  Uiso   1.00
H895   H     0.72655   0.61239   0.39304   0.00000  Uiso   1.00
H896   H     0.67934   0.62279   0.43668   0.00000  Uiso   1.00
H897   H     0.86096   0.42827   0.64383   0.00000  Uiso   1.00
H898   H     0.88615   0.36824   0.62593   0.00000  Uiso   1.00
H899   H     0.90342   0.42033   0.59217   0.00000  Uiso   1.00
H900   H     0.85133   0.34685   0.52073   0.00000  Uiso   1.00
H901   H     0.83086   0.40824   0.53211   0.00000  Uiso   1.00
H902   H     0.77932   0.38320   0.60672   0.00000  Uiso   1.00
H903   H     0.80541   0.66045   0.60067   0.00000  Uiso   1.00
H904   H     0.59772   0.42937   0.62553   0.00000  Uiso   1.00
H905   H     0.87173   0.59725   0.48767   0.00000  Uiso   1.00
H906   H     0.61757   0.43719   0.37043   0.00000  Uiso   1.00
H907   H     0.58490   0.48421   0.34912   0.00000  Uiso   1.00
H908   H     0.66328   0.52596   0.36585   0.00000  Uiso   1.00
H909   H     0.64379   0.50806   0.62329   0.00000  Uiso   1.00
H910   H     0.69471   0.43999   0.60042   0.00000  Uiso   1.00
H911   H     0.68726   0.42396   0.33373   0.00000  Uiso   1.00
H912   H     0.78702   0.64599   0.35941   0.00000  Uiso   1.00
H913   H     0.82582   0.64113   0.42197   0.00000  Uiso   1.00
H914   H     0.84550   0.33666   0.36469   0.00000  Uiso   1.00
H915   H     0.86728   0.58417   0.34233   0.00000  Uiso   1.00
H916   H     0.87343   0.60072   0.56280   0.00000  Uiso   1.00
H917   H     0.82213   0.58353   0.62113   0.00000  Uiso   1.00
H918   H     0.80231   0.55543   0.40113   0.00000  Uiso   1.00
H919   H     0.82924   0.50821   0.35025   0.00000  Uiso   1.00
H920   H     0.62463   0.40698   0.52640   0.00000  Uiso   1.00
H921   H     0.62769   0.39860   0.45174   0.00000  Uiso   1.00
H922   H     0.93759   0.34897   0.37661   0.00000  Uiso   1.00
H923   H     0.93902   0.66564   0.44336   0.00000  Uiso   1.00
H924   H     0.56402   0.65465   0.61491   0.00000  Uiso   1.00
N925   N     0.73745   0.48547   0.34617   0.00000  Uiso   1.00
N926   N     0.76256   0.51453   0.65383   0.00000  Uiso   1.00
N927   N     0.89274   0.59808   0.52677   0.00000  Uiso   1.00
N928   N     0.60586   0.40363   0.48478   0.00000  Uiso   1.00
N929   N     0.93219   0.36158   0.42204   0.00000  Uiso   1.00
N930   N     0.56790   0.64171   0.56895   0.00000  Uiso   1.00
N931   N     0.52415   0.35819   0.41949   0.00000  Uiso   1.00
N932   N     0.97680   0.64555   0.57499   0.00000  Uiso   1.00
O933   O     0.75326   0.42871   0.53992   0.00000  Uiso   1.00
O934   O     0.74675   0.57129   0.46008   0.00000  Uiso   1.00
O935   O     0.74480   0.41892   0.43612   0.00000  Uiso   1.00
O936   O     0.75520   0.58108   0.56388   0.00000  Uiso   1.00
O937   O     0.68936   0.50488   0.55191   0.00000  Uiso   1.00
O938   O     0.81065   0.49512   0.44809   0.00000  Uiso   1.00
O939   O     0.68090   0.49510   0.44810   0.00000  Uiso   1.00
O940   O     0.81910   0.50490   0.55190   0.00000  Uiso   1.00
C941   C     0.24683   0.73325   0.48403   0.00000  Uiso   1.00
C942   C     0.08746   0.78477   0.48676   0.00000  Uiso   1.00
C943   C     0.38359   0.83598   0.49853   0.00000  Uiso   1.00
C944   C     0.11635   0.83214   0.50087   0.00000  Uiso   1.00
C945   C     0.40039   0.78954   0.47545   0.00000  Uiso   1.00
C946   C     0.09945   0.87955   0.51672   0.00000  Uiso   1.00
C947   C     0.44663   0.78850   0.47449   0.00000  Uiso   1.00
C948   C     0.05329   0.88087   0.51961   0.00000  Uiso   1.00
C949   C     0.47651   0.83540   0.49790   0.00000  Uiso   1.00
C950   C     0.02333   0.83383   0.49880   0.00000  Uiso   1.00
C951   C     0.45949   0.88375   0.51989   0.00000  Uiso   1.00
C952   C     0.25201   0.93326   0.51528   0.00000  Uiso   1.00
C953   C     0.04033   0.78526   0.47905   0.00000  Uiso   1.00
C954   C     0.46312   0.74127   0.44988   0.00000  Uiso   1.00
C955   C     0.03692   0.92834   0.54334   0.00000  Uiso   1.00
C956   C     0.20844   0.97562   0.41993   0.00000  Uiso   1.00
C957   C     0.19045   0.66766   0.37096   0.00000  Uiso   1.00
C958   C     0.15932   0.96201   0.65389   0.00000  Uiso   1.00
C959   C     0.29440   0.68694   0.57402   0.00000  Uiso   1.00
C960   C     0.33778   0.71044   0.55410   0.00000  Uiso   1.00
C961   C     0.37420   0.73326   0.60752   0.00000  Uiso   1.00
C962   C     0.19388   0.79150   0.64863   0.00000  Uiso   1.00
C963   C     0.00966   0.73939   0.45147   0.00000  Uiso   1.00
C964   C     0.15402   0.82451   0.66054   0.00000  Uiso   1.00
C965   C     0.11104   0.79177   0.33540   0.00000  Uiso   1.00
C966   C     0.30628   0.87203   0.35412   0.00000  Uiso   1.00
C967   C     0.33030   0.91874   0.33538   0.00000  Uiso   1.00
C968   C     0.32142   0.97200   0.37291   0.00000  Uiso   1.00
C969   C     0.49051   0.93001   0.54469   0.00000  Uiso   1.00
C970   C     0.24048   0.67664   0.47573   0.00000  Uiso   1.00
C971   C     0.25968   0.98947   0.52070   0.00000  Uiso   1.00
C972   C     0.16471   0.83274   0.50022   0.00000  Uiso   1.00
C973   C     0.33528   0.83451   0.49975   0.00000  Uiso   1.00
C974   C     0.41215   0.88360   0.51690   0.00000  Uiso   1.00
Cu975  Cu    0.25501   0.83913   0.56146   0.00000  Uiso   1.00
Cu976  Cu    0.24500   0.82754   0.43854   0.00000  Uiso   1.00
H977   H     0.37688   0.75415   0.45800   0.00000  Uiso   1.00
H978   H     0.05956   0.67065   0.54796   0.00000  Uiso   1.00
H979   H     0.03864   0.67303   0.45012   0.00000  Uiso   1.00
H980   H     0.04700   0.69935   0.38984   0.00000  Uiso   1.00
H981   H     0.45684   0.97329   0.60865   0.00000  Uiso   1.00
H982   H     0.45971   0.99482   0.54372   0.00000  Uiso   1.00
H983   H     0.17746   0.92940   0.63229   0.00000  Uiso   1.00
H984   H     0.12889   0.94655   0.33830   0.00000  Uiso   1.00
H985   H     0.14906   0.98225   0.61904   0.00000  Uiso   1.00
H986   H     0.17171   0.69980   0.39054   0.00000  Uiso   1.00
H987   H     0.21899   0.68260   0.34930   0.00000  Uiso   1.00
H988   H     0.12285   0.91526   0.52800   0.00000  Uiso   1.00
H989   H     0.22655   0.94572   0.39304   0.00000  Uiso   1.00
H990   H     0.17934   0.95613   0.43668   0.00000  Uiso   1.00
H991   H     0.36096   0.76161   0.64383   0.00000  Uiso   1.00
H992   H     0.38615   0.70157   0.62593   0.00000  Uiso   1.00
H993   H     0.40342   0.75366   0.59217   0.00000  Uiso   1.00
H994   H     0.35133   0.68018   0.52073   0.00000  Uiso   1.00
H995   H     0.33086   0.74158   0.53211   0.00000  Uiso   1.00
H996   H     0.27932   0.71653   0.60672   0.00000  Uiso   1.00
H997   H     0.30541   0.99379   0.60067   0.00000  Uiso   1.00
H998   H     0.09772   0.76270   0.62553   0.00000  Uiso   1.00
H999   H     0.37173   0.93059   0.48767   0.00000  Uiso   1.00
H1000  H     0.11757   0.77053   0.37043   0.00000  Uiso   1.00
H1001  H     0.08490   0.81754   0.34912   0.00000  Uiso   1.00
H1002  H     0.16328   0.85930   0.36585   0.00000  Uiso   1.00
H1003  H     0.14379   0.84140   0.62329   0.00000  Uiso   1.00
H1004  H     0.19471   0.77332   0.60042   0.00000  Uiso   1.00
H1005  H     0.18726   0.75729   0.33373   0.00000  Uiso   1.00
H1006  H     0.28702   0.97932   0.35941   0.00000  Uiso   1.00
H1007  H     0.32582   0.97447   0.42197   0.00000  Uiso   1.00
H1008  H     0.34550   0.66999   0.36469   0.00000  Uiso   1.00
H1009  H     0.36728   0.91750   0.34233   0.00000  Uiso   1.00
H1010  H     0.37343   0.93405   0.56280   0.00000  Uiso   1.00
H1011  H     0.32213   0.91687   0.62113   0.00000  Uiso   1.00
H1012  H     0.30231   0.88876   0.40113   0.00000  Uiso   1.00
H1013  H     0.32924   0.84155   0.35025   0.00000  Uiso   1.00
H1014  H     0.12463   0.74032   0.52640   0.00000  Uiso   1.00
H1015  H     0.12769   0.73194   0.45174   0.00000  Uiso   1.00
H1016  H     0.43759   0.68230   0.37661   0.00000  Uiso   1.00
H1017  H     0.43902   0.99897   0.44336   0.00000  Uiso   1.00
H1018  H     0.06402   0.98798   0.61491   0.00000  Uiso   1.00
N1019  N     0.23745   0.81881   0.34617   0.00000  Uiso   1.00
N1020  N     0.26256   0.84786   0.65383   0.00000  Uiso   1.00
N1021  N     0.39274   0.93141   0.52677   0.00000  Uiso   1.00
N1022  N     0.10586   0.73696   0.48478   0.00000  Uiso   1.00
N1023  N     0.43219   0.69491   0.42204   0.00000  Uiso   1.00
N1024  N     0.06790   0.97504   0.56895   0.00000  Uiso   1.00
N1025  N     0.02415   0.69152   0.41949   0.00000  Uiso   1.00
N1026  N     0.47680   0.97888   0.57499   0.00000  Uiso   1.00
O1027  O     0.25326   0.76204   0.53992   0.00000  Uiso   1.00
O1028  O     0.24675   0.90462   0.46008   0.00000  Uiso   1.00
O1029  O     0.24480   0.75226   0.43612   0.00000  Uiso   1.00
O1030  O     0.25520   0.91441   0.56388   0.00000  Uiso   1.00
O1031  O     0.18936   0.83821   0.55191   0.00000  Uiso   1.00
O1032  O     0.31065   0.82845   0.44809   0.00000  Uiso   1.00
O1033  O     0.18090   0.82843   0.44810   0.00000  Uiso   1.00
O1034  O     0.31910   0.83824   0.55190   0.00000  Uiso   1.00
C1035  C     0.74683   0.73325   0.48403   0.00000  Uiso   1.00
C1036  C     0.58746   0.78477   0.48676   0.00000  Uiso   1.00
C1037  C     0.88359   0.83598   0.49853   0.00000  Uiso   1.00
C1038  C     0.61635   0.83214   0.50087   0.00000  Uiso   1.00
C1039  C     0.90039   0.78954   0.47545   0.00000  Uiso   1.00
C1040  C     0.59945   0.87955   0.51672   0.00000  Uiso   1.00
C1041  C     0.94663   0.78850   0.47449   0.00000  Uiso   1.00
C1042  C     0.55329   0.88087   0.51961   0.00000  Uiso   1.00
C1043  C     0.97651   0.83540   0.49790   0.00000  Uiso   1.00
C1044  C     0.52333   0.83383   0.49880   0.00000  Uiso   1.00
C1045  C     0.95949   0.88375   0.51989   0.00000  Uiso   1.00
C1046  C     0.75201   0.93326   0.51528   0.00000  Uiso   1.00
C1047  C     0.54033   0.78526   0.47905   0.00000  Uiso   1.00
C1048  C     0.96312   0.74127   0.44988   0.00000  Uiso   1.00
C1049  C     0.53692   0.92834   0.54334   0.00000  Uiso   1.00
C1050  C     0.70844   0.97562   0.41993   0.00000  Uiso   1.00
C1051  C     0.69045   0.66766   0.37096   0.00000  Uiso   1.00
C1052  C     0.65932   0.96201   0.65389   0.00000  Uiso   1.00
C1053  C     0.79440   0.68694   0.57402   0.00000  Uiso   1.00
C1054  C     0.83778   0.71044   0.55410   0.00000  Uiso   1.00
C1055  C     0.87420   0.73326   0.60752   0.00000  Uiso   1.00
C1056  C     0.69388   0.79150   0.64863   0.00000  Uiso   1.00
C1057  C     0.50966   0.73939   0.45147   0.00000  Uiso   1.00
C1058  C     0.65402   0.82451   0.66054   0.00000  Uiso   1.00
C1059  C     0.61104   0.79177   0.33540   0.00000  Uiso   1.00
C1060  C     0.80628   0.87203   0.35412   0.00000  Uiso   1.00
C1061  C     0.83030   0.91874   0.33538   0.00000  Uiso   1.00
C1062  C     0.82142   0.97200   0.37291   0.00000  Uiso   1.00
C1063  C     0.99051   0.93001   0.54469   0.00000  Uiso   1.00
C1064  C     0.74048   0.67664   0.47573   0.00000  Uiso   1.00
C1065  C     0.75968   0.98947   0.52070   0.00000  Uiso   1.00
C1066  C     0.66471   0.83274   0.50022   0.00000  Uiso   1.00
C1067  C     0.83528   0.83451   0.49975   0.00000  Uiso   1.00
C1068  C     0.91215   0.88360   0.51690   0.00000  Uiso   1.00
Cu1069 Cu    0.75501   0.83913   0.56146   0.00000  Uiso   1.00
Cu1070 Cu    0.74500   0.82754   0.43854   0.00000  Uiso   1.00
H1071  H     0.87688   0.75415   0.45800   0.00000  Uiso   1.00
H1072  H     0.55956   0.67065   0.54796   0.00000  Uiso   1.00
H1073  H     0.53864   0.67303   0.45012   0.00000  Uiso   1.00
H1074  H     0.54700   0.69935   0.38984   0.00000  Uiso   1.00
H1075  H     0.95684   0.97329   0.60865   0.00000  Uiso   1.00
H1076  H     0.95971   0.99482   0.54372   0.00000  Uiso   1.00
H1077  H     0.67746   0.92940   0.63229   0.00000  Uiso   1.00
H1078  H     0.62889   0.94655   0.33830   0.00000  Uiso   1.00
H1079  H     0.64906   0.98225   0.61904   0.00000  Uiso   1.00
H1080  H     0.67171   0.69980   0.39054   0.00000  Uiso   1.00
H1081  H     0.71899   0.68260   0.34930   0.00000  Uiso   1.00
H1082  H     0.62285   0.91526   0.52800   0.00000  Uiso   1.00
H1083  H     0.72655   0.94572   0.39304   0.00000  Uiso   1.00
H1084  H     0.67934   0.95613   0.43668   0.00000  Uiso   1.00
H1085  H     0.86096   0.76161   0.64383   0.00000  Uiso   1.00
H1086  H     0.88615   0.70157   0.62593   0.00000  Uiso   1.00
H1087  H     0.90342   0.75366   0.59217   0.00000  Uiso   1.00
H1088  H     0.85133   0.68018   0.52073   0.00000  Uiso   1.00
H1089  H     0.83086   0.74158   0.53211   0.00000  Uiso   1.00
H1090  H     0.77932   0.71653   0.60672   0.00000  Uiso   1.00
H1091  H     0.80541   0.99379   0.60067   0.00000  Uiso   1.00
H1092  H     0.59772   0.76270   0.62553   0.00000  Uiso   1.00
H1093  H     0.87173   0.93059   0.48767   0.00000  Uiso   1.00
H1094  H     0.61757   0.77053   0.37043   0.00000  Uiso   1.00
H1095  H     0.58490   0.81754   0.34912   0.00000  Uiso   1.00
H1096  H     0.66328   0.85930   0.36585   0.00000  Uiso   1.00
H1097  H     0.64379   0.84140   0.62329   0.00000  Uiso   1.00
H1098  H     0.69471   0.77332   0.60042   0.00000  Uiso   1.00
H1099  H     0.68726   0.75729   0.33373   0.00000  Uiso   1.00
H1100  H     0.78702   0.97932   0.35941   0.00000  Uiso   1.00
H1101  H     0.82582   0.97447   0.42197   0.00000  Uiso   1.00
H1102  H     0.84550   0.66999   0.36469   0.00000  Uiso   1.00
H1103  H     0.86728   0.91750   0.34233   0.00000  Uiso   1.00
H1104  H     0.87343   0.93405   0.56280   0.00000  Uiso   1.00
H1105  H     0.82213   0.91687   0.62113   0.00000  Uiso   1.00
H1106  H     0.80231   0.88876   0.40113   0.00000  Uiso   1.00
H1107  H     0.82924   0.84155   0.35025   0.00000  Uiso   1.00
H1108  H     0.62463   0.74032   0.52640   0.00000  Uiso   1.00
H1109  H     0.62769   0.73194   0.45174   0.00000  Uiso   1.00
H1110  H     0.93759   0.68230   0.37661   0.00000  Uiso   1.00
H1111  H     0.93902   0.99897   0.44336   0.00000  Uiso   1.00
H1112  H     0.56402   0.98798   0.61491   0.00000  Uiso   1.00
N1113  N     0.73745   0.81881   0.34617   0.00000  Uiso   1.00
N1114  N     0.76256   0.84786   0.65383   0.00000  Uiso   1.00
N1115  N     0.89274   0.93141   0.52677   0.00000  Uiso   1.00
N1116  N     0.60586   0.73696   0.48478   0.00000  Uiso   1.00
N1117  N     0.93219   0.69491   0.42204   0.00000  Uiso   1.00
N1118  N     0.56790   0.97504   0.56895   0.00000  Uiso   1.00
N1119  N     0.52415   0.69152   0.41949   0.00000  Uiso   1.00
N1120  N     0.97680   0.97888   0.57499   0.00000  Uiso   1.00
O1121  O     0.75326   0.76204   0.53992   0.00000  Uiso   1.00
O1122  O     0.74675   0.90462   0.46008   0.00000  Uiso   1.00
O1123  O     0.74480   0.75226   0.43612   0.00000  Uiso   1.00
O1124  O     0.75520   0.91441   0.56388   0.00000  Uiso   1.00
O1125  O     0.68936   0.83821   0.55191   0.00000  Uiso   1.00
O1126  O     0.81065   0.82845   0.44809   0.00000  Uiso   1.00
O1127  O     0.68090   0.82843   0.44810   0.00000  Uiso   1.00
O1128  O     0.81910   0.83824   0.55190   0.00000  Uiso   1.00
C1129  C     0.24683   0.06658   0.81736   0.00000  Uiso   1.00
C1130  C     0.08746   0.11811   0.82009   0.00000  Uiso   1.00
C1131  C     0.38359   0.16931   0.83187   0.00000  Uiso   1.00
C1132  C     0.11635   0.16548   0.83420   0.00000  Uiso   1.00
C1133  C     0.40039   0.12287   0.80878   0.00000  Uiso   1.00
C1134  C     0.09945   0.21288   0.85005   0.00000  Uiso   1.00
C1135  C     0.44663   0.12183   0.80782   0.00000  Uiso   1.00
C1136  C     0.05329   0.21421   0.85294   0.00000  Uiso   1.00
C1137  C     0.47651   0.16873   0.83123   0.00000  Uiso   1.00
C1138  C     0.02333   0.16716   0.83214   0.00000  Uiso   1.00
C1139  C     0.45949   0.21708   0.85323   0.00000  Uiso   1.00
C1140  C     0.25201   0.26660   0.84861   0.00000  Uiso   1.00
C1141  C     0.04033   0.11860   0.81238   0.00000  Uiso   1.00
C1142  C     0.46312   0.07460   0.78321   0.00000  Uiso   1.00
C1143  C     0.03692   0.26168   0.87668   0.00000  Uiso   1.00
C1144  C     0.20844   0.30895   0.75326   0.00000  Uiso   1.00
C1145  C     0.19045   0.00100   0.70429   0.00000  Uiso   1.00
C1146  C     0.15932   0.29535   0.98723   0.00000  Uiso   1.00
C1147  C     0.29440   0.02028   0.90735   0.00000  Uiso   1.00
C1148  C     0.33778   0.04377   0.88743   0.00000  Uiso   1.00
C1149  C     0.37420   0.06659   0.94085   0.00000  Uiso   1.00
C1150  C     0.19388   0.12484   0.98196   0.00000  Uiso   1.00
C1151  C     0.00966   0.07273   0.78481   0.00000  Uiso   1.00
C1152  C     0.15402   0.15785   0.99387   0.00000  Uiso   1.00
C1153  C     0.11104   0.12510   0.66873   0.00000  Uiso   1.00
C1154  C     0.30628   0.20537   0.68745   0.00000  Uiso   1.00
C1155  C     0.33030   0.25208   0.66872   0.00000  Uiso   1.00
C1156  C     0.32142   0.30533   0.70624   0.00000  Uiso   1.00
C1157  C     0.49051   0.26334   0.87803   0.00000  Uiso   1.00
C1158  C     0.24048   0.00997   0.80907   0.00000  Uiso   1.00
C1159  C     0.25968   0.32281   0.85404   0.00000  Uiso   1.00
C1160  C     0.16471   0.16607   0.83356   0.00000  Uiso   1.00
C1161  C     0.33528   0.16785   0.83308   0.00000  Uiso   1.00
C1162  C     0.41215   0.21693   0.85024   0.00000  Uiso   1.00
Cu1163 Cu    0.25501   0.17246   0.89479   0.00000  Uiso   1.00
Cu1164 Cu    0.24500   0.16087   0.77187   0.00000  Uiso   1.00
H1165  H     0.37688   0.08748   0.79133   0.00000  Uiso   1.00
H1166  H     0.05956   0.00398   0.88129   0.00000  Uiso   1.00
H1167  H     0.03864   0.00637   0.78345   0.00000  Uiso   1.00
H1168  H     0.04700   0.03269   0.72317   0.00000  Uiso   1.00
H1169  H     0.45684   0.30662   0.94198   0.00000  Uiso   1.00
H1170  H     0.45971   0.32815   0.87705   0.00000  Uiso   1.00
H1171  H     0.17746   0.26273   0.96562   0.00000  Uiso   1.00
H1172  H     0.12889   0.27988   0.67163   0.00000  Uiso   1.00
H1173  H     0.14906   0.31558   0.95237   0.00000  Uiso   1.00
H1174  H     0.17171   0.03314   0.72387   0.00000  Uiso   1.00
H1175  H     0.21899   0.01593   0.68264   0.00000  Uiso   1.00
H1176  H     0.12285   0.24860   0.86134   0.00000  Uiso   1.00
H1177  H     0.22655   0.27906   0.72638   0.00000  Uiso   1.00
H1178  H     0.17934   0.28946   0.77001   0.00000  Uiso   1.00
H1179  H     0.36096   0.09494   0.97717   0.00000  Uiso   1.00
H1180  H     0.38615   0.03490   0.95926   0.00000  Uiso   1.00
H1181  H     0.40342   0.08700   0.92550   0.00000  Uiso   1.00
H1182  H     0.35133   0.01352   0.85406   0.00000  Uiso   1.00
H1183  H     0.33086   0.07491   0.86545   0.00000  Uiso   1.00
H1184  H     0.27932   0.04987   0.94006   0.00000  Uiso   1.00
H1185  H     0.30541   0.32712   0.93401   0.00000  Uiso   1.00
H1186  H     0.09772   0.09603   0.95887   0.00000  Uiso   1.00
H1187  H     0.37173   0.26392   0.82100   0.00000  Uiso   1.00
H1188  H     0.11757   0.10386   0.70376   0.00000  Uiso   1.00
H1189  H     0.08490   0.15088   0.68245   0.00000  Uiso   1.00
H1190  H     0.16328   0.19263   0.69919   0.00000  Uiso   1.00
H1191  H     0.14379   0.17473   0.95663   0.00000  Uiso   1.00
H1192  H     0.19471   0.10665   0.93375   0.00000  Uiso   1.00
H1193  H     0.18726   0.09063   0.66706   0.00000  Uiso   1.00
H1194  H     0.28702   0.31265   0.69274   0.00000  Uiso   1.00
H1195  H     0.32582   0.30780   0.75530   0.00000  Uiso   1.00
H1196  H     0.34550   0.00333   0.69802   0.00000  Uiso   1.00
H1197  H     0.36728   0.25084   0.67566   0.00000  Uiso   1.00
H1198  H     0.37343   0.26739   0.89613   0.00000  Uiso   1.00
H1199  H     0.32213   0.25020   0.95447   0.00000  Uiso   1.00
H1200  H     0.30231   0.22209   0.73446   0.00000  Uiso   1.00
H1201  H     0.32924   0.17488   0.68358   0.00000  Uiso   1.00
H1202  H     0.12463   0.07365   0.85973   0.00000  Uiso   1.00
H1203  H     0.12769   0.06527   0.78507   0.00000  Uiso   1.00
H1204  H     0.43759   0.01564   0.70994   0.00000  Uiso   1.00
H1205  H     0.43902   0.33230   0.77669   0.00000  Uiso   1.00
H1206  H     0.06402   0.32132   0.94825   0.00000  Uiso   1.00
N1207  N     0.23745   0.15214   0.67951   0.00000  Uiso   1.00
N1208  N     0.26256   0.18119   0.98716   0.00000  Uiso   1.00
N1209  N     0.39274   0.26474   0.86011   0.00000  Uiso   1.00
N1210  N     0.10586   0.07030   0.81812   0.00000  Uiso   1.00
N1211  N     0.43219   0.02824   0.75537   0.00000  Uiso   1.00
N1212  N     0.06790   0.30838   0.90228   0.00000  Uiso   1.00
N1213  N     0.02415   0.02485   0.75282   0.00000  Uiso   1.00
N1214  N     0.47680   0.31222   0.90832   0.00000  Uiso   1.00
O1215  O     0.25326   0.09538   0.87326   0.00000  Uiso   1.00
O1216  O     0.24675   0.23796   0.79341   0.00000  Uiso   1.00
O1217  O     0.24480   0.08559   0.76945   0.00000  Uiso   1.00
O1218  O     0.25520   0.24774   0.89721   0.00000  Uiso   1.00
O1219  O     0.18936   0.17155   0.88524   0.00000  Uiso   1.00
O1220  O     0.31065   0.16179   0.78143   0.00000  Uiso   1.00
O1221  O     0.18090   0.16176   0.78143   0.00000  Uiso   1.00
O1222  O     0.31910   0.17157   0.88523   0.00000  Uiso   1.00
C1223  C     0.74683   0.06658   0.81736   0.00000  Uiso   1.00
C1224  C     0.58746   0.11811   0.82009   0.00000  Uiso   1.00
C1225  C     0.88359   0.16931   0.83187   0.00000  Uiso   1.00
C1226  C     0.61635   0.16548   0.83420   0.00000  Uiso   1.00
C1227  C     0.90039   0.12287   0.80878   0.00000  Uiso   1.00
C1228  C     0.59945   0.21288   0.85005   0.00000  Uiso   1.00
C1229  C     0.94663   0.12183   0.80782   0.00000  Uiso   1.00
C1230  C     0.55329   0.21421   0.85294   0.00000  Uiso   1.00
C1231  C     0.97651   0.16873   0.83123   0.00000  Uiso   1.00
C1232  C     0.52333   0.16716   0.83214   0.00000  Uiso   1.00
C1233  C     0.95949   0.21708   0.85323   0.00000  Uiso   1.00
C1234  C     0.75201   0.26660   0.84861   0.00000  Uiso   1.00
C1235  C     0.54033   0.11860   0.81238   0.00000  Uiso   1.00
C1236  C     0.96312   0.07460   0.78321   0.00000  Uiso   1.00
C1237  C     0.53692   0.26168   0.87668   0.00000  Uiso   1.00
C1238  C     0.70844   0.30895   0.75326   0.00000  Uiso   1.00
C1239  C     0.69045   0.00100   0.70429   0.00000  Uiso   1.00
C1240  C     0.65932   0.29535   0.98723   0.00000  Uiso   1.00
C1241  C     0.79440   0.02028   0.90735   0.00000  Uiso   1.00
C1242  C     0.83778   0.04377   0.88743   0.00000  Uiso   1.00
C1243  C     0.87420   0.06659   0.94085   0.00000  Uiso   1.00
C1244  C     0.69388   0.12484   0.98196   0.00000  Uiso   1.00
C1245  C     0.50966   0.07273   0.78481   0.00000  Uiso   1.00
C1246  C     0.65402   0.15785   0.99387   0.00000  Uiso   1.00
C1247  C     0.61104   0.12510   0.66873   0.00000  Uiso   1.00
C1248  C     0.80628   0.20537   0.68745   0.00000  Uiso   1.00
C1249  C     0.83030   0.25208   0.66872   0.00000  Uiso   1.00
C1250  C     0.82142   0.30533   0.70624   0.00000  Uiso   1.00
C1251  C     0.99051   0.26334   0.87803   0.00000  Uiso   1.00
C1252  C     0.74048   0.00997   0.80907   0.00000  Uiso   1.00
C1253  C     0.75968   0.32281   0.85404   0.00000  Uiso   1.00
C1254  C     0.66471   0.16607   0.83356   0.00000  Uiso   1.00
C1255  C     0.83528   0.16785   0.83308   0.00000  Uiso   1.00
C1256  C     0.91215   0.21693   0.85024   0.00000  Uiso   1.00
Cu1257 Cu    0.75501   0.17246   0.89479   0.00000  Uiso   1.00
Cu1258 Cu    0.74500   0.16087   0.77187   0.00000  Uiso   1.00
H1259  H     0.87688   0.08748   0.79133   0.00000  Uiso   1.00
H1260  H     0.55956   0.00398   0.88129   0.00000  Uiso   1.00
H1261  H     0.53864   0.00637   0.78345   0.00000  Uiso   1.00
H1262  H     0.54700   0.03269   0.72317   0.00000  Uiso   1.00
H1263  H     0.95684   0.30662   0.94198   0.00000  Uiso   1.00
H1264  H     0.95971   0.32815   0.87705   0.00000  Uiso   1.00
H1265  H     0.67746   0.26273   0.96562   0.00000  Uiso   1.00
H1266  H     0.62889   0.27988   0.67163   0.00000  Uiso   1.00
H1267  H     0.64906   0.31558   0.95237   0.00000  Uiso   1.00
H1268  H     0.67171   0.03314   0.72387   0.00000  Uiso   1.00
H1269  H     0.71899   0.01593   0.68264   0.00000  Uiso   1.00
H1270  H     0.62285   0.24860   0.86134   0.00000  Uiso   1.00
H1271  H     0.72655   0.27906   0.72638   0.00000  Uiso   1.00
H1272  H     0.67934   0.28946   0.77001   0.00000  Uiso   1.00
H1273  H     0.86096   0.09494   0.97717   0.00000  Uiso   1.00
H1274  H     0.88615   0.03490   0.95926   0.00000  Uiso   1.00
H1275  H     0.90342   0.08700   0.92550   0.00000  Uiso   1.00
H1276  H     0.85133   0.01352   0.85406   0.00000  Uiso   1.00
H1277  H     0.83086   0.07491   0.86545   0.00000  Uiso   1.00
H1278  H     0.77932   0.04987   0.94006   0.00000  Uiso   1.00
H1279  H     0.80541   0.32712   0.93401   0.00000  Uiso   1.00
H1280  H     0.59772   0.09603   0.95887   0.00000  Uiso   1.00
H1281  H     0.87173   0.26392   0.82100   0.00000  Uiso   1.00
H1282  H     0.61757   0.10386   0.70376   0.00000  Uiso   1.00
H1283  H     0.58490   0.15088   0.68245   0.00000  Uiso   1.00
H1284  H     0.66328   0.19263   0.69919   0.00000  Uiso   1.00
H1285  H     0.64379   0.17473   0.95663   0.00000  Uiso   1.00
H1286  H     0.69471   0.10665   0.93375   0.00000  Uiso   1.00
H1287  H     0.68726   0.09063   0.66706   0.00000  Uiso   1.00
H1288  H     0.78702   0.31265   0.69274   0.00000  Uiso   1.00
H1289  H     0.82582   0.30780   0.75530   0.00000  Uiso   1.00
H1290  H     0.84550   0.00333   0.69802   0.00000  Uiso   1.00
H1291  H     0.86728   0.25084   0.67566   0.00000  Uiso   1.00
H1292  H     0.87343   0.26739   0.89613   0.00000  Uiso   1.00
H1293  H     0.82213   0.25020   0.95447   0.00000  Uiso   1.00
H1294  H     0.80231   0.22209   0.73446   0.00000  Uiso   1.00
H1295  H     0.82924   0.17488   0.68358   0.00000  Uiso   1.00
H1296  H     0.62463   0.07365   0.85973   0.00000  Uiso   1.00
H1297  H     0.62769   0.06527   0.78507   0.00000  Uiso   1.00
H1298  H     0.93759   0.01564   0.70994   0.00000  Uiso   1.00
H1299  H     0.93902   0.33230   0.77669   0.00000  Uiso   1.00
H1300  H     0.56402   0.32132   0.94825   0.00000  Uiso   1.00
N1301  N     0.73745   0.15214   0.67951   0.00000  Uiso   1.00
N1302  N     0.76256   0.18119   0.98716   0.00000  Uiso   1.00
N1303  N     0.89274   0.26474   0.86011   0.00000  Uiso   1.00
N1304  N     0.60586   0.07030   0.81812   0.00000  Uiso   1.00
N1305  N     0.93219   0.02824   0.75537   0.00000  Uiso   1.00
N1306  N     0.56790   0.30838   0.90228   0.00000  Uiso   1.00
N1307  N     0.52415   0.02485   0.75282   0.00000  Uiso   1.00
N1308  N     0.97680   0.31222   0.90832   0.00000  Uiso   1.00
O1309  O     0.75326   0.09538   0.87326   0.00000  Uiso   1.00
O1310  O     0.74675   0.23796   0.79341   0.00000  Uiso   1.00
O1311  O     0.74480   0.08559   0.76945   0.00000  Uiso   1.00
O1312  O     0.75520   0.24774   0.89721   0.00000  Uiso   1.00
O1313  O     0.68936   0.17155   0.88524   0.00000  Uiso   1.00
O1314  O     0.81065   0.16179   0.78143   0.00000  Uiso   1.00
O1315  O     0.68090   0.16176   0.78143   0.00000  Uiso   1.00
O1316  O     0.81910   0.17157   0.88523   0.00000  Uiso   1.00
C1317  C     0.24683   0.39992   0.81736   0.00000  Uiso   1.00
C1318  C     0.08746   0.45144   0.82009   0.00000  Uiso   1.00
C1319  C     0.38359   0.50264   0.83187   0.00000  Uiso   1.00
C1320  C     0.11635   0.49881   0.83420   0.00000  Uiso   1.00
C1321  C     0.40039   0.45621   0.80878   0.00000  Uiso   1.00
C1322  C     0.09945   0.54621   0.85005   0.00000  Uiso   1.00
C1323  C     0.44663   0.45516   0.80782   0.00000  Uiso   1.00
C1324  C     0.05329   0.54754   0.85294   0.00000  Uiso   1.00
C1325  C     0.47651   0.50207   0.83123   0.00000  Uiso   1.00
C1326  C     0.02333   0.50050   0.83214   0.00000  Uiso   1.00
C1327  C     0.45949   0.55041   0.85323   0.00000  Uiso   1.00
C1328  C     0.25201   0.59993   0.84861   0.00000  Uiso   1.00
C1329  C     0.04033   0.45193   0.81238   0.00000  Uiso   1.00
C1330  C     0.46312   0.40794   0.78321   0.00000  Uiso   1.00
C1331  C     0.03692   0.59501   0.87668   0.00000  Uiso   1.00
C1332  C     0.20844   0.64228   0.75326   0.00000  Uiso   1.00
C1333  C     0.19045   0.33433   0.70429   0.00000  Uiso   1.00
C1334  C     0.15932   0.62868   0.98723   0.00000  Uiso   1.00
C1335  C     0.29440   0.35361   0.90735   0.00000  Uiso   1.00
C1336  C     0.33778   0.37711   0.88743   0.00000  Uiso   1.00
C1337  C     0.37420   0.39992   0.94085   0.00000  Uiso   1.00
C1338  C     0.19388   0.45817   0.98196   0.00000  Uiso   1.00
C1339  C     0.00966   0.40606   0.78481   0.00000  Uiso   1.00
C1340  C     0.15402   0.49118   0.99387   0.00000  Uiso   1.00
C1341  C     0.11104   0.45844   0.66873   0.00000  Uiso   1.00
C1342  C     0.30628   0.53870   0.68745   0.00000  Uiso   1.00
C1343  C     0.33030   0.58541   0.66872   0.00000  Uiso   1.00
C1344  C     0.32142   0.63866   0.70624   0.00000  Uiso   1.00
C1345  C     0.49051   0.59667   0.87803   0.00000  Uiso   1.00
C1346  C     0.24048   0.34330   0.80907   0.00000  Uiso   1.00
C1347  C     0.25968   0.65614   0.85404   0.00000  Uiso   1.00
C1348  C     0.16471   0.49940   0.83356   0.00000  Uiso   1.00
C1349  C     0.33528   0.50118   0.83308   0.00000  Uiso   1.00
C1350  C     0.41215   0.55026   0.85024   0.00000  Uiso   1.00
Cu1351 Cu    0.25501   0.50579   0.89479   0.00000  Uiso   1.00
Cu1352 Cu    0.24500   0.49421   0.77187   0.00000  Uiso   1.00
H1353  H     0.37688   0.42081   0.79133   0.00000  Uiso   1.00
H1354  H     0.05956   0.33732   0.88129   0.00000  Uiso   1.00
H1355  H     0.03864   0.33970   0.78345   0.00000  Uiso   1.00
H1356  H     0.04700   0.36602   0.72317   0.00000  Uiso   1.00
H1357  H     0.45684   0.63996   0.94198   0.00000  Uiso   1.00
H1358  H     0.45971   0.66149   0.87705   0.00000  Uiso   1.00
H1359  H     0.17746   0.59606   0.96562   0.00000  Uiso   1.00
H1360  H     0.12889   0.61321   0.67163   0.00000  Uiso   1.00
H1361  H     0.14906   0.64891   0.95237   0.00000  Uiso   1.00
H1362  H     0.17171   0.36647   0.72387   0.00000  Uiso   1.00
H1363  H     0.21899   0.34926   0.68264   0.00000  Uiso   1.00
H1364  H     0.12285   0.58193   0.86134   0.00000  Uiso   1.00
H1365  H     0.22655   0.61239   0.72638   0.00000  Uiso   1.00
H1366  H     0.17934   0.62279   0.77001   0.00000  Uiso   1.00
H1367  H     0.36096   0.42827   0.97717   0.00000  Uiso   1.00
H1368  H     0.38615   0.36824   0.95926   0.00000  Uiso   1.00
H1369  H     0.40342   0.42033   0.92550   0.00000  Uiso   1.00
H1370  H     0.35133   0.34685   0.85406   0.00000  Uiso   1.00
H1371  H     0.33086   0.40824   0.86545   0.00000  Uiso   1.00
H1372  H     0.27932   0.38320   0.94006   0.00000  Uiso   1.00
H1373  H     0.30541   0.66045   0.93401   0.00000  Uiso   1.00
H1374  H     0.09772   0.42937   0.95887   0.00000  Uiso   1.00
H1375  H     0.37173   0.59725   0.82100   0.00000  Uiso   1.00
H1376  H     0.11757   0.43719   0.70376   0.00000  Uiso   1.00
H1377  H     0.08490   0.48421   0.68245   0.00000  Uiso   1.00
H1378  H     0.16328   0.52596   0.69919   0.00000  Uiso   1.00
H1379  H     0.14379   0.50806   0.95663   0.00000  Uiso   1.00
H1380  H     0.19471   0.43999   0.93375   0.00000  Uiso   1.00
H1381  H     0.18726   0.42396   0.66706   0.00000  Uiso   1.00
H1382  H     0.28702   0.64599   0.69274   0.00000  Uiso   1.00
H1383  H     0.32582   0.64113   0.75530   0.00000  Uiso   1.00
H1384  H     0.34550   0.33666   0.69802   0.00000  Uiso   1.00
H1385  H     0.36728   0.58417   0.67566   0.00000  Uiso   1.00
H1386  H     0.37343   0.60072   0.89613   0.00000  Uiso   1.00
H1387  H     0.32213   0.58353   0.95447   0.00000  Uiso   1.00
H1388  H     0.30231   0.55543   0.73446   0.00000  Uiso   1.00
H1389  H     0.32924   0.50821   0.68358   0.00000  Uiso   1.00
H1390  H     0.12463   0.40698   0.85973   0.00000  Uiso   1.00
H1391  H     0.12769   0.39860   0.78507   0.00000  Uiso   1.00
H1392  H     0.43759   0.34897   0.70994   0.00000  Uiso   1.00
H1393  H     0.43902   0.66564   0.77669   0.00000  Uiso   1.00
H1394  H     0.06402   0.65465   0.94825   0.00000  Uiso   1.00
N1395  N     0.23745   0.48547   0.67951   0.00000  Uiso   1.00
N1396  N     0.26256   0.51453   0.98716   0.00000  Uiso   1.00
N1397  N     0.39274   0.59808   0.86011   0.00000  Uiso   1.00
N1398  N     0.10586   0.40363   0.81812   0.00000  Uiso   1.00
N1399  N     0.43219   0.36158   0.75537   0.00000  Uiso   1.00
N1400  N     0.06790   0.64171   0.90228   0.00000  Uiso   1.00
N1401  N     0.02415   0.35819   0.75282   0.00000  Uiso   1.00
N1402  N     0.47680   0.64555   0.90832   0.00000  Uiso   1.00
O1403  O     0.25326   0.42871   0.87326   0.00000  Uiso   1.00
O1404  O     0.24675   0.57129   0.79341   0.00000  Uiso   1.00
O1405  O     0.24480   0.41892   0.76945   0.00000  Uiso   1.00
O1406  O     0.25520   0.58108   0.89721   0.00000  Uiso   1.00
O1407  O     0.18936   0.50488   0.88524   0.00000  Uiso   1.00
O1408  O     0.31065   0.49512   0.78143   0.00000  Uiso   1.00
O1409  O     0.18090   0.49510   0.78143   0.00000  Uiso   1.00
O1410  O     0.31910   0.50490   0.88523   0.00000  Uiso   1.00
C1411  C     0.74683   0.39992   0.81736   0.00000  Uiso   1.00
C1412  C     0.58746   0.45144   0.82009   0.00000  Uiso   1.00
C1413  C     0.88359   0.50264   0.83187   0.00000  Uiso   1.00
C1414  C     0.61635   0.49881   0.83420   0.00000  Uiso   1.00
C1415  C     0.90039   0.45621   0.80878   0.00000  Uiso   1.00
C1416  C     0.59945   0.54621   0.85005   0.00000  Uiso   1.00
C1417  C     0.94663   0.45516   0.80782   0.00000  Uiso   1.00
C1418  C     0.55329   0.54754   0.85294   0.00000  Uiso   1.00
C1419  C     0.97651   0.50207   0.83123   0.00000  Uiso   1.00
C1420  C     0.52333   0.50050   0.83214   0.00000  Uiso   1.00
C1421  C     0.95949   0.55041   0.85323   0.00000  Uiso   1.00
C1422  C     0.75201   0.59993   0.84861   0.00000  Uiso   1.00
C1423  C     0.54033   0.45193   0.81238   0.00000  Uiso   1.00
C1424  C     0.96312   0.40794   0.78321   0.00000  Uiso   1.00
C1425  C     0.53692   0.59501   0.87668   0.00000  Uiso   1.00
C1426  C     0.70844   0.64228   0.75326   0.00000  Uiso   1.00
C1427  C     0.69045   0.33433   0.70429   0.00000  Uiso   1.00
C1428  C     0.65932   0.62868   0.98723   0.00000  Uiso   1.00
C1429  C     0.79440   0.35361   0.90735   0.00000  Uiso   1.00
C1430  C     0.83778   0.37711   0.88743   0.00000  Uiso   1.00
C1431  C     0.87420   0.39992   0.94085   0.00000  Uiso   1.00
C1432  C     0.69388   0.45817   0.98196   0.00000  Uiso   1.00
C1433  C     0.50966   0.40606   0.78481   0.00000  Uiso   1.00
C1434  C     0.65402   0.49118   0.99387   0.00000  Uiso   1.00
C1435  C     0.61104   0.45844   0.66873   0.00000  Uiso   1.00
C1436  C     0.80628   0.53870   0.68745   0.00000  Uiso   1.00
C1437  C     0.83030   0.58541   0.66872   0.00000  Uiso   1.00
C1438  C     0.82142   0.63866   0.70624   0.00000  Uiso   1.00
C1439  C     0.99051   0.59667   0.87803   0.00000  Uiso   1.00
C1440  C     0.74048   0.34330   0.80907   0.00000  Uiso   1.00
C1441  C     0.75968   0.65614   0.85404   0.00000  Uiso   1.00
C1442  C     0.66471   0.49940   0.83356   0.00000  Uiso   1.00
C1443  C     0.83528   0.50118   0.83308   0.00000  Uiso   1.00
C1444  C     0.91215   0.55026   0.85024   0.00000  Uiso   1.00
Cu1445 Cu    0.75501   0.50579   0.89479   0.00000  Uiso   1.00
Cu1446 Cu    0.74500   0.49421   0.77187   0.00000  Uiso   1.00
H1447  H     0.87688   0.42081   0.79133   0.00000  Uiso   1.00
H1448  H     0.55956   0.33732   0.88129   0.00000  Uiso   1.00
H1449  H     0.53864   0.33970   0.78345   0.00000  Uiso   1.00
H1450  H     0.54700   0.36602   0.72317   0.00000  Uiso   1.00
H1451  H     0.95684   0.63996   0.94198   0.00000  Uiso   1.00
H1452  H     0.95971   0.66149   0.87705   0.00000  Uiso   1.00
H1453  H     0.67746   0.59606   0.96562   0.00000  Uiso   1.00
H1454  H     0.62889   0.61321   0.67163   0.00000  Uiso   1.00
H1455  H     0.64906   0.64891   0.95237   0.00000  Uiso   1.00
H1456  H     0.67171   0.36647   0.72387   0.00000  Uiso   1.00
H1457  H     0.71899   0.34926   0.68264   0.00000  Uiso   1.00
H1458  H     0.62285   0.58193   0.86134   0.00000  Uiso   1.00
H1459  H     0.72655   0.61239   0.72638   0.00000  Uiso   1.00
H1460  H     0.67934   0.62279   0.77001   0.00000  Uiso   1.00
H1461  H     0.86096   0.42827   0.97717   0.00000  Uiso   1.00
H1462  H     0.88615   0.36824   0.95926   0.00000  Uiso   1.00
H1463  H     0.90342   0.42033   0.92550   0.00000  Uiso   1.00
H1464  H     0.85133   0.34685   0.85406   0.00000  Uiso   1.00
H1465  H     0.83086   0.40824   0.86545   0.00000  Uiso   1.00
H1466  H     0.77932   0.38320   0.94006   0.00000  Uiso   1.00
H1467  H     0.80541   0.66045   0.93401   0.00000  Uiso   1.00
H1468  H     0.59772   0.42937   0.95887   0.00000  Uiso   1.00
H1469  H     0.87173   0.59725   0.82100   0.00000  Uiso   1.00
H1470  H     0.61757   0.43719   0.70376   0.00000  Uiso   1.00
H1471  H     0.58490   0.48421   0.68245   0.00000  Uiso   1.00
H1472  H     0.66328   0.52596   0.69919   0.00000  Uiso   1.00
H1473  H     0.64379   0.50806   0.95663   0.00000  Uiso   1.00
H1474  H     0.69471   0.43999   0.93375   0.00000  Uiso   1.00
H1475  H     0.68726   0.42396   0.66706   0.00000  Uiso   1.00
H1476  H     0.78702   0.64599   0.69274   0.00000  Uiso   1.00
H1477  H     0.82582   0.64113   0.75530   0.00000  Uiso   1.00
H1478  H     0.84550   0.33666   0.69802   0.00000  Uiso   1.00
H1479  H     0.86728   0.58417   0.67566   0.00000  Uiso   1.00
H1480  H     0.87343   0.60072   0.89613   0.00000  Uiso   1.00
H1481  H     0.82213   0.58353   0.95447   0.00000  Uiso   1.00
H1482  H     0.80231   0.55543   0.73446   0.00000  Uiso   1.00
H1483  H     0.82924   0.50821   0.68358   0.00000  Uiso   1.00
H1484  H     0.62463   0.40698   0.85973   0.00000  Uiso   1.00
H1485  H     0.62769   0.39860   0.78507   0.00000  Uiso   1.00
H1486  H     0.93759   0.34897   0.70994   0.00000  Uiso   1.00
H1487  H     0.93902   0.66564   0.77669   0.00000  Uiso   1.00
H1488  H     0.56402   0.65465   0.94825   0.00000  Uiso   1.00
N1489  N     0.73745   0.48547   0.67951   0.00000  Uiso   1.00
N1490  N     0.76256   0.51453   0.98716   0.00000  Uiso   1.00
N1491  N     0.89274   0.59808   0.86011   0.00000  Uiso   1.00
N1492  N     0.60586   0.40363   0.81812   0.00000  Uiso   1.00
N1493  N     0.93219   0.36158   0.75537   0.00000  Uiso   1.00
N1494  N     0.56790   0.64171   0.90228   0.00000  Uiso   1.00
N1495  N     0.52415   0.35819   0.75282   0.00000  Uiso   1.00
N1496  N     0.97680   0.64555   0.90832   0.00000  Uiso   1.00
O1497  O     0.75326   0.42871   0.87326   0.00000  Uiso   1.00
O1498  O     0.74675   0.57129   0.79341   0.00000  Uiso   1.00
O1499  O     0.74480   0.41892   0.76945   0.00000  Uiso   1.00
O1500  O     0.75520   0.58108   0.89721   0.00000  Uiso   1.00
O1501  O     0.68936   0.50488   0.88524   0.00000  Uiso   1.00
O1502  O     0.81065   0.49512   0.78143   0.00000  Uiso   1.00
O1503  O     0.68090   0.49510   0.78143   0.00000  Uiso   1.00
O1504  O     0.81910   0.50490   0.88523   0.00000  Uiso   1.00
C1505  C     0.24683   0.73325   0.81736   0.00000  Uiso   1.00
C1506  C     0.08746   0.78477   0.82009   0.00000  Uiso   1.00
C1507  C     0.38359   0.83598   0.83187   0.00000  Uiso   1.00
C1508  C     0.11635   0.83214   0.83420   0.00000  Uiso   1.00
C1509  C     0.40039   0.78954   0.80878   0.00000  Uiso   1.00
C1510  C     0.09945   0.87955   0.85005   0.00000  Uiso   1.00
C1511  C     0.44663   0.78850   0.80782   0.00000  Uiso   1.00
C1512  C     0.05329   0.88087   0.85294   0.00000  Uiso   1.00
C1513  C     0.47651   0.83540   0.83123   0.00000  Uiso   1.00
C1514  C     0.02333   0.83383   0.83214   0.00000  Uiso   1.00
C1515  C     0.45949   0.88375   0.85323   0.00000  Uiso   1.00
C1516  C     0.25201   0.93326   0.84861   0.00000  Uiso   1.00
C1517  C     0.04033   0.78526   0.81238   0.00000  Uiso   1.00
C1518  C     0.46312   0.74127   0.78321   0.00000  Uiso   1.00
C1519  C     0.03692   0.92834   0.87668   0.00000  Uiso   1.00
C1520  C     0.20844   0.97562   0.75326   0.00000  Uiso   1.00
C1521  C     0.19045   0.66766   0.70429   0.00000  Uiso   1.00
C1522  C     0.15932   0.96201   0.98723   0.00000  Uiso   1.00
C1523  C     0.29440   0.68694   0.90735   0.00000  Uiso   1.00
C1524  C     0.33778   0.71044   0.88743   0.00000  Uiso   1.00
C1525  C     0.37420   0.73326   0.94085   0.00000  Uiso   1.00
C1526  C     0.19388   0.79150   0.98196   0.00000  Uiso   1.00
C1527  C     0.00966   0.73939   0.78481   0.00000  Uiso   1.00
C1528  C     0.15402   0.82451   0.99387   0.00000  Uiso   1.00
C1529  C     0.11104   0.79177   0.66873   0.00000  Uiso   1.00
C1530  C     0.30628   0.87203   0.68745   0.00000  Uiso   1.00
C1531  C     0.33030   0.91874   0.66872   0.00000  Uiso   1.00
C1532  C     0.32142   0.97200   0.70624   0.00000  Uiso   1.00
C1533  C     0.49051   0.93001   0.87803   0.00000  Uiso   1.00
C1534  C     0.24048   0.67664   0.80907   0.00000  Uiso   1.00
C1535  C     0.25968   0.98947   0.85404   0.00000  Uiso   1.00
C1536  C     0.16471   0.83274   0.83356   0.00000  Uiso   1.00
C1537  C     0.33528   0.83451   0.83308   0.00000  Uiso   1.00
C1538  C     0.41215   0.88360   0.85024   0.00000  Uiso   1.00
Cu1539 Cu    0.25501   0.83913   0.89479   0.00000  Uiso   1.00
Cu1540 Cu    0.24500   0.82754   0.77187   0.00000  Uiso   1.00
H1541  H     0.37688   0.75415   0.79133   0.00000  Uiso   1.00
H1542  H     0.05956   0.67065   0.88129   0.00000  Uiso   1.00
H1543  H     0.03864   0.67303   0.78345   0.00000  Uiso   1.00
H1544  H     0.04700   0.69935   0.72317   0.00000  Uiso   1.00
H1545  H     0.45684   0.97329   0.94198   0.00000  Uiso   1.00
H1546  H     0.45971   0.99482   0.87705   0.00000  Uiso   1.00
H1547  H     0.17746   0.92940   0.96562   0.00000  Uiso   1.00
H1548  H     0.12889   0.94655   0.67163   0.00000  Uiso   1.00
H1549  H     0.14906   0.98225   0.95237   0.00000  Uiso   1.00
H1550  H     0.17171   0.69980   0.72387   0.00000  Uiso   1.00
H1551  H     0.21899   0.68260   0.68264   0.00000  Uiso   1.00
H1552  H     0.12285   0.91526   0.86134   0.00000  Uiso   1.00
H1553  H     0.22655   0.94572   0.72638   0.00000  Uiso   1.00
H1554  H     0.17934   0.95613   0.77001   0.00000  Uiso   1.00
H1555  H     0.36096   0.76161   0.97717   0.00000  Uiso   1.00
H1556  H     0.38615   0.70157   0.95926   0.00000  Uiso   1.00
H1557  H     0.40342   0.75366   0.92550   0.00000  Uiso   1.00
H1558  H     0.35133   0.68018   0.85406   0.00000  Uiso   1.00
H1559  H     0.33086   0.74158   0.86545   0.00000  Uiso   1.00
H1560  H     0.27932   0.71653   0.94006   0.00000  Uiso   1.00
H1561  H     0.30541   0.99379   0.93401   0.00000  Uiso   1.00
H1562  H     0.09772   0.76270   0.95887   0.00000  Uiso   1.00
H1563  H     0.37173   0.93059   0.82100   0.00000  Uiso   1.00
H1564  H     0.11757   0.77053   0.70376   0.00000  Uiso   1.00
H1565  H     0.08490   0.81754   0.68245   0.00000  Uiso   1.00
H1566  H     0.16328   0.85930   0.69919   0.00000  Uiso   1.00
H1567  H     0.14379   0.84140   0.95663   0.00000  Uiso   1.00
H1568  H     0.19471   0.77332   0.93375   0.00000  Uiso   1.00
H1569  H     0.18726   0.75729   0.66706   0.00000  Uiso   1.00
H1570  H     0.28702   0.97932   0.69274   0.00000  Uiso   1.00
H1571  H     0.32582   0.97447   0.75530   0.00000  Uiso   1.00
H1572  H     0.34550   0.66999   0.69802   0.00000  Uiso   1.00
H1573  H     0.36728   0.91750   0.67566   0.00000  Uiso   1.00
H1574  H     0.37343   0.93405   0.89613   0.00000  Uiso   1.00
H1575  H     0.32213   0.91687   0.95447   0.00000  Uiso   1.00
H1576  H     0.30231   0.88876   0.73446   0.00000  Uiso   1.00
H1577  H     0.32924   0.84155   0.68358   0.00000  Uiso   1.00
H1578  H     0.12463   0.74032   0.85973   0.00000  Uiso   1.00
H1579  H     0.12769   0.73194   0.78507   0.00000  Uiso   1.00
H1580  H     0.43759   0.68230   0.70994   0.00000  Uiso   1.00
H1581  H     0.43902   0.99897   0.77669   0.00000  Uiso   1.00
H1582  H     0.06402   0.98798   0.94825   0.00000  Uiso   1.00
N1583  N     0.23745   0.81881   0.67951   0.00000  Uiso   1.00
N1584  N     0.26256   0.84786   0.98716   0.00000  Uiso   1.00
N1585  N     0.39274   0.93141   0.86011   0.00000  Uiso   1.00
N1586  N     0.10586   0.73696   0.81812   0.00000  Uiso   1.00
N1587  N     0.43219   0.69491   0.75537   0.00000  Uiso   1.00
N1588  N     0.06790   0.97504   0.90228   0.00000  Uiso   1.00
N1589  N     0.02415   0.69152   0.75282   0.00000  Uiso   1.00
N1590  N     0.47680   0.97888   0.90832   0.00000  Uiso   1.00
O1591  O     0.25326   0.76204   0.87326   0.00000  Uiso   1.00
O1592  O     0.24675   0.90462   0.79341   0.00000  Uiso   1.00
O1593  O     0.24480   0.75226   0.76945   0.00000  Uiso   1.00
O1594  O     0.25520   0.91441   0.89721   0.00000  Uiso   1.00
O1595  O     0.18936   0.83821   0.88524   0.00000  Uiso   1.00
O1596  O     0.31065   0.82845   0.78143   0.00000  Uiso   1.00
O1597  O     0.18090   0.82843   0.78143   0.00000  Uiso   1.00
O1598  O     0.31910   0.83824   0.88523   0.00000  Uiso   1.00
C1599  C     0.74683   0.73325   0.81736   0.00000  Uiso   1.00
C1600  C     0.58746   0.78477   0.82009   0.00000  Uiso   1.00
C1601  C     0.88359   0.83598   0.83187   0.00000  Uiso   1.00
C1602  C     0.61635   0.83214   0.83420   0.00000  Uiso   1.00
C1603  C     0.90039   0.78954   0.80878   0.00000  Uiso   1.00
C1604  C     0.59945   0.87955   0.85005   0.00000  Uiso   1.00
C1605  C     0.94663   0.78850   0.80782   0.00000  Uiso   1.00
C1606  C     0.55329   0.88087   0.85294   0.00000  Uiso   1.00
C1607  C     0.97651   0.83540   0.83123   0.00000  Uiso   1.00
C1608  C     0.52333   0.83383   0.83214   0.00000  Uiso   1.00
C1609  C     0.95949   0.88375   0.85323   0.00000  Uiso   1.00
C1610  C     0.75201   0.93326   0.84861   0.00000  Uiso   1.00
C1611  C     0.54033   0.78526   0.81238   0.00000  Uiso   1.00
C1612  C     0.96312   0.74127   0.78321   0.00000  Uiso   1.00
C1613  C     0.53692   0.92834   0.87668   0.00000  Uiso   1.00
C1614  C     0.70844   0.97562   0.75326   0.00000  Uiso   1.00
C1615  C     0.69045   0.66766   0.70429   0.00000  Uiso   1.00
C1616  C     0.65932   0.96201   0.98723   0.00000  Uiso   1.00
C1617  C     0.79440   0.68694   0.90735   0.00000  Uiso   1.00
C1618  C     0.83778   0.71044   0.88743   0.00000  Uiso   1.00
C1619  C     0.87420   0.73326   0.94085   0.00000  Uiso   1.00
C1620  C     0.69388   0.79150   0.98196   0.00000  Uiso   1.00
C1621  C     0.50966   0.73939   0.78481   0.00000  Uiso   1.00
C1622  C     0.65402   0.82451   0.99387   0.00000  Uiso   1.00
C1623  C     0.61104   0.79177   0.66873   0.00000  Uiso   1.00
C1624  C     0.80628   0.87203   0.68745   0.00000  Uiso   1.00
C1625  C     0.83030   0.91874   0.66872   0.00000  Uiso   1.00
C1626  C     0.82142   0.97200   0.70624   0.00000  Uiso   1.00
C1627  C     0.99051   0.93001   0.87803   0.00000  Uiso   1.00
C1628  C     0.74048   0.67664   0.80907   0.00000  Uiso   1.00
C1629  C     0.75968   0.98947   0.85404   0.00000  Uiso   1.00
C1630  C     0.66471   0.83274   0.83356   0.00000  Uiso   1.00
C1631  C     0.83528   0.83451   0.83308   0.00000  Uiso   1.00
C1632  C     0.91215   0.88360   0.85024   0.00000  Uiso   1.00
Cu1633 Cu    0.75501   0.83913   0.89479   0.00000  Uiso   1.00
Cu1634 Cu    0.74500   0.82754   0.77187   0.00000  Uiso   1.00
H1635  H     0.87688   0.75415   0.79133   0.00000  Uiso   1.00
H1636  H     0.55956   0.67065   0.88129   0.00000  Uiso   1.00
H1637  H     0.53864   0.67303   0.78345   0.00000  Uiso   1.00
H1638  H     0.54700   0.69935   0.72317   0.00000  Uiso   1.00
H1639  H     0.95684   0.97329   0.94198   0.00000  Uiso   1.00
H1640  H     0.95971   0.99482   0.87705   0.00000  Uiso   1.00
H1641  H     0.67746   0.92940   0.96562   0.00000  Uiso   1.00
H1642  H     0.62889   0.94655   0.67163   0.00000  Uiso   1.00
H1643  H     0.64906   0.98225   0.95237   0.00000  Uiso   1.00
H1644  H     0.67171   0.69980   0.72387   0.00000  Uiso   1.00
H1645  H     0.71899   0.68260   0.68264   0.00000  Uiso   1.00
H1646  H     0.62285   0.91526   0.86134   0.00000  Uiso   1.00
H1647  H     0.72655   0.94572   0.72638   0.00000  Uiso   1.00
H1648  H     0.67934   0.95613   0.77001   0.00000  Uiso   1.00
H1649  H     0.86096   0.76161   0.97717   0.00000  Uiso   1.00
H1650  H     0.88615   0.70157   0.95926   0.00000  Uiso   1.00
H1651  H     0.90342   0.75366   0.92550   0.00000  Uiso   1.00
H1652  H     0.85133   0.68018   0.85406   0.00000  Uiso   1.00
H1653  H     0.83086   0.74158   0.86545   0.00000  Uiso   1.00
H1654  H     0.77932   0.71653   0.94006   0.00000  Uiso   1.00
H1655  H     0.80541   0.99379   0.93401   0.00000  Uiso   1.00
H1656  H     0.59772   0.76270   0.95887   0.00000  Uiso   1.00
H1657  H     0.87173   0.93059   0.82100   0.00000  Uiso   1.00
H1658  H     0.61757   0.77053   0.70376   0.00000  Uiso   1.00
H1659  H     0.58490   0.81754   0.68245   0.00000  Uiso   1.00
H1660  H     0.66328   0.85930   0.69919   0.00000  Uiso   1.00
H1661  H     0.64379   0.84140   0.95663   0.00000  Uiso   1.00
H1662  H     0.69471   0.77332   0.93375   0.00000  Uiso   1.00
H1663  H     0.68726   0.75729   0.66706   0.00000  Uiso   1.00
H1664  H     0.78702   0.97932   0.69274   0.00000  Uiso   1.00
H1665  H     0.82582   0.97447   0.75530   0.00000  Uiso   1.00
H1666  H     0.84550   0.66999   0.69802   0.00000  Uiso   1.00
H1667  H     0.86728   0.91750   0.67566   0.00000  Uiso   1.00
H1668  H     0.87343   0.93405   0.89613   0.00000  Uiso   1.00
H1669  H     0.82213   0.91687   0.95447   0.00000  Uiso   1.00
H1670  H     0.80231   0.88876   0.73446   0.00000  Uiso   1.00
H1671  H     0.82924   0.84155   0.68358   0.00000  Uiso   1.00
H1672  H     0.62463   0.74032   0.85973   0.00000  Uiso   1.00
H1673  H     0.62769   0.73194   0.78507   0.00000  Uiso   1.00
H1674  H     0.93759   0.68230   0.70994   0.00000  Uiso   1.00
H1675  H     0.93902   0.99897   0.77669   0.00000  Uiso   1.00
H1676  H     0.56402   0.98798   0.94825   0.00000  Uiso   1.00
N1677  N     0.73745   0.81881   0.67951   0.00000  Uiso   1.00
N1678  N     0.76256   0.84786   0.98716   0.00000  Uiso   1.00
N1679  N     0.89274   0.93141   0.86011   0.00000  Uiso   1.00
N1680  N     0.60586   0.73696   0.81812   0.00000  Uiso   1.00
N1681  N     0.93219   0.69491   0.75537   0.00000  Uiso   1.00
N1682  N     0.56790   0.97504   0.90228   0.00000  Uiso   1.00
N1683  N     0.52415   0.69152   0.75282   0.00000  Uiso   1.00
N1684  N     0.97680   0.97888   0.90832   0.00000  Uiso   1.00
O1685  O     0.75326   0.76204   0.87326   0.00000  Uiso   1.00
O1686  O     0.74675   0.90462   0.79341   0.00000  Uiso   1.00
O1687  O     0.74480   0.75226   0.76945   0.00000  Uiso   1.00
O1688  O     0.75520   0.91441   0.89721   0.00000  Uiso   1.00
O1689  O     0.68936   0.83821   0.88524   0.00000  Uiso   1.00
O1690  O     0.81065   0.82845   0.78143   0.00000  Uiso   1.00
O1691  O     0.68090   0.82843   0.78143   0.00000  Uiso   1.00
O1692  O     0.81910   0.83824   0.88523   0.00000  Uiso   1.00
loop_
_geom_bond_atom_site_label_1
_geom_bond_atom_site_label_2
_geom_bond_distance
_geom_bond_site_symmetry_2
_ccdc_geom_bond_type
C1     O87     1.308   .     A
C1     O89     1.316   .     A
C1     C30     1.462   .     S
C2     C13     1.412   .     A
C2     C4      1.404   .     A
C2     N82     1.432   .     S
C3     C33     1.448   .     S
C3     C34     1.403   .     A
C3     C5      1.385   .     A
C4     C32     1.451   .     S
C4     C6      1.387   .     A
C5     H37     1.083   .     S
C5     C7      1.392   .     A
C6     H48     1.083   .     S
C6     C8      1.396   .     A
C7     C14     1.405   .     A
C7     C9      1.416   .     A
C8     C15     1.405   .     A
C8     C10     1.415   .     A
C9     C11     1.427   .     A
C9     C104    1.408   .     S
C10    C13     1.424   .     A
C10    C103    1.408   1_455 S
C11    C34     1.415   .     A
C11    C29     1.426   .     A
C12    O90     1.329   .     A
C12    O88     1.294   .     A
C12    C31     1.463   .     S
C13    C23     1.423   .     A
C14    N83     1.437   .     S
C14    C117    1.400   .     S
C15    N84     1.436   .     S
C15    C123    1.400   1_455 S
C16    H50     1.113   .     S
C16    H49     1.103   .     S
C16    C205    1.534   .     S
C16    C218    1.559   .     S
C17    H47     1.111   .     S
C17    H46     1.098   .     S
C17    C392    1.534   1_545 S
C17    C1522   1.520   1_544 S
C18    H45     1.108   .     S
C18    H43     1.109   .     S
C18    C769    1.520   .     S
C18    H608    1.111   .     S
C19    H56     1.109   .     S
C19    C20     1.537   .     S
C19    C407    1.538   1_545 S
C19    H433    1.098   1_545 S
C20    H55     1.099   .     S
C20    H54     1.104   .     S
C20    C21     1.527   .     S
C21    H51     1.110   .     S
C21    H53     1.110   .     S
C21    H52     1.109   .     S
C22    C24     1.561   .     S
C22    H64     1.096   .     S
C22    H629    1.101   .     S
C22    N643    1.459   .     S
C23    N85     1.437   .     S
C23    C108    1.400   1_455 S
C24    H63     1.094   .     S
C24    C589    1.531   .     S
C24    H626    1.105   .     S
C25    H61     1.111   .     S
C25    H60     1.105   .     S
C25    C1152   1.531   1_554 S
C25    H1186   1.110   1_554 S
C26    H72     1.082   .     S
C26    C27     1.541   .     S
C26    H73     1.111   .     S
C26    N1208   1.462   1_554 S
C27    H69     1.113   .     S
C27    C28     1.530   .     S
C27    H1199   1.085   1_554 S
C28    H66     1.103   .     S
C28    H67     1.106   .     S
C28    H256    1.108   .     S
C29    N86     1.436   .     S
C29    C109    1.400   .     S
C30    C392    1.559   1_545 S
C30    C407    1.390   1_545 S
C31    C218    1.390   .     S
C31    C207    1.538   .     S
C32    O91     1.309   .     A
C32    O93     1.311   .     A
C33    O94     1.313   .     A
C33    O92     1.306   .     A
C34    N81     1.431   .     S
Cu35   Cu36    2.744   .     S
Cu35   N80     2.062   .     S
Cu35   O87     1.984   .     S
Cu35   O94     1.955   .     S
Cu35   O90     1.991   .     S
Cu35   O91     1.960   .     S
Cu36   O89     1.991   .     S
Cu36   O88     1.984   .     S
Cu36   O93     1.955   .     S
Cu36   O92     1.960   .     S
Cu36   N79     2.062   .     S
H38    N460    1.044   1_545 S
H39    N85     1.042   .     S
H40    N85     1.045   .     S
H41    N86     1.045   .     S
H42    N86     1.043   .     S
H44    C1146   1.111   1_554 S
H57    C207    1.098   .     S
H58    C589    1.110   .     S
H59    N81     1.045   .     S
H62    C1152   1.105   1_554 S
H65    C1150   1.101   1_554 S
H68    C404    1.108   1_545 S
H70    N81     1.041   .     S
H71    C591    1.085   .     S
H74    N82     1.045   .     S
H75    N82     1.036   .     S
H76    N83     1.045   .     S
H77    N271    1.045   .     S
H78    N84     1.046   .     S
N79    C1150   1.459   1_554 S
N79    N1208   1.299   1_554 S
N80    N643    1.299   .     S
N80    C590    1.462   .     S
N83    H453    1.045   1_545 S
N84    H226    1.044   .     S
C95    O181    1.308   .     A
C95    O183    1.316   .     A
C95    C124    1.462   .     S
C96    C107    1.412   .     A
C96    C98     1.404   .     A
C96    N176    1.432   .     S
C97    C127    1.448   .     S
C97    C128    1.403   .     A
C97    C99     1.385   .     A
C98    C126    1.451   .     S
C98    C100    1.387   .     A
C99    H131    1.083   .     S
C99    C101    1.392   .     A
C100   H142    1.083   .     S
C100   C102    1.396   .     A
C101   C108    1.405   .     A
C101   C103    1.416   .     A
C102   C109    1.405   .     A
C102   C104    1.415   .     A
C103   C105    1.427   .     A
C103   C10     1.408   1_655 S
C104   C107    1.424   .     A
C105   C128    1.415   .     A
C105   C123    1.426   .     A
C106   O184    1.329   .     A
C106   O182    1.294   .     A
C106   C125    1.463   .     S
C107   C117    1.423   .     A
C108   N177    1.437   .     S
C108   C23     1.400   1_655 S
C109   N178    1.436   .     S
C110   H144    1.113   .     S
C110   H143    1.103   .     S
C110   C299    1.534   .     S
C110   C312    1.559   .     S
C111   H141    1.111   .     S
C111   H140    1.098   .     S
C111   C486    1.534   1_545 S
C111   C1616   1.520   1_544 S
C112   H139    1.108   .     S
C112   H137    1.109   .     S
C112   C863    1.520   .     S
C112   H702    1.111   .     S
C113   H150    1.109   .     S
C113   C114    1.537   .     S
C113   C501    1.538   1_545 S
C113   H527    1.098   1_545 S
C114   H149    1.099   .     S
C114   H148    1.104   .     S
C114   C115    1.527   .     S
C115   H145    1.110   .     S
C115   H147    1.110   .     S
C115   H146    1.109   .     S
C116   C118    1.561   .     S
C116   H158    1.096   .     S
C116   H723    1.101   .     S
C116   N737    1.459   .     S
C117   N179    1.437   .     S
C118   H157    1.094   .     S
C118   C683    1.531   .     S
C118   H720    1.105   .     S
C119   H155    1.111   .     S
C119   H154    1.105   .     S
C119   C1246   1.531   1_554 S
C119   H1280   1.110   1_554 S
C120   H166    1.082   .     S
C120   C121    1.541   .     S
C120   H167    1.111   .     S
C120   N1302   1.462   1_554 S
C121   H163    1.113   .     S
C121   C122    1.530   .     S
C121   H1293   1.085   1_554 S
C122   H160    1.103   .     S
C122   H161    1.106   .     S
C122   H350    1.108   .     S
C123   N180    1.436   .     S
C123   C15     1.400   1_655 S
C124   C486    1.559   1_545 S
C124   C501    1.390   1_545 S
C125   C312    1.390   .     S
C125   C301    1.538   .     S
C126   O185    1.309   .     A
C126   O187    1.311   .     A
C127   O188    1.313   .     A
C127   O186    1.306   .     A
C128   N175    1.431   .     S
Cu129  Cu130   2.744   .     S
Cu129  N174    2.062   .     S
Cu129  O181    1.984   .     S
Cu129  O188    1.955   .     S
Cu129  O184    1.991   .     S
Cu129  O185    1.960   .     S
Cu130  O183    1.991   .     S
Cu130  O182    1.984   .     S
Cu130  O187    1.955   .     S
Cu130  O186    1.960   .     S
Cu130  N173    2.062   .     S
H132   N554    1.044   1_545 S
H133   N179    1.042   .     S
H134   N179    1.045   .     S
H135   N180    1.045   .     S
H136   N180    1.043   .     S
H138   C1240   1.111   1_554 S
H151   C301    1.098   .     S
H152   C683    1.110   .     S
H153   N175    1.045   .     S
H156   C1246   1.105   1_554 S
H159   C1244   1.101   1_554 S
H162   C498    1.108   1_545 S
H164   N175    1.041   .     S
H165   C685    1.085   .     S
H168   N176    1.045   .     S
H169   N176    1.036   .     S
H170   N177    1.045   .     S
H171   N365    1.045   .     S
H172   N178    1.046   .     S
N173   C1244   1.459   1_554 S
N173   N1302   1.299   1_554 S
N174   N737    1.299   .     S
N174   C684    1.462   .     S
N177   H547    1.045   1_545 S
N178   H320    1.044   .     S
C189   O275    1.308   .     A
C189   O277    1.316   .     A
C189   C218    1.462   .     S
C190   C201    1.412   .     A
C190   C192    1.404   .     A
C190   N270    1.432   .     S
C191   C221    1.448   .     S
C191   C222    1.403   .     A
C191   C193    1.385   .     A
C192   C220    1.451   .     S
C192   C194    1.387   .     A
C193   H225    1.083   .     S
C193   C195    1.392   .     A
C194   H236    1.083   .     S
C194   C196    1.396   .     A
C195   C202    1.405   .     A
C195   C197    1.416   .     A
C196   C203    1.405   .     A
C196   C198    1.415   .     A
C197   C199    1.427   .     A
C197   C292    1.408   .     S
C198   C201    1.424   .     A
C198   C291    1.408   1_455 S
C199   C222    1.415   .     A
C199   C217    1.426   .     A
C200   O278    1.329   .     A
C200   O276    1.294   .     A
C200   C219    1.463   .     S
C201   C211    1.423   .     A
C202   N271    1.437   .     S
C202   C305    1.400   .     S
C203   N272    1.436   .     S
C203   C311    1.400   1_455 S
C204   H238    1.113   .     S
C204   H237    1.103   .     S
C204   C393    1.534   .     S
C204   C406    1.559   .     S
C205   H235    1.111   .     S
C205   H234    1.098   .     S
C205   C1146   1.520   1_554 S
C206   H233    1.108   .     S
C206   H231    1.109   .     S
C206   C957    1.520   .     S
C206   H796    1.111   .     S
C207   H244    1.109   .     S
C207   C208    1.537   .     S
C208   H243    1.099   .     S
C208   H242    1.104   .     S
C208   C209    1.527   .     S
C209   H239    1.110   .     S
C209   H241    1.110   .     S
C209   H240    1.109   .     S
C210   C212    1.561   .     S
C210   H252    1.096   .     S
C210   H817    1.101   .     S
C210   N831    1.459   .     S
C211   N273    1.437   .     S
C211   C296    1.400   1_455 S
C212   H251    1.094   .     S
C212   C777    1.531   .     S
C212   H814    1.105   .     S
C213   H249    1.111   .     S
C213   H248    1.105   .     S
C213   C1340   1.531   1_554 S
C213   H1374   1.110   1_554 S
C214   H260    1.082   .     S
C214   C215    1.541   .     S
C214   H261    1.111   .     S
C214   N1396   1.462   1_554 S
C215   H257    1.113   .     S
C215   C216    1.530   .     S
C215   H1387   1.085   1_554 S
C216   H254    1.103   .     S
C216   H255    1.106   .     S
C216   H444    1.108   .     S
C217   N274    1.436   .     S
C217   C297    1.400   .     S
C219   C406    1.390   .     S
C219   C395    1.538   .     S
C220   O279    1.309   .     A
C220   O281    1.311   .     A
C221   O282    1.313   .     A
C221   O280    1.306   .     A
C222   N269    1.431   .     S
Cu223  Cu224   2.744   .     S
Cu223  N268    2.062   .     S
Cu223  O275    1.984   .     S
Cu223  O282    1.955   .     S
Cu223  O278    1.991   .     S
Cu223  O279    1.960   .     S
Cu224  O277    1.991   .     S
Cu224  O276    1.984   .     S
Cu224  O281    1.955   .     S
Cu224  O280    1.960   .     S
Cu224  N267    2.062   .     S
H227   N273    1.042   .     S
H228   N273    1.045   .     S
H229   N274    1.045   .     S
H230   N274    1.043   .     S
H232   C1334   1.111   1_554 S
H245   C395    1.098   .     S
H246   C777    1.110   .     S
H247   N269    1.045   .     S
H250   C1340   1.105   1_554 S
H253   C1338   1.101   1_554 S
H258   N269    1.041   .     S
H259   C779    1.085   .     S
H262   N270    1.045   .     S
H263   N270    1.036   .     S
H264   N271    1.045   .     S
H265   N459    1.045   .     S
H266   N272    1.046   .     S
N267   C1338   1.459   1_554 S
N267   N1396   1.299   1_554 S
N268   N831    1.299   .     S
N268   C778    1.462   .     S
N272   H414    1.044   .     S
C283   O369    1.308   .     A
C283   O371    1.316   .     A
C283   C312    1.462   .     S
C284   C295    1.412   .     A
C284   C286    1.404   .     A
C284   N364    1.432   .     S
C285   C315    1.448   .     S
C285   C316    1.403   .     A
C285   C287    1.385   .     A
C286   C314    1.451   .     S
C286   C288    1.387   .     A
C287   H319    1.083   .     S
C287   C289    1.392   .     A
C288   H330    1.083   .     S
C288   C290    1.396   .     A
C289   C296    1.405   .     A
C289   C291    1.416   .     A
C290   C297    1.405   .     A
C290   C292    1.415   .     A
C291   C293    1.427   .     A
C291   C198    1.408   1_655 S
C292   C295    1.424   .     A
C293   C316    1.415   .     A
C293   C311    1.426   .     A
C294   O372    1.329   .     A
C294   O370    1.294   .     A
C294   C313    1.463   .     S
C295   C305    1.423   .     A
C296   N365    1.437   .     S
C296   C211    1.400   1_655 S
C297   N366    1.436   .     S
C298   H332    1.113   .     S
C298   H331    1.103   .     S
C298   C487    1.534   .     S
C298   C500    1.559   .     S
C299   H329    1.111   .     S
C299   H328    1.098   .     S
C299   C1240   1.520   1_554 S
C300   H327    1.108   .     S
C300   H325    1.109   .     S
C300   C1051   1.520   .     S
C300   H890    1.111   .     S
C301   H338    1.109   .     S
C301   C302    1.537   .     S
C302   H337    1.099   .     S
C302   H336    1.104   .     S
C302   C303    1.527   .     S
C303   H333    1.110   .     S
C303   H335    1.110   .     S
C303   H334    1.109   .     S
C304   C306    1.561   .     S
C304   H346    1.096   .     S
C304   H911    1.101   .     S
C304   N925    1.459   .     S
C305   N367    1.437   .     S
C306   H345    1.094   .     S
C306   C871    1.531   .     S
C306   H908    1.105   .     S
C307   H343    1.111   .     S
C307   H342    1.105   .     S
C307   C1434   1.531   1_554 S
C307   H1468   1.110   1_554 S
C308   H354    1.082   .     S
C308   C309    1.541   .     S
C308   H355    1.111   .     S
C308   N1490   1.462   1_554 S
C309   H351    1.113   .     S
C309   C310    1.530   .     S
C309   H1481   1.085   1_554 S
C310   H348    1.103   .     S
C310   H349    1.106   .     S
C310   H538    1.108   .     S
C311   N368    1.436   .     S
C311   C203    1.400   1_655 S
C313   C500    1.390   .     S
C313   C489    1.538   .     S
C314   O373    1.309   .     A
C314   O375    1.311   .     A
C315   O376    1.313   .     A
C315   O374    1.306   .     A
C316   N363    1.431   .     S
Cu317  Cu318   2.744   .     S
Cu317  N362    2.062   .     S
Cu317  O369    1.984   .     S
Cu317  O376    1.955   .     S
Cu317  O372    1.991   .     S
Cu317  O373    1.960   .     S
Cu318  O371    1.991   .     S
Cu318  O370    1.984   .     S
Cu318  O375    1.955   .     S
Cu318  O374    1.960   .     S
Cu318  N361    2.062   .     S
H321   N367    1.042   .     S
H322   N367    1.045   .     S
H323   N368    1.045   .     S
H324   N368    1.043   .     S
H326   C1428   1.111   1_554 S
H339   C489    1.098   .     S
H340   C871    1.110   .     S
H341   N363    1.045   .     S
H344   C1434   1.105   1_554 S
H347   C1432   1.101   1_554 S
H352   N363    1.041   .     S
H353   C873    1.085   .     S
H356   N364    1.045   .     S
H357   N364    1.036   .     S
H358   N365    1.045   .     S
H359   N553    1.045   .     S
H360   N366    1.046   .     S
N361   C1432   1.459   1_554 S
N361   N1490   1.299   1_554 S
N362   N925    1.299   .     S
N362   C872    1.462   .     S
N366   H508    1.044   .     S
C377   O463    1.308   .     A
C377   O465    1.316   .     A
C377   C406    1.462   .     S
C378   C389    1.412   .     A
C378   C380    1.404   .     A
C378   N458    1.432   .     S
C379   C409    1.448   .     S
C379   C410    1.403   .     A
C379   C381    1.385   .     A
C380   C408    1.451   .     S
C380   C382    1.387   .     A
C381   H413    1.083   .     S
C381   C383    1.392   .     A
C382   H424    1.083   .     S
C382   C384    1.396   .     A
C383   C390    1.405   .     A
C383   C385    1.416   .     A
C384   C391    1.405   .     A
C384   C386    1.415   .     A
C385   C387    1.427   .     A
C385   C480    1.408   .     S
C386   C389    1.424   .     A
C386   C479    1.408   1_455 S
C387   C410    1.415   .     A
C387   C405    1.426   .     A
C388   O466    1.329   .     A
C388   O464    1.294   .     A
C388   C407    1.463   .     S
C389   C399    1.423   .     A
C390   N459    1.437   .     S
C390   C493    1.400   .     S
C391   N460    1.436   .     S
C391   C499    1.400   1_455 S
C392   H426    1.113   .     S
C392   H425    1.103   .     S
C392   C17     1.534   1_565 S
C392   C30     1.559   1_565 S
C393   H423    1.111   .     S
C393   H422    1.098   .     S
C393   C1334   1.520   1_554 S
C394   H421    1.108   .     S
C394   H419    1.109   .     S
C394   C581    1.520   1_565 S
C394   H984    1.111   .     S
C395   H432    1.109   .     S
C395   C396    1.537   .     S
C396   H431    1.099   .     S
C396   H430    1.104   .     S
C396   C397    1.527   .     S
C397   H427    1.110   .     S
C397   H429    1.110   .     S
C397   H428    1.109   .     S
C398   C400    1.561   .     S
C398   H440    1.096   .     S
C398   H1005   1.101   .     S
C398   N1019   1.459   .     S
C399   N461    1.437   .     S
C399   C484    1.400   1_455 S
C400   H439    1.094   .     S
C400   C965    1.531   .     S
C400   H1002   1.105   .     S
C401   H437    1.111   .     S
C401   H436    1.105   .     S
C401   C1528   1.531   1_554 S
C401   H1562   1.110   1_554 S
C402   H448    1.082   .     S
C402   C403    1.541   .     S
C402   H449    1.111   .     S
C402   N1584   1.462   1_554 S
C403   H445    1.113   .     S
C403   C404    1.530   .     S
C403   H1575   1.085   1_554 S
C404   H442    1.103   .     S
C404   H443    1.106   .     S
C404   H68     1.108   1_565 S
C405   N462    1.436   .     S
C405   C485    1.400   .     S
C407   C30     1.390   1_565 S
C407   C19     1.538   1_565 S
C408   O467    1.309   .     A
C408   O469    1.311   .     A
C409   O470    1.313   .     A
C409   O468    1.306   .     A
C410   N457    1.431   .     S
Cu411  Cu412   2.744   .     S
Cu411  N456    2.062   .     S
Cu411  O463    1.984   .     S
Cu411  O470    1.955   .     S
Cu411  O466    1.991   .     S
Cu411  O467    1.960   .     S
Cu412  O465    1.991   .     S
Cu412  O464    1.984   .     S
Cu412  O469    1.955   .     S
Cu412  O468    1.960   .     S
Cu412  N455    2.062   .     S
H415   N461    1.042   .     S
H416   N461    1.045   .     S
H417   N462    1.045   .     S
H418   N462    1.043   .     S
H420   C1522   1.111   1_554 S
H433   C19     1.098   1_565 S
H434   C965    1.110   .     S
H435   N457    1.045   .     S
H438   C1528   1.105   1_554 S
H441   C1526   1.101   1_554 S
H446   N457    1.041   .     S
H447   C967    1.085   .     S
H450   N458    1.045   .     S
H451   N458    1.036   .     S
H452   N459    1.045   .     S
H453   N83     1.045   1_565 S
H454   N460    1.046   .     S
N455   C1526   1.459   1_554 S
N455   N1584   1.299   1_554 S
N456   N1019   1.299   .     S
N456   C966    1.462   .     S
N460   H38     1.044   1_565 S
C471   O557    1.308   .     A
C471   O559    1.316   .     A
C471   C500    1.462   .     S
C472   C483    1.412   .     A
C472   C474    1.404   .     A
C472   N552    1.432   .     S
C473   C503    1.448   .     S
C473   C504    1.403   .     A
C473   C475    1.385   .     A
C474   C502    1.451   .     S
C474   C476    1.387   .     A
C475   H507    1.083   .     S
C475   C477    1.392   .     A
C476   H518    1.083   .     S
C476   C478    1.396   .     A
C477   C484    1.405   .     A
C477   C479    1.416   .     A
C478   C485    1.405   .     A
C478   C480    1.415   .     A
C479   C481    1.427   .     A
C479   C386    1.408   1_655 S
C480   C483    1.424   .     A
C481   C504    1.415   .     A
C481   C499    1.426   .     A
C482   O560    1.329   .     A
C482   O558    1.294   .     A
C482   C501    1.463   .     S
C483   C493    1.423   .     A
C484   N553    1.437   .     S
C484   C399    1.400   1_655 S
C485   N554    1.436   .     S
C486   H520    1.113   .     S
C486   H519    1.103   .     S
C486   C111    1.534   1_565 S
C486   C124    1.559   1_565 S
C487   H517    1.111   .     S
C487   H516    1.098   .     S
C487   C1428   1.520   1_554 S
C488   H515    1.108   .     S
C488   H513    1.109   .     S
C488   C675    1.520   1_565 S
C488   H1078   1.111   .     S
C489   H526    1.109   .     S
C489   C490    1.537   .     S
C490   H525    1.099   .     S
C490   H524    1.104   .     S
C490   C491    1.527   .     S
C491   H521    1.110   .     S
C491   H523    1.110   .     S
C491   H522    1.109   .     S
C492   C494    1.561   .     S
C492   H534    1.096   .     S
C492   H1099   1.101   .     S
C492   N1113   1.459   .     S
C493   N555    1.437   .     S
C494   H533    1.094   .     S
C494   C1059   1.531   .     S
C494   H1096   1.105   .     S
C495   H531    1.111   .     S
C495   H530    1.105   .     S
C495   C1622   1.531   1_554 S
C495   H1656   1.110   1_554 S
C496   H542    1.082   .     S
C496   C497    1.541   .     S
C496   H543    1.111   .     S
C496   N1678   1.462   1_554 S
C497   H539    1.113   .     S
C497   C498    1.530   .     S
C497   H1669   1.085   1_554 S
C498   H536    1.103   .     S
C498   H537    1.106   .     S
C498   H162    1.108   1_565 S
C499   N556    1.436   .     S
C499   C391    1.400   1_655 S
C501   C124    1.390   1_565 S
C501   C113    1.538   1_565 S
C502   O561    1.309   .     A
C502   O563    1.311   .     A
C503   O564    1.313   .     A
C503   O562    1.306   .     A
C504   N551    1.431   .     S
Cu505  Cu506   2.744   .     S
Cu505  N550    2.062   .     S
Cu505  O557    1.984   .     S
Cu505  O564    1.955   .     S
Cu505  O560    1.991   .     S
Cu505  O561    1.960   .     S
Cu506  O559    1.991   .     S
Cu506  O558    1.984   .     S
Cu506  O563    1.955   .     S
Cu506  O562    1.960   .     S
Cu506  N549    2.062   .     S
H509   N555    1.042   .     S
H510   N555    1.045   .     S
H511   N556    1.045   .     S
H512   N556    1.043   .     S
H514   C1616   1.111   1_554 S
H527   C113    1.098   1_565 S
H528   C1059   1.110   .     S
H529   N551    1.045   .     S
H532   C1622   1.105   1_554 S
H535   C1620   1.101   1_554 S
H540   N551    1.041   .     S
H541   C1061   1.085   .     S
H544   N552    1.045   .     S
H545   N552    1.036   .     S
H546   N553    1.045   .     S
H547   N177    1.045   1_565 S
H548   N554    1.046   .     S
N549   C1620   1.459   1_554 S
N549   N1678   1.299   1_554 S
N550   N1113   1.299   .     S
N550   C1060   1.462   .     S
N554   H132    1.044   1_565 S
C565   O651    1.308   .     A
C565   O653    1.316   .     A
C565   C594    1.462   .     S
C566   C577    1.412   .     A
C566   C568    1.404   .     A
C566   N646    1.432   .     S
C567   C597    1.448   .     S
C567   C598    1.403   .     A
C567   C569    1.385   .     A
C568   C596    1.451   .     S
C568   C570    1.387   .     A
C569   H601    1.083   .     S
C569   C571    1.392   .     A
C570   H612    1.083   .     S
C570   C572    1.396   .     A
C571   C578    1.405   .     A
C571   C573    1.416   .     A
C572   C579    1.405   .     A
C572   C574    1.415   .     A
C573   C575    1.427   .     A
C573   C668    1.408   .     S
C574   C577    1.424   .     A
C574   C667    1.408   1_455 S
C575   C598    1.415   .     A
C575   C593    1.426   .     A
C576   O654    1.329   .     A
C576   O652    1.294   .     A
C576   C595    1.463   .     S
C577   C587    1.423   .     A
C578   N647    1.437   .     S
C578   C681    1.400   .     S
C579   N648    1.436   .     S
C579   C687    1.400   1_455 S
C580   H614    1.113   .     S
C580   H613    1.103   .     S
C580   C769    1.534   .     S
C580   C782    1.559   .     S
C581   H611    1.111   .     S
C581   H610    1.098   .     S
C581   C956    1.534   1_545 S
C581   C394    1.520   1_545 S
C582   H609    1.108   .     S
C582   H607    1.109   .     S
C582   C1333   1.520   .     S
C582   H1172   1.111   .     S
C583   H620    1.109   .     S
C583   C584    1.537   .     S
C583   C971    1.538   1_545 S
C583   H997    1.098   1_545 S
C584   H619    1.099   .     S
C584   H618    1.104   .     S
C584   C585    1.527   .     S
C585   H615    1.110   .     S
C585   H617    1.110   .     S
C585   H616    1.109   .     S
C586   C588    1.561   .     S
C586   H628    1.096   .     S
C586   H1193   1.101   .     S
C586   N1207   1.459   .     S
C587   N649    1.437   .     S
C587   C672    1.400   1_455 S
C588   H627    1.094   .     S
C588   C1153   1.531   .     S
C588   H1190   1.105   .     S
C589   H625    1.111   .     S
C589   H624    1.105   .     S
C590   H636    1.082   .     S
C590   C591    1.541   .     S
C590   H637    1.111   .     S
C591   H633    1.113   .     S
C591   C592    1.530   .     S
C592   H630    1.103   .     S
C592   H631    1.106   .     S
C592   H820    1.108   .     S
C593   N650    1.436   .     S
C593   C673    1.400   .     S
C594   C956    1.559   1_545 S
C594   C971    1.390   1_545 S
C595   C782    1.390   .     S
C595   C771    1.538   .     S
C596   O655    1.309   .     A
C596   O657    1.311   .     A
C597   O658    1.313   .     A
C597   O656    1.306   .     A
C598   N645    1.431   .     S
Cu599  Cu600   2.744   .     S
Cu599  N644    2.062   .     S
Cu599  O651    1.984   .     S
Cu599  O658    1.955   .     S
Cu599  O654    1.991   .     S
Cu599  O655    1.960   .     S
Cu600  O653    1.991   .     S
Cu600  O652    1.984   .     S
Cu600  O657    1.955   .     S
Cu600  O656    1.960   .     S
Cu600  N643    2.062   .     S
H602   N1024   1.044   1_545 S
H603   N649    1.042   .     S
H604   N649    1.045   .     S
H605   N650    1.045   .     S
H606   N650    1.043   .     S
H621   C771    1.098   .     S
H622   C1153   1.110   .     S
H623   N645    1.045   .     S
H632   C968    1.108   1_545 S
H634   N645    1.041   .     S
H635   C1155   1.085   .     S
H638   N646    1.045   .     S
H639   N646    1.036   .     S
H640   N647    1.045   .     S
H641   N835    1.045   .     S
H642   N648    1.046   .     S
N644   N1207   1.299   .     S
N644   C1154   1.462   .     S
N647   H1017   1.045   1_545 S
N648   H790    1.044   .     S
C659   O745    1.308   .     A
C659   O747    1.316   .     A
C659   C688    1.462   .     S
C660   C671    1.412   .     A
C660   C662    1.404   .     A
C660   N740    1.432   .     S
C661   C691    1.448   .     S
C661   C692    1.403   .     A
C661   C663    1.385   .     A
C662   C690    1.451   .     S
C662   C664    1.387   .     A
C663   H695    1.083   .     S
C663   C665    1.392   .     A
C664   H706    1.083   .     S
C664   C666    1.396   .     A
C665   C672    1.405   .     A
C665   C667    1.416   .     A
C666   C673    1.405   .     A
C666   C668    1.415   .     A
C667   C669    1.427   .     A
C667   C574    1.408   1_655 S
C668   C671    1.424   .     A
C669   C692    1.415   .     A
C669   C687    1.426   .     A
C670   O748    1.329   .     A
C670   O746    1.294   .     A
C670   C689    1.463   .     S
C671   C681    1.423   .     A
C672   N741    1.437   .     S
C672   C587    1.400   1_655 S
C673   N742    1.436   .     S
C674   H708    1.113   .     S
C674   H707    1.103   .     S
C674   C863    1.534   .     S
C674   C876    1.559   .     S
C675   H705    1.111   .     S
C675   H704    1.098   .     S
C675   C1050   1.534   1_545 S
C675   C488    1.520   1_545 S
C676   H703    1.108   .     S
C676   H701    1.109   .     S
C676   C1427   1.520   .     S
C676   H1266   1.111   .     S
C677   H714    1.109   .     S
C677   C678    1.537   .     S
C677   C1065   1.538   1_545 S
C677   H1091   1.098   1_545 S
C678   H713    1.099   .     S
C678   H712    1.104   .     S
C678   C679    1.527   .     S
C679   H709    1.110   .     S
C679   H711    1.110   .     S
C679   H710    1.109   .     S
C680   C682    1.561   .     S
C680   H722    1.096   .     S
C680   H1287   1.101   .     S
C680   N1301   1.459   .     S
C681   N743    1.437   .     S
C682   H721    1.094   .     S
C682   C1247   1.531   .     S
C682   H1284   1.105   .     S
C683   H719    1.111   .     S
C683   H718    1.105   .     S
C684   H730    1.082   .     S
C684   C685    1.541   .     S
C684   H731    1.111   .     S
C685   H727    1.113   .     S
C685   C686    1.530   .     S
C686   H724    1.103   .     S
C686   H725    1.106   .     S
C686   H914    1.108   .     S
C687   N744    1.436   .     S
C687   C579    1.400   1_655 S
C688   C1050   1.559   1_545 S
C688   C1065   1.390   1_545 S
C689   C876    1.390   .     S
C689   C865    1.538   .     S
C690   O749    1.309   .     A
C690   O751    1.311   .     A
C691   O752    1.313   .     A
C691   O750    1.306   .     A
C692   N739    1.431   .     S
Cu693  Cu694   2.744   .     S
Cu693  N738    2.062   .     S
Cu693  O745    1.984   .     S
Cu693  O752    1.955   .     S
Cu693  O748    1.991   .     S
Cu693  O749    1.960   .     S
Cu694  O747    1.991   .     S
Cu694  O746    1.984   .     S
Cu694  O751    1.955   .     S
Cu694  O750    1.960   .     S
Cu694  N737    2.062   .     S
H696   N1118   1.044   1_545 S
H697   N743    1.042   .     S
H698   N743    1.045   .     S
H699   N744    1.045   .     S
H700   N744    1.043   .     S
H715   C865    1.098   .     S
H716   C1247   1.110   .     S
H717   N739    1.045   .     S
H726   C1062   1.108   1_545 S
H728   N739    1.041   .     S
H729   C1249   1.085   .     S
H732   N740    1.045   .     S
H733   N740    1.036   .     S
H734   N741    1.045   .     S
H735   N929    1.045   .     S
H736   N742    1.046   .     S
N738   N1301   1.299   .     S
N738   C1248   1.462   .     S
N741   H1111   1.045   1_545 S
N742   H884    1.044   .     S
C753   O839    1.308   .     A
C753   O841    1.316   .     A
C753   C782    1.462   .     S
C754   C765    1.412   .     A
C754   C756    1.404   .     A
C754   N834    1.432   .     S
C755   C785    1.448   .     S
C755   C786    1.403   .     A
C755   C757    1.385   .     A
C756   C784    1.451   .     S
C756   C758    1.387   .     A
C757   H789    1.083   .     S
C757   C759    1.392   .     A
C758   H800    1.083   .     S
C758   C760    1.396   .     A
C759   C766    1.405   .     A
C759   C761    1.416   .     A
C760   C767    1.405   .     A
C760   C762    1.415   .     A
C761   C763    1.427   .     A
C761   C856    1.408   .     S
C762   C765    1.424   .     A
C762   C855    1.408   1_455 S
C763   C786    1.415   .     A
C763   C781    1.426   .     A
C764   O842    1.329   .     A
C764   O840    1.294   .     A
C764   C783    1.463   .     S
C765   C775    1.423   .     A
C766   N835    1.437   .     S
C766   C869    1.400   .     S
C767   N836    1.436   .     S
C767   C875    1.400   1_455 S
C768   H802    1.113   .     S
C768   H801    1.103   .     S
C768   C957    1.534   .     S
C768   C970    1.559   .     S
C769   H799    1.111   .     S
C769   H798    1.098   .     S
C770   H797    1.108   .     S
C770   H795    1.109   .     S
C770   C1521   1.520   .     S
C770   H1360   1.111   .     S
C771   H808    1.109   .     S
C771   C772    1.537   .     S
C772   H807    1.099   .     S
C772   H806    1.104   .     S
C772   C773    1.527   .     S
C773   H803    1.110   .     S
C773   H805    1.110   .     S
C773   H804    1.109   .     S
C774   C776    1.561   .     S
C774   H816    1.096   .     S
C774   H1381   1.101   .     S
C774   N1395   1.459   .     S
C775   N837    1.437   .     S
C775   C860    1.400   1_455 S
C776   H815    1.094   .     S
C776   C1341   1.531   .     S
C776   H1378   1.105   .     S
C777   H813    1.111   .     S
C777   H812    1.105   .     S
C778   H824    1.082   .     S
C778   C779    1.541   .     S
C778   H825    1.111   .     S
C779   H821    1.113   .     S
C779   C780    1.530   .     S
C780   H818    1.103   .     S
C780   H819    1.106   .     S
C780   H1008   1.108   .     S
C781   N838    1.436   .     S
C781   C861    1.400   .     S
C783   C970    1.390   .     S
C783   C959    1.538   .     S
C784   O843    1.309   .     A
C784   O845    1.311   .     A
C785   O846    1.313   .     A
C785   O844    1.306   .     A
C786   N833    1.431   .     S
Cu787  Cu788   2.744   .     S
Cu787  N832    2.062   .     S
Cu787  O839    1.984   .     S
Cu787  O846    1.955   .     S
Cu787  O842    1.991   .     S
Cu787  O843    1.960   .     S
Cu788  O841    1.991   .     S
Cu788  O840    1.984   .     S
Cu788  O845    1.955   .     S
Cu788  O844    1.960   .     S
Cu788  N831    2.062   .     S
H791   N837    1.042   .     S
H792   N837    1.045   .     S
H793   N838    1.045   .     S
H794   N838    1.043   .     S
H809   C959    1.098   .     S
H810   C1341   1.110   .     S
H811   N833    1.045   .     S
H822   N833    1.041   .     S
H823   C1343   1.085   .     S
H826   N834    1.045   .     S
H827   N834    1.036   .     S
H828   N835    1.045   .     S
H829   N1023   1.045   .     S
H830   N836    1.046   .     S
N832   N1395   1.299   .     S
N832   C1342   1.462   .     S
N836   H978    1.044   .     S
C847   O933    1.308   .     A
C847   O935    1.316   .     A
C847   C876    1.462   .     S
C848   C859    1.412   .     A
C848   C850    1.404   .     A
C848   N928    1.432   .     S
C849   C879    1.448   .     S
C849   C880    1.403   .     A
C849   C851    1.385   .     A
C850   C878    1.451   .     S
C850   C852    1.387   .     A
C851   H883    1.083   .     S
C851   C853    1.392   .     A
C852   H894    1.083   .     S
C852   C854    1.396   .     A
C853   C860    1.405   .     A
C853   C855    1.416   .     A
C854   C861    1.405   .     A
C854   C856    1.415   .     A
C855   C857    1.427   .     A
C855   C762    1.408   1_655 S
C856   C859    1.424   .     A
C857   C880    1.415   .     A
C857   C875    1.426   .     A
C858   O936    1.329   .     A
C858   O934    1.294   .     A
C858   C877    1.463   .     S
C859   C869    1.423   .     A
C860   N929    1.437   .     S
C860   C775    1.400   1_655 S
C861   N930    1.436   .     S
C862   H896    1.113   .     S
C862   H895    1.103   .     S
C862   C1051   1.534   .     S
C862   C1064   1.559   .     S
C863   H893    1.111   .     S
C863   H892    1.098   .     S
C864   H891    1.108   .     S
C864   H889    1.109   .     S
C864   C1615   1.520   .     S
C864   H1454   1.111   .     S
C865   H902    1.109   .     S
C865   C866    1.537   .     S
C866   H901    1.099   .     S
C866   H900    1.104   .     S
C866   C867    1.527   .     S
C867   H897    1.110   .     S
C867   H899    1.110   .     S
C867   H898    1.109   .     S
C868   C870    1.561   .     S
C868   H910    1.096   .     S
C868   H1475   1.101   .     S
C868   N1489   1.459   .     S
C869   N931    1.437   .     S
C870   H909    1.094   .     S
C870   C1435   1.531   .     S
C870   H1472   1.105   .     S
C871   H907    1.111   .     S
C871   H906    1.105   .     S
C872   H918    1.082   .     S
C872   C873    1.541   .     S
C872   H919    1.111   .     S
C873   H915    1.113   .     S
C873   C874    1.530   .     S
C874   H912    1.103   .     S
C874   H913    1.106   .     S
C874   H1102   1.108   .     S
C875   N932    1.436   .     S
C875   C767    1.400   1_655 S
C877   C1064   1.390   .     S
C877   C1053   1.538   .     S
C878   O937    1.309   .     A
C878   O939    1.311   .     A
C879   O940    1.313   .     A
C879   O938    1.306   .     A
C880   N927    1.431   .     S
Cu881  Cu882   2.744   .     S
Cu881  N926    2.062   .     S
Cu881  O933    1.984   .     S
Cu881  O940    1.955   .     S
Cu881  O936    1.991   .     S
Cu881  O937    1.960   .     S
Cu882  O935    1.991   .     S
Cu882  O934    1.984   .     S
Cu882  O939    1.955   .     S
Cu882  O938    1.960   .     S
Cu882  N925    2.062   .     S
H885   N931    1.042   .     S
H886   N931    1.045   .     S
H887   N932    1.045   .     S
H888   N932    1.043   .     S
H903   C1053   1.098   .     S
H904   C1435   1.110   .     S
H905   N927    1.045   .     S
H916   N927    1.041   .     S
H917   C1437   1.085   .     S
H920   N928    1.045   .     S
H921   N928    1.036   .     S
H922   N929    1.045   .     S
H923   N1117   1.045   .     S
H924   N930    1.046   .     S
N926   N1489   1.299   .     S
N926   C1436   1.462   .     S
N930   H1072   1.044   .     S
C941   O1027   1.308   .     A
C941   O1029   1.316   .     A
C941   C970    1.462   .     S
C942   C953    1.412   .     A
C942   C944    1.404   .     A
C942   N1022   1.432   .     S
C943   C973    1.448   .     S
C943   C974    1.403   .     A
C943   C945    1.385   .     A
C944   C972    1.451   .     S
C944   C946    1.387   .     A
C945   H977    1.083   .     S
C945   C947    1.392   .     A
C946   H988    1.083   .     S
C946   C948    1.396   .     A
C947   C954    1.405   .     A
C947   C949    1.416   .     A
C948   C955    1.405   .     A
C948   C950    1.415   .     A
C949   C951    1.427   .     A
C949   C1044   1.408   .     S
C950   C953    1.424   .     A
C950   C1043   1.408   1_455 S
C951   C974    1.415   .     A
C951   C969    1.426   .     A
C952   O1030   1.329   .     A
C952   O1028   1.294   .     A
C952   C971    1.463   .     S
C953   C963    1.423   .     A
C954   N1023   1.437   .     S
C954   C1057   1.400   .     S
C955   N1024   1.436   .     S
C955   C1063   1.400   1_455 S
C956   H990    1.113   .     S
C956   H989    1.103   .     S
C956   C581    1.534   1_565 S
C956   C594    1.559   1_565 S
C957   H987    1.111   .     S
C957   H986    1.098   .     S
C958   H985    1.108   .     S
C958   H983    1.109   .     S
C958   C1145   1.520   1_565 S
C958   H1548   1.111   .     S
C959   H996    1.109   .     S
C959   C960    1.537   .     S
C960   H995    1.099   .     S
C960   H994    1.104   .     S
C960   C961    1.527   .     S
C961   H991    1.110   .     S
C961   H993    1.110   .     S
C961   H992    1.109   .     S
C962   C964    1.561   .     S
C962   H1004   1.096   .     S
C962   H1569   1.101   .     S
C962   N1583   1.459   .     S
C963   N1025   1.437   .     S
C963   C1048   1.400   1_455 S
C964   H1003   1.094   .     S
C964   C1529   1.531   .     S
C964   H1566   1.105   .     S
C965   H1001   1.111   .     S
C965   H1000   1.105   .     S
C966   H1012   1.082   .     S
C966   C967    1.541   .     S
C966   H1013   1.111   .     S
C967   H1009   1.113   .     S
C967   C968    1.530   .     S
C968   H1006   1.103   .     S
C968   H1007   1.106   .     S
C968   H632    1.108   1_565 S
C969   N1026   1.436   .     S
C969   C1049   1.400   .     S
C971   C594    1.390   1_565 S
C971   C583    1.538   1_565 S
C972   O1031   1.309   .     A
C972   O1033   1.311   .     A
C973   O1034   1.313   .     A
C973   O1032   1.306   .     A
C974   N1021   1.431   .     S
Cu975  Cu976   2.744   .     S
Cu975  N1020   2.062   .     S
Cu975  O1027   1.984   .     S
Cu975  O1034   1.955   .     S
Cu975  O1030   1.991   .     S
Cu975  O1031   1.960   .     S
Cu976  O1029   1.991   .     S
Cu976  O1028   1.984   .     S
Cu976  O1033   1.955   .     S
Cu976  O1032   1.960   .     S
Cu976  N1019   2.062   .     S
H979   N1025   1.042   .     S
H980   N1025   1.045   .     S
H981   N1026   1.045   .     S
H982   N1026   1.043   .     S
H997   C583    1.098   1_565 S
H998   C1529   1.110   .     S
H999   N1021   1.045   .     S
H1010  N1021   1.041   .     S
H1011  C1531   1.085   .     S
H1014  N1022   1.045   .     S
H1015  N1022   1.036   .     S
H1016  N1023   1.045   .     S
H1017  N647    1.045   1_565 S
H1018  N1024   1.046   .     S
N1020  N1583   1.299   .     S
N1020  C1530   1.462   .     S
N1024  H602    1.044   1_565 S
C1035  O1121   1.308   .     A
C1035  O1123   1.316   .     A
C1035  C1064   1.462   .     S
C1036  C1047   1.412   .     A
C1036  C1038   1.404   .     A
C1036  N1116   1.432   .     S
C1037  C1067   1.448   .     S
C1037  C1068   1.403   .     A
C1037  C1039   1.385   .     A
C1038  C1066   1.451   .     S
C1038  C1040   1.387   .     A
C1039  H1071   1.083   .     S
C1039  C1041   1.392   .     A
C1040  H1082   1.083   .     S
C1040  C1042   1.396   .     A
C1041  C1048   1.405   .     A
C1041  C1043   1.416   .     A
C1042  C1049   1.405   .     A
C1042  C1044   1.415   .     A
C1043  C1045   1.427   .     A
C1043  C950    1.408   1_655 S
C1044  C1047   1.424   .     A
C1045  C1068   1.415   .     A
C1045  C1063   1.426   .     A
C1046  O1124   1.329   .     A
C1046  O1122   1.294   .     A
C1046  C1065   1.463   .     S
C1047  C1057   1.423   .     A
C1048  N1117   1.437   .     S
C1048  C963    1.400   1_655 S
C1049  N1118   1.436   .     S
C1050  H1084   1.113   .     S
C1050  H1083   1.103   .     S
C1050  C675    1.534   1_565 S
C1050  C688    1.559   1_565 S
C1051  H1081   1.111   .     S
C1051  H1080   1.098   .     S
C1052  H1079   1.108   .     S
C1052  H1077   1.109   .     S
C1052  C1239   1.520   1_565 S
C1052  H1642   1.111   .     S
C1053  H1090   1.109   .     S
C1053  C1054   1.537   .     S
C1054  H1089   1.099   .     S
C1054  H1088   1.104   .     S
C1054  C1055   1.527   .     S
C1055  H1085   1.110   .     S
C1055  H1087   1.110   .     S
C1055  H1086   1.109   .     S
C1056  C1058   1.561   .     S
C1056  H1098   1.096   .     S
C1056  H1663   1.101   .     S
C1056  N1677   1.459   .     S
C1057  N1119   1.437   .     S
C1058  H1097   1.094   .     S
C1058  C1623   1.531   .     S
C1058  H1660   1.105   .     S
C1059  H1095   1.111   .     S
C1059  H1094   1.105   .     S
C1060  H1106   1.082   .     S
C1060  C1061   1.541   .     S
C1060  H1107   1.111   .     S
C1061  H1103   1.113   .     S
C1061  C1062   1.530   .     S
C1062  H1100   1.103   .     S
C1062  H1101   1.106   .     S
C1062  H726    1.108   1_565 S
C1063  N1120   1.436   .     S
C1063  C955    1.400   1_655 S
C1065  C688    1.390   1_565 S
C1065  C677    1.538   1_565 S
C1066  O1125   1.309   .     A
C1066  O1127   1.311   .     A
C1067  O1128   1.313   .     A
C1067  O1126   1.306   .     A
C1068  N1115   1.431   .     S
Cu1069 Cu1070  2.744   .     S
Cu1069 N1114   2.062   .     S
Cu1069 O1121   1.984   .     S
Cu1069 O1128   1.955   .     S
Cu1069 O1124   1.991   .     S
Cu1069 O1125   1.960   .     S
Cu1070 O1123   1.991   .     S
Cu1070 O1122   1.984   .     S
Cu1070 O1127   1.955   .     S
Cu1070 O1126   1.960   .     S
Cu1070 N1113   2.062   .     S
H1073  N1119   1.042   .     S
H1074  N1119   1.045   .     S
H1075  N1120   1.045   .     S
H1076  N1120   1.043   .     S
H1091  C677    1.098   1_565 S
H1092  C1623   1.110   .     S
H1093  N1115   1.045   .     S
H1104  N1115   1.041   .     S
H1105  C1625   1.085   .     S
H1108  N1116   1.045   .     S
H1109  N1116   1.036   .     S
H1110  N1117   1.045   .     S
H1111  N741    1.045   1_565 S
H1112  N1118   1.046   .     S
N1114  N1677   1.299   .     S
N1114  C1624   1.462   .     S
N1118  H696    1.044   1_565 S
C1129  O1215   1.308   .     A
C1129  O1217   1.316   .     A
C1129  C1158   1.462   .     S
C1130  C1141   1.412   .     A
C1130  C1132   1.404   .     A
C1130  N1210   1.432   .     S
C1131  C1161   1.448   .     S
C1131  C1162   1.403   .     A
C1131  C1133   1.385   .     A
C1132  C1160   1.451   .     S
C1132  C1134   1.387   .     A
C1133  H1165   1.083   .     S
C1133  C1135   1.392   .     A
C1134  H1176   1.083   .     S
C1134  C1136   1.396   .     A
C1135  C1142   1.405   .     A
C1135  C1137   1.416   .     A
C1136  C1143   1.405   .     A
C1136  C1138   1.415   .     A
C1137  C1139   1.427   .     A
C1137  C1232   1.408   .     S
C1138  C1141   1.424   .     A
C1138  C1231   1.408   1_455 S
C1139  C1162   1.415   .     A
C1139  C1157   1.426   .     A
C1140  O1218   1.329   .     A
C1140  O1216   1.294   .     A
C1140  C1159   1.463   .     S
C1141  C1151   1.423   .     A
C1142  N1211   1.437   .     S
C1142  C1245   1.400   .     S
C1143  N1212   1.436   .     S
C1143  C1251   1.400   1_455 S
C1144  H1178   1.113   .     S
C1144  H1177   1.103   .     S
C1144  C1333   1.534   .     S
C1144  C1346   1.559   .     S
C1145  H1175   1.111   .     S
C1145  H1174   1.098   .     S
C1145  C1520   1.534   1_545 S
C1145  C958    1.520   1_545 S
C1146  H1173   1.108   .     S
C1146  H1171   1.109   .     S
C1146  C205    1.520   1_556 S
C1146  H44     1.111   1_556 S
C1147  H1184   1.109   .     S
C1147  C1148   1.537   .     S
C1147  C1535   1.538   1_545 S
C1147  H1561   1.098   1_545 S
C1148  H1183   1.099   .     S
C1148  H1182   1.104   .     S
C1148  C1149   1.527   .     S
C1149  H1179   1.110   .     S
C1149  H1181   1.110   .     S
C1149  H1180   1.109   .     S
C1150  C1152   1.561   .     S
C1150  H1192   1.096   .     S
C1150  H65     1.101   1_556 S
C1150  N79     1.459   1_556 S
C1151  N1213   1.437   .     S
C1151  C1236   1.400   1_455 S
C1152  H1191   1.094   .     S
C1152  C25     1.531   1_556 S
C1152  H62     1.105   1_556 S
C1153  H1189   1.111   .     S
C1153  H1188   1.105   .     S
C1154  H1200   1.082   .     S
C1154  C1155   1.541   .     S
C1154  H1201   1.111   .     S
C1155  H1197   1.113   .     S
C1155  C1156   1.530   .     S
C1156  H1194   1.103   .     S
C1156  H1195   1.106   .     S
C1156  H1384   1.108   .     S
C1157  N1214   1.436   .     S
C1157  C1237   1.400   .     S
C1158  C1520   1.559   1_545 S
C1158  C1535   1.390   1_545 S
C1159  C1346   1.390   .     S
C1159  C1335   1.538   .     S
C1160  O1219   1.309   .     A
C1160  O1221   1.311   .     A
C1161  O1222   1.313   .     A
C1161  O1220   1.306   .     A
C1162  N1209   1.431   .     S
Cu1163 Cu1164  2.744   .     S
Cu1163 N1208   2.062   .     S
Cu1163 O1215   1.984   .     S
Cu1163 O1222   1.955   .     S
Cu1163 O1218   1.991   .     S
Cu1163 O1219   1.960   .     S
Cu1164 O1217   1.991   .     S
Cu1164 O1216   1.984   .     S
Cu1164 O1221   1.955   .     S
Cu1164 O1220   1.960   .     S
Cu1164 N1207   2.062   .     S
H1166  N1588   1.044   1_545 S
H1167  N1213   1.042   .     S
H1168  N1213   1.045   .     S
H1169  N1214   1.045   .     S
H1170  N1214   1.043   .     S
H1185  C1335   1.098   .     S
H1186  C25     1.110   1_556 S
H1187  N1209   1.045   .     S
H1196  C1532   1.108   1_545 S
H1198  N1209   1.041   .     S
H1199  C27     1.085   1_556 S
H1202  N1210   1.045   .     S
H1203  N1210   1.036   .     S
H1204  N1211   1.045   .     S
H1205  N1399   1.045   .     S
H1206  N1212   1.046   .     S
N1208  N79     1.299   1_556 S
N1208  C26     1.462   1_556 S
N1211  H1581   1.045   1_545 S
N1212  H1354   1.044   .     S
C1223  O1309   1.308   .     A
C1223  O1311   1.316   .     A
C1223  C1252   1.462   .     S
C1224  C1235   1.412   .     A
C1224  C1226   1.404   .     A
C1224  N1304   1.432   .     S
C1225  C1255   1.448   .     S
C1225  C1256   1.403   .     A
C1225  C1227   1.385   .     A
C1226  C1254   1.451   .     S
C1226  C1228   1.387   .     A
C1227  H1259   1.083   .     S
C1227  C1229   1.392   .     A
C1228  H1270   1.083   .     S
C1228  C1230   1.396   .     A
C1229  C1236   1.405   .     A
C1229  C1231   1.416   .     A
C1230  C1237   1.405   .     A
C1230  C1232   1.415   .     A
C1231  C1233   1.427   .     A
C1231  C1138   1.408   1_655 S
C1232  C1235   1.424   .     A
C1233  C1256   1.415   .     A
C1233  C1251   1.426   .     A
C1234  O1312   1.329   .     A
C1234  O1310   1.294   .     A
C1234  C1253   1.463   .     S
C1235  C1245   1.423   .     A
C1236  N1305   1.437   .     S
C1236  C1151   1.400   1_655 S
C1237  N1306   1.436   .     S
C1238  H1272   1.113   .     S
C1238  H1271   1.103   .     S
C1238  C1427   1.534   .     S
C1238  C1440   1.559   .     S
C1239  H1269   1.111   .     S
C1239  H1268   1.098   .     S
C1239  C1614   1.534   1_545 S
C1239  C1052   1.520   1_545 S
C1240  H1267   1.108   .     S
C1240  H1265   1.109   .     S
C1240  C299    1.520   1_556 S
C1240  H138    1.111   1_556 S
C1241  H1278   1.109   .     S
C1241  C1242   1.537   .     S
C1241  C1629   1.538   1_545 S
C1241  H1655   1.098   1_545 S
C1242  H1277   1.099   .     S
C1242  H1276   1.104   .     S
C1242  C1243   1.527   .     S
C1243  H1273   1.110   .     S
C1243  H1275   1.110   .     S
C1243  H1274   1.109   .     S
C1244  C1246   1.561   .     S
C1244  H1286   1.096   .     S
C1244  H159    1.101   1_556 S
C1244  N173    1.459   1_556 S
C1245  N1307   1.437   .     S
C1246  H1285   1.094   .     S
C1246  C119    1.531   1_556 S
C1246  H156    1.105   1_556 S
C1247  H1283   1.111   .     S
C1247  H1282   1.105   .     S
C1248  H1294   1.082   .     S
C1248  C1249   1.541   .     S
C1248  H1295   1.111   .     S
C1249  H1291   1.113   .     S
C1249  C1250   1.530   .     S
C1250  H1288   1.103   .     S
C1250  H1289   1.106   .     S
C1250  H1478   1.108   .     S
C1251  N1308   1.436   .     S
C1251  C1143   1.400   1_655 S
C1252  C1614   1.559   1_545 S
C1252  C1629   1.390   1_545 S
C1253  C1440   1.390   .     S
C1253  C1429   1.538   .     S
C1254  O1313   1.309   .     A
C1254  O1315   1.311   .     A
C1255  O1316   1.313   .     A
C1255  O1314   1.306   .     A
C1256  N1303   1.431   .     S
Cu1257 Cu1258  2.744   .     S
Cu1257 N1302   2.062   .     S
Cu1257 O1309   1.984   .     S
Cu1257 O1316   1.955   .     S
Cu1257 O1312   1.991   .     S
Cu1257 O1313   1.960   .     S
Cu1258 O1311   1.991   .     S
Cu1258 O1310   1.984   .     S
Cu1258 O1315   1.955   .     S
Cu1258 O1314   1.960   .     S
Cu1258 N1301   2.062   .     S
H1260  N1682   1.044   1_545 S
H1261  N1307   1.042   .     S
H1262  N1307   1.045   .     S
H1263  N1308   1.045   .     S
H1264  N1308   1.043   .     S
H1279  C1429   1.098   .     S
H1280  C119    1.110   1_556 S
H1281  N1303   1.045   .     S
H1290  C1626   1.108   1_545 S
H1292  N1303   1.041   .     S
H1293  C121    1.085   1_556 S
H1296  N1304   1.045   .     S
H1297  N1304   1.036   .     S
H1298  N1305   1.045   .     S
H1299  N1493   1.045   .     S
H1300  N1306   1.046   .     S
N1302  N173    1.299   1_556 S
N1302  C120    1.462   1_556 S
N1305  H1675   1.045   1_545 S
N1306  H1448   1.044   .     S
C1317  O1403   1.308   .     A
C1317  O1405   1.316   .     A
C1317  C1346   1.462   .     S
C1318  C1329   1.412   .     A
C1318  C1320   1.404   .     A
C1318  N1398   1.432   .     S
C1319  C1349   1.448   .     S
C1319  C1350   1.403   .     A
C1319  C1321   1.385   .     A
C1320  C1348   1.451   .     S
C1320  C1322   1.387   .     A
C1321  H1353   1.083   .     S
C1321  C1323   1.392   .     A
C1322  H1364   1.083   .     S
C1322  C1324   1.396   .     A
C1323  C1330   1.405   .     A
C1323  C1325   1.416   .     A
C1324  C1331   1.405   .     A
C1324  C1326   1.415   .     A
C1325  C1327   1.427   .     A
C1325  C1420   1.408   .     S
C1326  C1329   1.424   .     A
C1326  C1419   1.408   1_455 S
C1327  C1350   1.415   .     A
C1327  C1345   1.426   .     A
C1328  O1406   1.329   .     A
C1328  O1404   1.294   .     A
C1328  C1347   1.463   .     S
C1329  C1339   1.423   .     A
C1330  N1399   1.437   .     S
C1330  C1433   1.400   .     S
C1331  N1400   1.436   .     S
C1331  C1439   1.400   1_455 S
C1332  H1366   1.113   .     S
C1332  H1365   1.103   .     S
C1332  C1521   1.534   .     S
C1332  C1534   1.559   .     S
C1333  H1363   1.111   .     S
C1333  H1362   1.098   .     S
C1334  H1361   1.108   .     S
C1334  H1359   1.109   .     S
C1334  C393    1.520   1_556 S
C1334  H232    1.111   1_556 S
C1335  H1372   1.109   .     S
C1335  C1336   1.537   .     S
C1336  H1371   1.099   .     S
C1336  H1370   1.104   .     S
C1336  C1337   1.527   .     S
C1337  H1367   1.110   .     S
C1337  H1369   1.110   .     S
C1337  H1368   1.109   .     S
C1338  C1340   1.561   .     S
C1338  H1380   1.096   .     S
C1338  H253    1.101   1_556 S
C1338  N267    1.459   1_556 S
C1339  N1401   1.437   .     S
C1339  C1424   1.400   1_455 S
C1340  H1379   1.094   .     S
C1340  C213    1.531   1_556 S
C1340  H250    1.105   1_556 S
C1341  H1377   1.111   .     S
C1341  H1376   1.105   .     S
C1342  H1388   1.082   .     S
C1342  C1343   1.541   .     S
C1342  H1389   1.111   .     S
C1343  H1385   1.113   .     S
C1343  C1344   1.530   .     S
C1344  H1382   1.103   .     S
C1344  H1383   1.106   .     S
C1344  H1572   1.108   .     S
C1345  N1402   1.436   .     S
C1345  C1425   1.400   .     S
C1347  C1534   1.390   .     S
C1347  C1523   1.538   .     S
C1348  O1407   1.309   .     A
C1348  O1409   1.311   .     A
C1349  O1410   1.313   .     A
C1349  O1408   1.306   .     A
C1350  N1397   1.431   .     S
Cu1351 Cu1352  2.744   .     S
Cu1351 N1396   2.062   .     S
Cu1351 O1403   1.984   .     S
Cu1351 O1410   1.955   .     S
Cu1351 O1406   1.991   .     S
Cu1351 O1407   1.960   .     S
Cu1352 O1405   1.991   .     S
Cu1352 O1404   1.984   .     S
Cu1352 O1409   1.955   .     S
Cu1352 O1408   1.960   .     S
Cu1352 N1395   2.062   .     S
H1355  N1401   1.042   .     S
H1356  N1401   1.045   .     S
H1357  N1402   1.045   .     S
H1358  N1402   1.043   .     S
H1373  C1523   1.098   .     S
H1374  C213    1.110   1_556 S
H1375  N1397   1.045   .     S
H1386  N1397   1.041   .     S
H1387  C215    1.085   1_556 S
H1390  N1398   1.045   .     S
H1391  N1398   1.036   .     S
H1392  N1399   1.045   .     S
H1393  N1587   1.045   .     S
H1394  N1400   1.046   .     S
N1396  N267    1.299   1_556 S
N1396  C214    1.462   1_556 S
N1400  H1542   1.044   .     S
C1411  O1497   1.308   .     A
C1411  O1499   1.316   .     A
C1411  C1440   1.462   .     S
C1412  C1423   1.412   .     A
C1412  C1414   1.404   .     A
C1412  N1492   1.432   .     S
C1413  C1443   1.448   .     S
C1413  C1444   1.403   .     A
C1413  C1415   1.385   .     A
C1414  C1442   1.451   .     S
C1414  C1416   1.387   .     A
C1415  H1447   1.083   .     S
C1415  C1417   1.392   .     A
C1416  H1458   1.083   .     S
C1416  C1418   1.396   .     A
C1417  C1424   1.405   .     A
C1417  C1419   1.416   .     A
C1418  C1425   1.405   .     A
C1418  C1420   1.415   .     A
C1419  C1421   1.427   .     A
C1419  C1326   1.408   1_655 S
C1420  C1423   1.424   .     A
C1421  C1444   1.415   .     A
C1421  C1439   1.426   .     A
C1422  O1500   1.329   .     A
C1422  O1498   1.294   .     A
C1422  C1441   1.463   .     S
C1423  C1433   1.423   .     A
C1424  N1493   1.437   .     S
C1424  C1339   1.400   1_655 S
C1425  N1494   1.436   .     S
C1426  H1460   1.113   .     S
C1426  H1459   1.103   .     S
C1426  C1615   1.534   .     S
C1426  C1628   1.559   .     S
C1427  H1457   1.111   .     S
C1427  H1456   1.098   .     S
C1428  H1455   1.108   .     S
C1428  H1453   1.109   .     S
C1428  C487    1.520   1_556 S
C1428  H326    1.111   1_556 S
C1429  H1466   1.109   .     S
C1429  C1430   1.537   .     S
C1430  H1465   1.099   .     S
C1430  H1464   1.104   .     S
C1430  C1431   1.527   .     S
C1431  H1461   1.110   .     S
C1431  H1463   1.110   .     S
C1431  H1462   1.109   .     S
C1432  C1434   1.561   .     S
C1432  H1474   1.096   .     S
C1432  H347    1.101   1_556 S
C1432  N361    1.459   1_556 S
C1433  N1495   1.437   .     S
C1434  H1473   1.094   .     S
C1434  C307    1.531   1_556 S
C1434  H344    1.105   1_556 S
C1435  H1471   1.111   .     S
C1435  H1470   1.105   .     S
C1436  H1482   1.082   .     S
C1436  C1437   1.541   .     S
C1436  H1483   1.111   .     S
C1437  H1479   1.113   .     S
C1437  C1438   1.530   .     S
C1438  H1476   1.103   .     S
C1438  H1477   1.106   .     S
C1438  H1666   1.108   .     S
C1439  N1496   1.436   .     S
C1439  C1331   1.400   1_655 S
C1441  C1628   1.390   .     S
C1441  C1617   1.538   .     S
C1442  O1501   1.309   .     A
C1442  O1503   1.311   .     A
C1443  O1504   1.313   .     A
C1443  O1502   1.306   .     A
C1444  N1491   1.431   .     S
Cu1445 Cu1446  2.744   .     S
Cu1445 N1490   2.062   .     S
Cu1445 O1497   1.984   .     S
Cu1445 O1504   1.955   .     S
Cu1445 O1500   1.991   .     S
Cu1445 O1501   1.960   .     S
Cu1446 O1499   1.991   .     S
Cu1446 O1498   1.984   .     S
Cu1446 O1503   1.955   .     S
Cu1446 O1502   1.960   .     S
Cu1446 N1489   2.062   .     S
H1449  N1495   1.042   .     S
H1450  N1495   1.045   .     S
H1451  N1496   1.045   .     S
H1452  N1496   1.043   .     S
H1467  C1617   1.098   .     S
H1468  C307    1.110   1_556 S
H1469  N1491   1.045   .     S
H1480  N1491   1.041   .     S
H1481  C309    1.085   1_556 S
H1484  N1492   1.045   .     S
H1485  N1492   1.036   .     S
H1486  N1493   1.045   .     S
H1487  N1681   1.045   .     S
H1488  N1494   1.046   .     S
N1490  N361    1.299   1_556 S
N1490  C308    1.462   1_556 S
N1494  H1636   1.044   .     S
C1505  O1591   1.308   .     A
C1505  O1593   1.316   .     A
C1505  C1534   1.462   .     S
C1506  C1517   1.412   .     A
C1506  C1508   1.404   .     A
C1506  N1586   1.432   .     S
C1507  C1537   1.448   .     S
C1507  C1538   1.403   .     A
C1507  C1509   1.385   .     A
C1508  C1536   1.451   .     S
C1508  C1510   1.387   .     A
C1509  H1541   1.083   .     S
C1509  C1511   1.392   .     A
C1510  H1552   1.083   .     S
C1510  C1512   1.396   .     A
C1511  C1518   1.405   .     A
C1511  C1513   1.416   .     A
C1512  C1519   1.405   .     A
C1512  C1514   1.415   .     A
C1513  C1515   1.427   .     A
C1513  C1608   1.408   .     S
C1514  C1517   1.424   .     A
C1514  C1607   1.408   1_455 S
C1515  C1538   1.415   .     A
C1515  C1533   1.426   .     A
C1516  O1594   1.329   .     A
C1516  O1592   1.294   .     A
C1516  C1535   1.463   .     S
C1517  C1527   1.423   .     A
C1518  N1587   1.437   .     S
C1518  C1621   1.400   .     S
C1519  N1588   1.436   .     S
C1519  C1627   1.400   1_455 S
C1520  H1554   1.113   .     S
C1520  H1553   1.103   .     S
C1520  C1145   1.534   1_565 S
C1520  C1158   1.559   1_565 S
C1521  H1551   1.111   .     S
C1521  H1550   1.098   .     S
C1522  H1549   1.108   .     S
C1522  H1547   1.109   .     S
C1522  C17     1.520   1_566 S
C1522  H420    1.111   1_556 S
C1523  H1560   1.109   .     S
C1523  C1524   1.537   .     S
C1524  H1559   1.099   .     S
C1524  H1558   1.104   .     S
C1524  C1525   1.527   .     S
C1525  H1555   1.110   .     S
C1525  H1557   1.110   .     S
C1525  H1556   1.109   .     S
C1526  C1528   1.561   .     S
C1526  H1568   1.096   .     S
C1526  H441    1.101   1_556 S
C1526  N455    1.459   1_556 S
C1527  N1589   1.437   .     S
C1527  C1612   1.400   1_455 S
C1528  H1567   1.094   .     S
C1528  C401    1.531   1_556 S
C1528  H438    1.105   1_556 S
C1529  H1565   1.111   .     S
C1529  H1564   1.105   .     S
C1530  H1576   1.082   .     S
C1530  C1531   1.541   .     S
C1530  H1577   1.111   .     S
C1531  H1573   1.113   .     S
C1531  C1532   1.530   .     S
C1532  H1570   1.103   .     S
C1532  H1571   1.106   .     S
C1532  H1196   1.108   1_565 S
C1533  N1590   1.436   .     S
C1533  C1613   1.400   .     S
C1535  C1158   1.390   1_565 S
C1535  C1147   1.538   1_565 S
C1536  O1595   1.309   .     A
C1536  O1597   1.311   .     A
C1537  O1598   1.313   .     A
C1537  O1596   1.306   .     A
C1538  N1585   1.431   .     S
Cu1539 Cu1540  2.744   .     S
Cu1539 N1584   2.062   .     S
Cu1539 O1591   1.984   .     S
Cu1539 O1598   1.955   .     S
Cu1539 O1594   1.991   .     S
Cu1539 O1595   1.960   .     S
Cu1540 O1593   1.991   .     S
Cu1540 O1592   1.984   .     S
Cu1540 O1597   1.955   .     S
Cu1540 O1596   1.960   .     S
Cu1540 N1583   2.062   .     S
H1543  N1589   1.042   .     S
H1544  N1589   1.045   .     S
H1545  N1590   1.045   .     S
H1546  N1590   1.043   .     S
H1561  C1147   1.098   1_565 S
H1562  C401    1.110   1_556 S
H1563  N1585   1.045   .     S
H1574  N1585   1.041   .     S
H1575  C403    1.085   1_556 S
H1578  N1586   1.045   .     S
H1579  N1586   1.036   .     S
H1580  N1587   1.045   .     S
H1581  N1211   1.045   1_565 S
H1582  N1588   1.046   .     S
N1584  N455    1.299   1_556 S
N1584  C402    1.462   1_556 S
N1588  H1166   1.044   1_565 S
C1599  O1685   1.308   .     A
C1599  O1687   1.316   .     A
C1599  C1628   1.462   .     S
C1600  C1611   1.412   .     A
C1600  C1602   1.404   .     A
C1600  N1680   1.432   .     S
C1601  C1631   1.448   .     S
C1601  C1632   1.403   .     A
C1601  C1603   1.385   .     A
C1602  C1630   1.451   .     S
C1602  C1604   1.387   .     A
C1603  H1635   1.083   .     S
C1603  C1605   1.392   .     A
C1604  H1646   1.083   .     S
C1604  C1606   1.396   .     A
C1605  C1612   1.405   .     A
C1605  C1607   1.416   .     A
C1606  C1613   1.405   .     A
C1606  C1608   1.415   .     A
C1607  C1609   1.427   .     A
C1607  C1514   1.408   1_655 S
C1608  C1611   1.424   .     A
C1609  C1632   1.415   .     A
C1609  C1627   1.426   .     A
C1610  O1688   1.329   .     A
C1610  O1686   1.294   .     A
C1610  C1629   1.463   .     S
C1611  C1621   1.423   .     A
C1612  N1681   1.437   .     S
C1612  C1527   1.400   1_655 S
C1613  N1682   1.436   .     S
C1614  H1648   1.113   .     S
C1614  H1647   1.103   .     S
C1614  C1239   1.534   1_565 S
C1614  C1252   1.559   1_565 S
C1615  H1645   1.111   .     S
C1615  H1644   1.098   .     S
C1616  H1643   1.108   .     S
C1616  H1641   1.109   .     S
C1616  C111    1.520   1_566 S
C1616  H514    1.111   1_556 S
C1617  H1654   1.109   .     S
C1617  C1618   1.537   .     S
C1618  H1653   1.099   .     S
C1618  H1652   1.104   .     S
C1618  C1619   1.527   .     S
C1619  H1649   1.110   .     S
C1619  H1651   1.110   .     S
C1619  H1650   1.109   .     S
C1620  C1622   1.561   .     S
C1620  H1662   1.096   .     S
C1620  H535    1.101   1_556 S
C1620  N549    1.459   1_556 S
C1621  N1683   1.437   .     S
C1622  H1661   1.094   .     S
C1622  C495    1.531   1_556 S
C1622  H532    1.105   1_556 S
C1623  H1659   1.111   .     S
C1623  H1658   1.105   .     S
C1624  H1670   1.082   .     S
C1624  C1625   1.541   .     S
C1624  H1671   1.111   .     S
C1625  H1667   1.113   .     S
C1625  C1626   1.530   .     S
C1626  H1664   1.103   .     S
C1626  H1665   1.106   .     S
C1626  H1290   1.108   1_565 S
C1627  N1684   1.436   .     S
C1627  C1519   1.400   1_655 S
C1629  C1252   1.390   1_565 S
C1629  C1241   1.538   1_565 S
C1630  O1689   1.309   .     A
C1630  O1691   1.311   .     A
C1631  O1692   1.313   .     A
C1631  O1690   1.306   .     A
C1632  N1679   1.431   .     S
Cu1633 Cu1634  2.744   .     S
Cu1633 N1678   2.062   .     S
Cu1633 O1685   1.984   .     S
Cu1633 O1692   1.955   .     S
Cu1633 O1688   1.991   .     S
Cu1633 O1689   1.960   .     S
Cu1634 O1687   1.991   .     S
Cu1634 O1686   1.984   .     S
Cu1634 O1691   1.955   .     S
Cu1634 O1690   1.960   .     S
Cu1634 N1677   2.062   .     S
H1637  N1683   1.042   .     S
H1638  N1683   1.045   .     S
H1639  N1684   1.045   .     S
H1640  N1684   1.043   .     S
H1655  C1241   1.098   1_565 S
H1656  C495    1.110   1_556 S
H1657  N1679   1.045   .     S
H1668  N1679   1.041   .     S
H1669  C497    1.085   1_556 S
H1672  N1680   1.045   .     S
H1673  N1680   1.036   .     S
H1674  N1681   1.045   .     S
H1675  N1305   1.045   1_565 S
H1676  N1682   1.046   .     S
N1678  N549    1.299   1_556 S
N1678  C496    1.462   1_556 S
N1682  H1260   1.044   1_565 S
