data_str_m3_o10_o16_pcu_sym.63
_audit_creation_date              2020-01-03
_audit_creation_method            'Materials Studio'
_symmetry_space_group_name_H-M    'P1'
_symmetry_Int_Tables_number       1
_symmetry_cell_setting            triclinic
loop_
_symmetry_equiv_pos_as_xyz
  x,y,z
_cell_length_a                    23.5530
_cell_length_b                    25.7599
_cell_length_c                    25.3401
_cell_angle_alpha                 93.6832
_cell_angle_beta                  103.1218
_cell_angle_gamma                 92.9827
loop_
_atom_site_label
_atom_site_type_symbol
_atom_site_fract_x
_atom_site_fract_y
_atom_site_fract_z
_atom_site_U_iso_or_equiv
_atom_site_adp_type
_atom_site_occupancy
C1     C     0.01501   0.26487   0.25070   0.00000  Uiso   1.00
C2     C     0.06012   0.18966   0.41250   0.00000  Uiso   1.00
C3     C     0.02091   0.31917   0.24839   0.00000  Uiso   1.00
C4     C     0.03761   0.17549   0.35404   0.00000  Uiso   1.00
C5     C     0.31875   0.01702   0.26809   0.00000  Uiso   1.00
C6     C     0.32010   0.06901   0.25424   0.00000  Uiso   1.00
C7     C     0.29601   0.16034   0.14615   0.00000  Uiso   1.00
C8     C     0.27894   0.12198   0.49808   0.00000  Uiso   1.00
C9     C     0.27230   0.15082   0.08853   0.00000  Uiso   1.00
C10    C     0.02310   0.20737   0.44487   0.00000  Uiso   1.00
C11    C     0.04183   0.21115   0.00118   0.00000  Uiso   1.00
C12    C     0.13508   0.17868   0.49322   0.00000  Uiso   1.00
C13    C     0.09564   0.19325   0.02542   0.00000  Uiso   1.00
C14    C     0.16911   0.23202   0.37885   0.00000  Uiso   1.00
C15    C     0.11874   0.18342   0.43720   0.00000  Uiso   1.00
C16    C     0.19110   0.16121   0.01394   0.00000  Uiso   1.00
C17    C     0.22557   0.14343   0.47796   0.00000  Uiso   1.00
C18    C     0.21085   0.15589   0.42427   0.00000  Uiso   1.00
C19    C     0.16298   0.18535   0.40842   0.00000  Uiso   1.00
C20    C     0.21591   0.16549   0.06882   0.00000  Uiso   1.00
C21    C     0.30268   0.12599   0.05383   0.00000  Uiso   1.00
H22    H     0.01220   0.11229   0.06941   0.00000  Uiso   1.00
H23    H     0.04967   0.33293   0.22338   0.00000  Uiso   1.00
H24    H     0.25093   0.04557   0.38197   0.00000  Uiso   1.00
H25    H     0.13150   0.25361   0.36260   0.00000  Uiso   1.00
H26    H     0.15701   0.12138   0.21351   0.00000  Uiso   1.00
H27    H     0.17562   0.21420   0.28171   0.00000  Uiso   1.00
H28    H     0.24127   0.15092   0.39842   0.00000  Uiso   1.00
H29    H     0.30455   0.10669   0.47083   0.00000  Uiso   1.00
H30    H     0.19355   0.18431   0.09656   0.00000  Uiso   1.00
H31    H     0.31304   0.21785   0.42685   0.00000  Uiso   1.00
H32    H     0.10474   0.19134   0.06888   0.00000  Uiso   1.00
H33    H     0.01290   0.22457   0.02604   0.00000  Uiso   1.00
N34    N     0.14493   0.15223   0.23542   0.00000  Uiso   1.00
N35    N     0.18840   0.18110   0.26457   0.00000  Uiso   1.00
O36    O     0.29769   0.24629   0.25357   0.00000  Uiso   1.00
O37    O     0.31445   0.29789   0.35552   0.00000  Uiso   1.00
O38    O     0.27526   0.05670   0.35702   0.00000  Uiso   1.00
O39    O     0.21726   0.24915   0.37572   0.00000  Uiso   1.00
O40    O     0.05742   0.23704   0.24423   0.00000  Uiso   1.00
O41    O     0.31490   0.17358   0.33380   0.00000  Uiso   1.00
O42    O     0.07463   0.16433   0.32446   0.00000  Uiso   1.00
O43    O     0.27592   0.09629   0.25576   0.00000  Uiso   1.00
O44    O     0.03565   0.08704   0.24642   0.00000  Uiso   1.00
O45    O     0.25870   0.16901   0.17554   0.00000  Uiso   1.00
O46    O     0.01843   0.15976   0.16620   0.00000  Uiso   1.00
O47    O     0.22114   0.31197   0.29214   0.00000  Uiso   1.00
S48    S     0.28128   0.00208   0.31918   0.00000  Uiso   1.00
Zn49   Zn    0.27119   0.17284   0.25623   0.00000  Uiso   1.00
Zn50   Zn    0.06214   0.16049   0.24376   0.00000  Uiso   1.00
C51    C     0.34834   0.26487   0.25070   0.00000  Uiso   1.00
C52    C     0.39345   0.18966   0.41250   0.00000  Uiso   1.00
C53    C     0.35425   0.31917   0.24839   0.00000  Uiso   1.00
C54    C     0.37094   0.17549   0.35404   0.00000  Uiso   1.00
C55    C     0.65208   0.01702   0.26809   0.00000  Uiso   1.00
C56    C     0.65344   0.06901   0.25424   0.00000  Uiso   1.00
C57    C     0.62934   0.16034   0.14615   0.00000  Uiso   1.00
C58    C     0.61228   0.12198   0.49808   0.00000  Uiso   1.00
C59    C     0.60563   0.15082   0.08853   0.00000  Uiso   1.00
C60    C     0.35643   0.20737   0.44487   0.00000  Uiso   1.00
C61    C     0.37517   0.21115   0.00118   0.00000  Uiso   1.00
C62    C     0.46841   0.17868   0.49322   0.00000  Uiso   1.00
C63    C     0.42897   0.19325   0.02542   0.00000  Uiso   1.00
C64    C     0.50244   0.23202   0.37885   0.00000  Uiso   1.00
C65    C     0.45207   0.18342   0.43720   0.00000  Uiso   1.00
C66    C     0.52443   0.16121   0.01394   0.00000  Uiso   1.00
C67    C     0.55890   0.14343   0.47796   0.00000  Uiso   1.00
C68    C     0.54418   0.15589   0.42427   0.00000  Uiso   1.00
C69    C     0.49631   0.18535   0.40842   0.00000  Uiso   1.00
C70    C     0.54924   0.16549   0.06882   0.00000  Uiso   1.00
C71    C     0.63602   0.12599   0.05383   0.00000  Uiso   1.00
H72    H     0.34554   0.11229   0.06941   0.00000  Uiso   1.00
H73    H     0.38301   0.33293   0.22338   0.00000  Uiso   1.00
H74    H     0.58426   0.04557   0.38197   0.00000  Uiso   1.00
H75    H     0.46484   0.25361   0.36260   0.00000  Uiso   1.00
H76    H     0.49035   0.12138   0.21351   0.00000  Uiso   1.00
H77    H     0.50895   0.21420   0.28171   0.00000  Uiso   1.00
H78    H     0.57460   0.15092   0.39842   0.00000  Uiso   1.00
H79    H     0.63788   0.10669   0.47083   0.00000  Uiso   1.00
H80    H     0.52689   0.18431   0.09656   0.00000  Uiso   1.00
H81    H     0.64637   0.21785   0.42685   0.00000  Uiso   1.00
H82    H     0.43807   0.19134   0.06888   0.00000  Uiso   1.00
H83    H     0.34624   0.22457   0.02604   0.00000  Uiso   1.00
N84    N     0.47827   0.15223   0.23542   0.00000  Uiso   1.00
N85    N     0.52173   0.18110   0.26457   0.00000  Uiso   1.00
O86    O     0.63102   0.24629   0.25357   0.00000  Uiso   1.00
O87    O     0.64779   0.29789   0.35552   0.00000  Uiso   1.00
O88    O     0.60859   0.05670   0.35702   0.00000  Uiso   1.00
O89    O     0.55060   0.24915   0.37572   0.00000  Uiso   1.00
O90    O     0.39075   0.23704   0.24423   0.00000  Uiso   1.00
O91    O     0.64823   0.17358   0.33380   0.00000  Uiso   1.00
O92    O     0.40796   0.16433   0.32446   0.00000  Uiso   1.00
O93    O     0.60925   0.09629   0.25576   0.00000  Uiso   1.00
O94    O     0.36898   0.08704   0.24642   0.00000  Uiso   1.00
O95    O     0.59204   0.16901   0.17554   0.00000  Uiso   1.00
O96    O     0.35177   0.15976   0.16620   0.00000  Uiso   1.00
O97    O     0.55447   0.31197   0.29214   0.00000  Uiso   1.00
S98    S     0.61461   0.00208   0.31918   0.00000  Uiso   1.00
Zn99   Zn    0.60453   0.17284   0.25623   0.00000  Uiso   1.00
Zn100  Zn    0.39547   0.16049   0.24376   0.00000  Uiso   1.00
C101   C     0.68168   0.26487   0.25070   0.00000  Uiso   1.00
C102   C     0.72679   0.18966   0.41250   0.00000  Uiso   1.00
C103   C     0.68758   0.31917   0.24839   0.00000  Uiso   1.00
C104   C     0.70427   0.17549   0.35404   0.00000  Uiso   1.00
C105   C     0.98542   0.01702   0.26809   0.00000  Uiso   1.00
C106   C     0.98677   0.06901   0.25424   0.00000  Uiso   1.00
C107   C     0.96268   0.16034   0.14615   0.00000  Uiso   1.00
C108   C     0.94561   0.12198   0.49808   0.00000  Uiso   1.00
C109   C     0.93897   0.15082   0.08853   0.00000  Uiso   1.00
C110   C     0.68977   0.20737   0.44487   0.00000  Uiso   1.00
C111   C     0.70850   0.21115   0.00118   0.00000  Uiso   1.00
C112   C     0.80175   0.17868   0.49322   0.00000  Uiso   1.00
C113   C     0.76230   0.19325   0.02542   0.00000  Uiso   1.00
C114   C     0.83577   0.23202   0.37885   0.00000  Uiso   1.00
C115   C     0.78541   0.18342   0.43720   0.00000  Uiso   1.00
C116   C     0.85777   0.16121   0.01394   0.00000  Uiso   1.00
C117   C     0.89224   0.14343   0.47796   0.00000  Uiso   1.00
C118   C     0.87752   0.15589   0.42427   0.00000  Uiso   1.00
C119   C     0.82964   0.18535   0.40842   0.00000  Uiso   1.00
C120   C     0.88258   0.16549   0.06882   0.00000  Uiso   1.00
C121   C     0.96935   0.12599   0.05383   0.00000  Uiso   1.00
H122   H     0.67887   0.11229   0.06941   0.00000  Uiso   1.00
H123   H     0.71634   0.33293   0.22338   0.00000  Uiso   1.00
H124   H     0.91760   0.04557   0.38197   0.00000  Uiso   1.00
H125   H     0.79817   0.25361   0.36260   0.00000  Uiso   1.00
H126   H     0.82368   0.12138   0.21351   0.00000  Uiso   1.00
H127   H     0.84228   0.21420   0.28171   0.00000  Uiso   1.00
H128   H     0.90793   0.15092   0.39842   0.00000  Uiso   1.00
H129   H     0.97121   0.10669   0.47083   0.00000  Uiso   1.00
H130   H     0.86022   0.18431   0.09656   0.00000  Uiso   1.00
H131   H     0.97971   0.21785   0.42685   0.00000  Uiso   1.00
H132   H     0.77140   0.19134   0.06888   0.00000  Uiso   1.00
H133   H     0.67957   0.22457   0.02604   0.00000  Uiso   1.00
N134   N     0.81160   0.15223   0.23542   0.00000  Uiso   1.00
N135   N     0.85507   0.18110   0.26457   0.00000  Uiso   1.00
O136   O     0.96435   0.24629   0.25357   0.00000  Uiso   1.00
O137   O     0.98112   0.29789   0.35552   0.00000  Uiso   1.00
O138   O     0.94192   0.05670   0.35702   0.00000  Uiso   1.00
O139   O     0.88393   0.24915   0.37572   0.00000  Uiso   1.00
O140   O     0.72408   0.23704   0.24423   0.00000  Uiso   1.00
O141   O     0.98157   0.17358   0.33380   0.00000  Uiso   1.00
O142   O     0.74130   0.16433   0.32446   0.00000  Uiso   1.00
O143   O     0.94258   0.09629   0.25576   0.00000  Uiso   1.00
O144   O     0.70231   0.08704   0.24642   0.00000  Uiso   1.00
O145   O     0.92537   0.16901   0.17554   0.00000  Uiso   1.00
O146   O     0.68510   0.15976   0.16620   0.00000  Uiso   1.00
O147   O     0.88781   0.31197   0.29214   0.00000  Uiso   1.00
S148   S     0.94794   0.00208   0.31918   0.00000  Uiso   1.00
Zn149  Zn    0.93786   0.17284   0.25623   0.00000  Uiso   1.00
Zn150  Zn    0.72881   0.16049   0.24376   0.00000  Uiso   1.00
C151   C     0.01501   0.59820   0.25070   0.00000  Uiso   1.00
C152   C     0.06012   0.52300   0.41250   0.00000  Uiso   1.00
C153   C     0.02091   0.65250   0.24839   0.00000  Uiso   1.00
C154   C     0.03761   0.50883   0.35404   0.00000  Uiso   1.00
C155   C     0.31875   0.35036   0.26809   0.00000  Uiso   1.00
C156   C     0.32010   0.40234   0.25424   0.00000  Uiso   1.00
C157   C     0.29601   0.49367   0.14615   0.00000  Uiso   1.00
C158   C     0.27894   0.45531   0.49808   0.00000  Uiso   1.00
C159   C     0.27230   0.48416   0.08853   0.00000  Uiso   1.00
C160   C     0.02310   0.54071   0.44487   0.00000  Uiso   1.00
C161   C     0.04183   0.54448   0.00118   0.00000  Uiso   1.00
C162   C     0.13508   0.51201   0.49322   0.00000  Uiso   1.00
C163   C     0.09564   0.52658   0.02542   0.00000  Uiso   1.00
C164   C     0.16911   0.56536   0.37885   0.00000  Uiso   1.00
C165   C     0.11874   0.51675   0.43720   0.00000  Uiso   1.00
C166   C     0.19110   0.49454   0.01394   0.00000  Uiso   1.00
C167   C     0.22557   0.47676   0.47796   0.00000  Uiso   1.00
C168   C     0.21085   0.48922   0.42427   0.00000  Uiso   1.00
C169   C     0.16298   0.51868   0.40842   0.00000  Uiso   1.00
C170   C     0.21591   0.49882   0.06882   0.00000  Uiso   1.00
C171   C     0.30268   0.45932   0.05383   0.00000  Uiso   1.00
H172   H     0.01220   0.44563   0.06941   0.00000  Uiso   1.00
H173   H     0.04967   0.66626   0.22338   0.00000  Uiso   1.00
H174   H     0.25093   0.37891   0.38197   0.00000  Uiso   1.00
H175   H     0.13150   0.58695   0.36260   0.00000  Uiso   1.00
H176   H     0.15701   0.45471   0.21351   0.00000  Uiso   1.00
H177   H     0.17562   0.54753   0.28171   0.00000  Uiso   1.00
H178   H     0.24127   0.48425   0.39842   0.00000  Uiso   1.00
H179   H     0.30455   0.44002   0.47083   0.00000  Uiso   1.00
H180   H     0.19355   0.51765   0.09656   0.00000  Uiso   1.00
H181   H     0.31304   0.55118   0.42685   0.00000  Uiso   1.00
H182   H     0.10474   0.52467   0.06888   0.00000  Uiso   1.00
H183   H     0.01290   0.55791   0.02604   0.00000  Uiso   1.00
N184   N     0.14493   0.48556   0.23542   0.00000  Uiso   1.00
N185   N     0.18840   0.51444   0.26457   0.00000  Uiso   1.00
O186   O     0.29769   0.57963   0.25357   0.00000  Uiso   1.00
O187   O     0.31445   0.63122   0.35552   0.00000  Uiso   1.00
O188   O     0.27526   0.39004   0.35702   0.00000  Uiso   1.00
O189   O     0.21726   0.58249   0.37572   0.00000  Uiso   1.00
O190   O     0.05742   0.57038   0.24423   0.00000  Uiso   1.00
O191   O     0.31490   0.50691   0.33380   0.00000  Uiso   1.00
O192   O     0.07463   0.49766   0.32446   0.00000  Uiso   1.00
O193   O     0.27592   0.42962   0.25576   0.00000  Uiso   1.00
O194   O     0.03565   0.42037   0.24642   0.00000  Uiso   1.00
O195   O     0.25870   0.50234   0.17554   0.00000  Uiso   1.00
O196   O     0.01843   0.49309   0.16620   0.00000  Uiso   1.00
O197   O     0.22114   0.64530   0.29214   0.00000  Uiso   1.00
S198   S     0.28128   0.33541   0.31918   0.00000  Uiso   1.00
Zn199  Zn    0.27119   0.50618   0.25623   0.00000  Uiso   1.00
Zn200  Zn    0.06214   0.49382   0.24376   0.00000  Uiso   1.00
C201   C     0.34834   0.59820   0.25070   0.00000  Uiso   1.00
C202   C     0.39345   0.52300   0.41250   0.00000  Uiso   1.00
C203   C     0.35425   0.65250   0.24839   0.00000  Uiso   1.00
C204   C     0.37094   0.50883   0.35404   0.00000  Uiso   1.00
C205   C     0.65208   0.35036   0.26809   0.00000  Uiso   1.00
C206   C     0.65344   0.40234   0.25424   0.00000  Uiso   1.00
C207   C     0.62934   0.49367   0.14615   0.00000  Uiso   1.00
C208   C     0.61228   0.45531   0.49808   0.00000  Uiso   1.00
C209   C     0.60563   0.48416   0.08853   0.00000  Uiso   1.00
C210   C     0.35643   0.54071   0.44487   0.00000  Uiso   1.00
C211   C     0.37517   0.54448   0.00118   0.00000  Uiso   1.00
C212   C     0.46841   0.51201   0.49322   0.00000  Uiso   1.00
C213   C     0.42897   0.52658   0.02542   0.00000  Uiso   1.00
C214   C     0.50244   0.56536   0.37885   0.00000  Uiso   1.00
C215   C     0.45207   0.51675   0.43720   0.00000  Uiso   1.00
C216   C     0.52443   0.49454   0.01394   0.00000  Uiso   1.00
C217   C     0.55890   0.47676   0.47796   0.00000  Uiso   1.00
C218   C     0.54418   0.48922   0.42427   0.00000  Uiso   1.00
C219   C     0.49631   0.51868   0.40842   0.00000  Uiso   1.00
C220   C     0.54924   0.49882   0.06882   0.00000  Uiso   1.00
C221   C     0.63602   0.45932   0.05383   0.00000  Uiso   1.00
H222   H     0.34554   0.44563   0.06941   0.00000  Uiso   1.00
H223   H     0.38301   0.66626   0.22338   0.00000  Uiso   1.00
H224   H     0.58426   0.37891   0.38197   0.00000  Uiso   1.00
H225   H     0.46484   0.58695   0.36260   0.00000  Uiso   1.00
H226   H     0.49035   0.45471   0.21351   0.00000  Uiso   1.00
H227   H     0.50895   0.54753   0.28171   0.00000  Uiso   1.00
H228   H     0.57460   0.48425   0.39842   0.00000  Uiso   1.00
H229   H     0.63788   0.44002   0.47083   0.00000  Uiso   1.00
H230   H     0.52689   0.51765   0.09656   0.00000  Uiso   1.00
H231   H     0.64637   0.55118   0.42685   0.00000  Uiso   1.00
H232   H     0.43807   0.52467   0.06888   0.00000  Uiso   1.00
H233   H     0.34624   0.55791   0.02604   0.00000  Uiso   1.00
N234   N     0.47827   0.48556   0.23542   0.00000  Uiso   1.00
N235   N     0.52173   0.51444   0.26457   0.00000  Uiso   1.00
O236   O     0.63102   0.57963   0.25357   0.00000  Uiso   1.00
O237   O     0.64779   0.63122   0.35552   0.00000  Uiso   1.00
O238   O     0.60859   0.39004   0.35702   0.00000  Uiso   1.00
O239   O     0.55060   0.58249   0.37572   0.00000  Uiso   1.00
O240   O     0.39075   0.57038   0.24423   0.00000  Uiso   1.00
O241   O     0.64823   0.50691   0.33380   0.00000  Uiso   1.00
O242   O     0.40796   0.49766   0.32446   0.00000  Uiso   1.00
O243   O     0.60925   0.42962   0.25576   0.00000  Uiso   1.00
O244   O     0.36898   0.42037   0.24642   0.00000  Uiso   1.00
O245   O     0.59204   0.50234   0.17554   0.00000  Uiso   1.00
O246   O     0.35177   0.49309   0.16620   0.00000  Uiso   1.00
O247   O     0.55447   0.64530   0.29214   0.00000  Uiso   1.00
S248   S     0.61461   0.33541   0.31918   0.00000  Uiso   1.00
Zn249  Zn    0.60453   0.50618   0.25623   0.00000  Uiso   1.00
Zn250  Zn    0.39547   0.49382   0.24376   0.00000  Uiso   1.00
C251   C     0.68168   0.59820   0.25070   0.00000  Uiso   1.00
C252   C     0.72679   0.52300   0.41250   0.00000  Uiso   1.00
C253   C     0.68758   0.65250   0.24839   0.00000  Uiso   1.00
C254   C     0.70427   0.50883   0.35404   0.00000  Uiso   1.00
C255   C     0.98542   0.35036   0.26809   0.00000  Uiso   1.00
C256   C     0.98677   0.40234   0.25424   0.00000  Uiso   1.00
C257   C     0.96268   0.49367   0.14615   0.00000  Uiso   1.00
C258   C     0.94561   0.45531   0.49808   0.00000  Uiso   1.00
C259   C     0.93897   0.48416   0.08853   0.00000  Uiso   1.00
C260   C     0.68977   0.54071   0.44487   0.00000  Uiso   1.00
C261   C     0.70850   0.54448   0.00118   0.00000  Uiso   1.00
C262   C     0.80175   0.51201   0.49322   0.00000  Uiso   1.00
C263   C     0.76230   0.52658   0.02542   0.00000  Uiso   1.00
C264   C     0.83577   0.56536   0.37885   0.00000  Uiso   1.00
C265   C     0.78541   0.51675   0.43720   0.00000  Uiso   1.00
C266   C     0.85777   0.49454   0.01394   0.00000  Uiso   1.00
C267   C     0.89224   0.47676   0.47796   0.00000  Uiso   1.00
C268   C     0.87752   0.48922   0.42427   0.00000  Uiso   1.00
C269   C     0.82964   0.51868   0.40842   0.00000  Uiso   1.00
C270   C     0.88258   0.49882   0.06882   0.00000  Uiso   1.00
C271   C     0.96935   0.45932   0.05383   0.00000  Uiso   1.00
H272   H     0.67887   0.44563   0.06941   0.00000  Uiso   1.00
H273   H     0.71634   0.66626   0.22338   0.00000  Uiso   1.00
H274   H     0.91760   0.37891   0.38197   0.00000  Uiso   1.00
H275   H     0.79817   0.58695   0.36260   0.00000  Uiso   1.00
H276   H     0.82368   0.45471   0.21351   0.00000  Uiso   1.00
H277   H     0.84228   0.54753   0.28171   0.00000  Uiso   1.00
H278   H     0.90793   0.48425   0.39842   0.00000  Uiso   1.00
H279   H     0.97121   0.44002   0.47083   0.00000  Uiso   1.00
H280   H     0.86022   0.51765   0.09656   0.00000  Uiso   1.00
H281   H     0.97971   0.55118   0.42685   0.00000  Uiso   1.00
H282   H     0.77140   0.52467   0.06888   0.00000  Uiso   1.00
H283   H     0.67957   0.55791   0.02604   0.00000  Uiso   1.00
N284   N     0.81160   0.48556   0.23542   0.00000  Uiso   1.00
N285   N     0.85507   0.51444   0.26457   0.00000  Uiso   1.00
O286   O     0.96435   0.57963   0.25357   0.00000  Uiso   1.00
O287   O     0.98112   0.63122   0.35552   0.00000  Uiso   1.00
O288   O     0.94192   0.39004   0.35702   0.00000  Uiso   1.00
O289   O     0.88393   0.58249   0.37572   0.00000  Uiso   1.00
O290   O     0.72408   0.57038   0.24423   0.00000  Uiso   1.00
O291   O     0.98157   0.50691   0.33380   0.00000  Uiso   1.00
O292   O     0.74130   0.49766   0.32446   0.00000  Uiso   1.00
O293   O     0.94258   0.42962   0.25576   0.00000  Uiso   1.00
O294   O     0.70231   0.42037   0.24642   0.00000  Uiso   1.00
O295   O     0.92537   0.50234   0.17554   0.00000  Uiso   1.00
O296   O     0.68510   0.49309   0.16620   0.00000  Uiso   1.00
O297   O     0.88781   0.64530   0.29214   0.00000  Uiso   1.00
S298   S     0.94794   0.33541   0.31918   0.00000  Uiso   1.00
Zn299  Zn    0.93786   0.50618   0.25623   0.00000  Uiso   1.00
Zn300  Zn    0.72881   0.49382   0.24376   0.00000  Uiso   1.00
C301   C     0.01501   0.93153   0.25070   0.00000  Uiso   1.00
C302   C     0.06012   0.85633   0.41250   0.00000  Uiso   1.00
C303   C     0.02091   0.98583   0.24839   0.00000  Uiso   1.00
C304   C     0.03761   0.84216   0.35404   0.00000  Uiso   1.00
C305   C     0.31875   0.68369   0.26809   0.00000  Uiso   1.00
C306   C     0.32010   0.73568   0.25424   0.00000  Uiso   1.00
C307   C     0.29601   0.82701   0.14615   0.00000  Uiso   1.00
C308   C     0.27894   0.78865   0.49808   0.00000  Uiso   1.00
C309   C     0.27230   0.81749   0.08853   0.00000  Uiso   1.00
C310   C     0.02310   0.87404   0.44487   0.00000  Uiso   1.00
C311   C     0.04183   0.87781   0.00118   0.00000  Uiso   1.00
C312   C     0.13508   0.84535   0.49322   0.00000  Uiso   1.00
C313   C     0.09564   0.85992   0.02542   0.00000  Uiso   1.00
C314   C     0.16911   0.89869   0.37885   0.00000  Uiso   1.00
C315   C     0.11874   0.85008   0.43720   0.00000  Uiso   1.00
C316   C     0.19110   0.82788   0.01394   0.00000  Uiso   1.00
C317   C     0.22557   0.81009   0.47796   0.00000  Uiso   1.00
C318   C     0.21085   0.82255   0.42427   0.00000  Uiso   1.00
C319   C     0.16298   0.85201   0.40842   0.00000  Uiso   1.00
C320   C     0.21591   0.83215   0.06882   0.00000  Uiso   1.00
C321   C     0.30268   0.79266   0.05383   0.00000  Uiso   1.00
H322   H     0.01220   0.77896   0.06941   0.00000  Uiso   1.00
H323   H     0.04967   0.99960   0.22338   0.00000  Uiso   1.00
H324   H     0.25093   0.71224   0.38197   0.00000  Uiso   1.00
H325   H     0.13150   0.92028   0.36260   0.00000  Uiso   1.00
H326   H     0.15701   0.78805   0.21351   0.00000  Uiso   1.00
H327   H     0.17562   0.88086   0.28171   0.00000  Uiso   1.00
H328   H     0.24127   0.81759   0.39842   0.00000  Uiso   1.00
H329   H     0.30455   0.77336   0.47083   0.00000  Uiso   1.00
H330   H     0.19355   0.85098   0.09656   0.00000  Uiso   1.00
H331   H     0.31304   0.88451   0.42685   0.00000  Uiso   1.00
H332   H     0.10474   0.85800   0.06888   0.00000  Uiso   1.00
H333   H     0.01290   0.89124   0.02604   0.00000  Uiso   1.00
N334   N     0.14493   0.81890   0.23542   0.00000  Uiso   1.00
N335   N     0.18840   0.84777   0.26457   0.00000  Uiso   1.00
O336   O     0.29769   0.91296   0.25357   0.00000  Uiso   1.00
O337   O     0.31445   0.96456   0.35552   0.00000  Uiso   1.00
O338   O     0.27526   0.72337   0.35702   0.00000  Uiso   1.00
O339   O     0.21726   0.91582   0.37572   0.00000  Uiso   1.00
O340   O     0.05742   0.90371   0.24423   0.00000  Uiso   1.00
O341   O     0.31490   0.84024   0.33380   0.00000  Uiso   1.00
O342   O     0.07463   0.83099   0.32446   0.00000  Uiso   1.00
O343   O     0.27592   0.76296   0.25576   0.00000  Uiso   1.00
O344   O     0.03565   0.75371   0.24642   0.00000  Uiso   1.00
O345   O     0.25870   0.83567   0.17554   0.00000  Uiso   1.00
O346   O     0.01843   0.82642   0.16620   0.00000  Uiso   1.00
O347   O     0.22114   0.97864   0.29214   0.00000  Uiso   1.00
S348   S     0.28128   0.66874   0.31918   0.00000  Uiso   1.00
Zn349  Zn    0.27119   0.83951   0.25623   0.00000  Uiso   1.00
Zn350  Zn    0.06214   0.82716   0.24376   0.00000  Uiso   1.00
C351   C     0.34834   0.93153   0.25070   0.00000  Uiso   1.00
C352   C     0.39345   0.85633   0.41250   0.00000  Uiso   1.00
C353   C     0.35425   0.98583   0.24839   0.00000  Uiso   1.00
C354   C     0.37094   0.84216   0.35404   0.00000  Uiso   1.00
C355   C     0.65208   0.68369   0.26809   0.00000  Uiso   1.00
C356   C     0.65344   0.73568   0.25424   0.00000  Uiso   1.00
C357   C     0.62934   0.82701   0.14615   0.00000  Uiso   1.00
C358   C     0.61228   0.78865   0.49808   0.00000  Uiso   1.00
C359   C     0.60563   0.81749   0.08853   0.00000  Uiso   1.00
C360   C     0.35643   0.87404   0.44487   0.00000  Uiso   1.00
C361   C     0.37517   0.87781   0.00118   0.00000  Uiso   1.00
C362   C     0.46841   0.84535   0.49322   0.00000  Uiso   1.00
C363   C     0.42897   0.85992   0.02542   0.00000  Uiso   1.00
C364   C     0.50244   0.89869   0.37885   0.00000  Uiso   1.00
C365   C     0.45207   0.85008   0.43720   0.00000  Uiso   1.00
C366   C     0.52443   0.82788   0.01394   0.00000  Uiso   1.00
C367   C     0.55890   0.81009   0.47796   0.00000  Uiso   1.00
C368   C     0.54418   0.82255   0.42427   0.00000  Uiso   1.00
C369   C     0.49631   0.85201   0.40842   0.00000  Uiso   1.00
C370   C     0.54924   0.83215   0.06882   0.00000  Uiso   1.00
C371   C     0.63602   0.79266   0.05383   0.00000  Uiso   1.00
H372   H     0.34554   0.77896   0.06941   0.00000  Uiso   1.00
H373   H     0.38301   0.99960   0.22338   0.00000  Uiso   1.00
H374   H     0.58426   0.71224   0.38197   0.00000  Uiso   1.00
H375   H     0.46484   0.92028   0.36260   0.00000  Uiso   1.00
H376   H     0.49035   0.78805   0.21351   0.00000  Uiso   1.00
H377   H     0.50895   0.88086   0.28171   0.00000  Uiso   1.00
H378   H     0.57460   0.81759   0.39842   0.00000  Uiso   1.00
H379   H     0.63788   0.77336   0.47083   0.00000  Uiso   1.00
H380   H     0.52689   0.85098   0.09656   0.00000  Uiso   1.00
H381   H     0.64637   0.88451   0.42685   0.00000  Uiso   1.00
H382   H     0.43807   0.85800   0.06888   0.00000  Uiso   1.00
H383   H     0.34624   0.89124   0.02604   0.00000  Uiso   1.00
N384   N     0.47827   0.81890   0.23542   0.00000  Uiso   1.00
N385   N     0.52173   0.84777   0.26457   0.00000  Uiso   1.00
O386   O     0.63102   0.91296   0.25357   0.00000  Uiso   1.00
O387   O     0.64779   0.96456   0.35552   0.00000  Uiso   1.00
O388   O     0.60859   0.72337   0.35702   0.00000  Uiso   1.00
O389   O     0.55060   0.91582   0.37572   0.00000  Uiso   1.00
O390   O     0.39075   0.90371   0.24423   0.00000  Uiso   1.00
O391   O     0.64823   0.84024   0.33380   0.00000  Uiso   1.00
O392   O     0.40796   0.83099   0.32446   0.00000  Uiso   1.00
O393   O     0.60925   0.76296   0.25576   0.00000  Uiso   1.00
O394   O     0.36898   0.75371   0.24642   0.00000  Uiso   1.00
O395   O     0.59204   0.83567   0.17554   0.00000  Uiso   1.00
O396   O     0.35177   0.82642   0.16620   0.00000  Uiso   1.00
O397   O     0.55447   0.97864   0.29214   0.00000  Uiso   1.00
S398   S     0.61461   0.66874   0.31918   0.00000  Uiso   1.00
Zn399  Zn    0.60453   0.83951   0.25623   0.00000  Uiso   1.00
Zn400  Zn    0.39547   0.82716   0.24376   0.00000  Uiso   1.00
C401   C     0.68168   0.93153   0.25070   0.00000  Uiso   1.00
C402   C     0.72679   0.85633   0.41250   0.00000  Uiso   1.00
C403   C     0.68758   0.98583   0.24839   0.00000  Uiso   1.00
C404   C     0.70427   0.84216   0.35404   0.00000  Uiso   1.00
C405   C     0.98542   0.68369   0.26809   0.00000  Uiso   1.00
C406   C     0.98677   0.73568   0.25424   0.00000  Uiso   1.00
C407   C     0.96268   0.82701   0.14615   0.00000  Uiso   1.00
C408   C     0.94561   0.78865   0.49808   0.00000  Uiso   1.00
C409   C     0.93897   0.81749   0.08853   0.00000  Uiso   1.00
C410   C     0.68977   0.87404   0.44487   0.00000  Uiso   1.00
C411   C     0.70850   0.87781   0.00118   0.00000  Uiso   1.00
C412   C     0.80175   0.84535   0.49322   0.00000  Uiso   1.00
C413   C     0.76230   0.85992   0.02542   0.00000  Uiso   1.00
C414   C     0.83577   0.89869   0.37885   0.00000  Uiso   1.00
C415   C     0.78541   0.85008   0.43720   0.00000  Uiso   1.00
C416   C     0.85777   0.82788   0.01394   0.00000  Uiso   1.00
C417   C     0.89224   0.81009   0.47796   0.00000  Uiso   1.00
C418   C     0.87752   0.82255   0.42427   0.00000  Uiso   1.00
C419   C     0.82964   0.85201   0.40842   0.00000  Uiso   1.00
C420   C     0.88258   0.83215   0.06882   0.00000  Uiso   1.00
C421   C     0.96935   0.79266   0.05383   0.00000  Uiso   1.00
H422   H     0.67887   0.77896   0.06941   0.00000  Uiso   1.00
H423   H     0.71634   0.99960   0.22338   0.00000  Uiso   1.00
H424   H     0.91760   0.71224   0.38197   0.00000  Uiso   1.00
H425   H     0.79817   0.92028   0.36260   0.00000  Uiso   1.00
H426   H     0.82368   0.78805   0.21351   0.00000  Uiso   1.00
H427   H     0.84228   0.88086   0.28171   0.00000  Uiso   1.00
H428   H     0.90793   0.81759   0.39842   0.00000  Uiso   1.00
H429   H     0.97121   0.77336   0.47083   0.00000  Uiso   1.00
H430   H     0.86022   0.85098   0.09656   0.00000  Uiso   1.00
H431   H     0.97971   0.88451   0.42685   0.00000  Uiso   1.00
H432   H     0.77140   0.85800   0.06888   0.00000  Uiso   1.00
H433   H     0.67957   0.89124   0.02604   0.00000  Uiso   1.00
N434   N     0.81160   0.81890   0.23542   0.00000  Uiso   1.00
N435   N     0.85507   0.84777   0.26457   0.00000  Uiso   1.00
O436   O     0.96435   0.91296   0.25357   0.00000  Uiso   1.00
O437   O     0.98112   0.96456   0.35552   0.00000  Uiso   1.00
O438   O     0.94192   0.72337   0.35702   0.00000  Uiso   1.00
O439   O     0.88393   0.91582   0.37572   0.00000  Uiso   1.00
O440   O     0.72408   0.90371   0.24423   0.00000  Uiso   1.00
O441   O     0.98157   0.84024   0.33380   0.00000  Uiso   1.00
O442   O     0.74130   0.83099   0.32446   0.00000  Uiso   1.00
O443   O     0.94258   0.76296   0.25576   0.00000  Uiso   1.00
O444   O     0.70231   0.75371   0.24642   0.00000  Uiso   1.00
O445   O     0.92537   0.83567   0.17554   0.00000  Uiso   1.00
O446   O     0.68510   0.82642   0.16620   0.00000  Uiso   1.00
O447   O     0.88781   0.97864   0.29214   0.00000  Uiso   1.00
S448   S     0.94794   0.66874   0.31918   0.00000  Uiso   1.00
Zn449  Zn    0.93786   0.83951   0.25623   0.00000  Uiso   1.00
Zn450  Zn    0.72881   0.82716   0.24376   0.00000  Uiso   1.00
C451   C     0.01501   0.26487   0.75070   0.00000  Uiso   1.00
C452   C     0.06012   0.18966   0.91250   0.00000  Uiso   1.00
C453   C     0.02091   0.31917   0.74839   0.00000  Uiso   1.00
C454   C     0.03761   0.17549   0.85404   0.00000  Uiso   1.00
C455   C     0.31875   0.01702   0.76809   0.00000  Uiso   1.00
C456   C     0.32010   0.06901   0.75424   0.00000  Uiso   1.00
C457   C     0.29601   0.16034   0.64615   0.00000  Uiso   1.00
C458   C     0.27894   0.12198   0.99808   0.00000  Uiso   1.00
C459   C     0.27230   0.15082   0.58853   0.00000  Uiso   1.00
C460   C     0.02310   0.20737   0.94487   0.00000  Uiso   1.00
C461   C     0.04183   0.21115   0.50118   0.00000  Uiso   1.00
C462   C     0.13508   0.17868   0.99322   0.00000  Uiso   1.00
C463   C     0.09564   0.19325   0.52542   0.00000  Uiso   1.00
C464   C     0.16911   0.23202   0.87885   0.00000  Uiso   1.00
C465   C     0.11874   0.18342   0.93720   0.00000  Uiso   1.00
C466   C     0.19110   0.16121   0.51394   0.00000  Uiso   1.00
C467   C     0.22557   0.14343   0.97796   0.00000  Uiso   1.00
C468   C     0.21085   0.15589   0.92427   0.00000  Uiso   1.00
C469   C     0.16298   0.18535   0.90842   0.00000  Uiso   1.00
C470   C     0.21591   0.16549   0.56882   0.00000  Uiso   1.00
C471   C     0.30268   0.12599   0.55383   0.00000  Uiso   1.00
H472   H     0.01220   0.11229   0.56941   0.00000  Uiso   1.00
H473   H     0.04967   0.33293   0.72338   0.00000  Uiso   1.00
H474   H     0.25093   0.04557   0.88197   0.00000  Uiso   1.00
H475   H     0.13150   0.25361   0.86260   0.00000  Uiso   1.00
H476   H     0.15701   0.12138   0.71351   0.00000  Uiso   1.00
H477   H     0.17562   0.21420   0.78171   0.00000  Uiso   1.00
H478   H     0.24127   0.15092   0.89842   0.00000  Uiso   1.00
H479   H     0.30455   0.10669   0.97083   0.00000  Uiso   1.00
H480   H     0.19355   0.18431   0.59656   0.00000  Uiso   1.00
H481   H     0.31304   0.21785   0.92685   0.00000  Uiso   1.00
H482   H     0.10474   0.19134   0.56888   0.00000  Uiso   1.00
H483   H     0.01290   0.22457   0.52604   0.00000  Uiso   1.00
N484   N     0.14493   0.15223   0.73542   0.00000  Uiso   1.00
N485   N     0.18840   0.18110   0.76457   0.00000  Uiso   1.00
O486   O     0.29769   0.24629   0.75357   0.00000  Uiso   1.00
O487   O     0.31445   0.29789   0.85552   0.00000  Uiso   1.00
O488   O     0.27526   0.05670   0.85702   0.00000  Uiso   1.00
O489   O     0.21726   0.24915   0.87572   0.00000  Uiso   1.00
O490   O     0.05742   0.23704   0.74423   0.00000  Uiso   1.00
O491   O     0.31490   0.17358   0.83380   0.00000  Uiso   1.00
O492   O     0.07463   0.16433   0.82446   0.00000  Uiso   1.00
O493   O     0.27592   0.09629   0.75576   0.00000  Uiso   1.00
O494   O     0.03565   0.08704   0.74642   0.00000  Uiso   1.00
O495   O     0.25870   0.16901   0.67554   0.00000  Uiso   1.00
O496   O     0.01843   0.15976   0.66620   0.00000  Uiso   1.00
O497   O     0.22114   0.31197   0.79214   0.00000  Uiso   1.00
S498   S     0.28128   0.00208   0.81918   0.00000  Uiso   1.00
Zn499  Zn    0.27119   0.17284   0.75623   0.00000  Uiso   1.00
Zn500  Zn    0.06214   0.16049   0.74376   0.00000  Uiso   1.00
C501   C     0.34834   0.26487   0.75070   0.00000  Uiso   1.00
C502   C     0.39345   0.18966   0.91250   0.00000  Uiso   1.00
C503   C     0.35425   0.31917   0.74839   0.00000  Uiso   1.00
C504   C     0.37094   0.17549   0.85404   0.00000  Uiso   1.00
C505   C     0.65208   0.01702   0.76809   0.00000  Uiso   1.00
C506   C     0.65344   0.06901   0.75424   0.00000  Uiso   1.00
C507   C     0.62934   0.16034   0.64615   0.00000  Uiso   1.00
C508   C     0.61228   0.12198   0.99808   0.00000  Uiso   1.00
C509   C     0.60563   0.15082   0.58853   0.00000  Uiso   1.00
C510   C     0.35643   0.20737   0.94487   0.00000  Uiso   1.00
C511   C     0.37517   0.21115   0.50118   0.00000  Uiso   1.00
C512   C     0.46841   0.17868   0.99322   0.00000  Uiso   1.00
C513   C     0.42897   0.19325   0.52542   0.00000  Uiso   1.00
C514   C     0.50244   0.23202   0.87885   0.00000  Uiso   1.00
C515   C     0.45207   0.18342   0.93720   0.00000  Uiso   1.00
C516   C     0.52443   0.16121   0.51394   0.00000  Uiso   1.00
C517   C     0.55890   0.14343   0.97796   0.00000  Uiso   1.00
C518   C     0.54418   0.15589   0.92427   0.00000  Uiso   1.00
C519   C     0.49631   0.18535   0.90842   0.00000  Uiso   1.00
C520   C     0.54924   0.16549   0.56882   0.00000  Uiso   1.00
C521   C     0.63602   0.12599   0.55383   0.00000  Uiso   1.00
H522   H     0.34554   0.11229   0.56941   0.00000  Uiso   1.00
H523   H     0.38301   0.33293   0.72338   0.00000  Uiso   1.00
H524   H     0.58426   0.04557   0.88197   0.00000  Uiso   1.00
H525   H     0.46484   0.25361   0.86260   0.00000  Uiso   1.00
H526   H     0.49035   0.12138   0.71351   0.00000  Uiso   1.00
H527   H     0.50895   0.21420   0.78171   0.00000  Uiso   1.00
H528   H     0.57460   0.15092   0.89842   0.00000  Uiso   1.00
H529   H     0.63788   0.10669   0.97083   0.00000  Uiso   1.00
H530   H     0.52689   0.18431   0.59656   0.00000  Uiso   1.00
H531   H     0.64637   0.21785   0.92685   0.00000  Uiso   1.00
H532   H     0.43807   0.19134   0.56888   0.00000  Uiso   1.00
H533   H     0.34624   0.22457   0.52604   0.00000  Uiso   1.00
N534   N     0.47827   0.15223   0.73542   0.00000  Uiso   1.00
N535   N     0.52173   0.18110   0.76457   0.00000  Uiso   1.00
O536   O     0.63102   0.24629   0.75357   0.00000  Uiso   1.00
O537   O     0.64779   0.29789   0.85552   0.00000  Uiso   1.00
O538   O     0.60859   0.05670   0.85702   0.00000  Uiso   1.00
O539   O     0.55060   0.24915   0.87572   0.00000  Uiso   1.00
O540   O     0.39075   0.23704   0.74423   0.00000  Uiso   1.00
O541   O     0.64823   0.17358   0.83380   0.00000  Uiso   1.00
O542   O     0.40796   0.16433   0.82446   0.00000  Uiso   1.00
O543   O     0.60925   0.09629   0.75576   0.00000  Uiso   1.00
O544   O     0.36898   0.08704   0.74642   0.00000  Uiso   1.00
O545   O     0.59204   0.16901   0.67554   0.00000  Uiso   1.00
O546   O     0.35177   0.15976   0.66620   0.00000  Uiso   1.00
O547   O     0.55447   0.31197   0.79214   0.00000  Uiso   1.00
S548   S     0.61461   0.00208   0.81918   0.00000  Uiso   1.00
Zn549  Zn    0.60453   0.17284   0.75623   0.00000  Uiso   1.00
Zn550  Zn    0.39547   0.16049   0.74376   0.00000  Uiso   1.00
C551   C     0.68168   0.26487   0.75070   0.00000  Uiso   1.00
C552   C     0.72679   0.18966   0.91250   0.00000  Uiso   1.00
C553   C     0.68758   0.31917   0.74839   0.00000  Uiso   1.00
C554   C     0.70427   0.17549   0.85404   0.00000  Uiso   1.00
C555   C     0.98542   0.01702   0.76809   0.00000  Uiso   1.00
C556   C     0.98677   0.06901   0.75424   0.00000  Uiso   1.00
C557   C     0.96268   0.16034   0.64615   0.00000  Uiso   1.00
C558   C     0.94561   0.12198   0.99808   0.00000  Uiso   1.00
C559   C     0.93897   0.15082   0.58853   0.00000  Uiso   1.00
C560   C     0.68977   0.20737   0.94487   0.00000  Uiso   1.00
C561   C     0.70850   0.21115   0.50118   0.00000  Uiso   1.00
C562   C     0.80175   0.17868   0.99322   0.00000  Uiso   1.00
C563   C     0.76230   0.19325   0.52542   0.00000  Uiso   1.00
C564   C     0.83577   0.23202   0.87885   0.00000  Uiso   1.00
C565   C     0.78541   0.18342   0.93720   0.00000  Uiso   1.00
C566   C     0.85777   0.16121   0.51394   0.00000  Uiso   1.00
C567   C     0.89224   0.14343   0.97796   0.00000  Uiso   1.00
C568   C     0.87752   0.15589   0.92427   0.00000  Uiso   1.00
C569   C     0.82964   0.18535   0.90842   0.00000  Uiso   1.00
C570   C     0.88258   0.16549   0.56882   0.00000  Uiso   1.00
C571   C     0.96935   0.12599   0.55383   0.00000  Uiso   1.00
H572   H     0.67887   0.11229   0.56941   0.00000  Uiso   1.00
H573   H     0.71634   0.33293   0.72338   0.00000  Uiso   1.00
H574   H     0.91760   0.04557   0.88197   0.00000  Uiso   1.00
H575   H     0.79817   0.25361   0.86260   0.00000  Uiso   1.00
H576   H     0.82368   0.12138   0.71351   0.00000  Uiso   1.00
H577   H     0.84228   0.21420   0.78171   0.00000  Uiso   1.00
H578   H     0.90793   0.15092   0.89842   0.00000  Uiso   1.00
H579   H     0.97121   0.10669   0.97083   0.00000  Uiso   1.00
H580   H     0.86022   0.18431   0.59656   0.00000  Uiso   1.00
H581   H     0.97971   0.21785   0.92685   0.00000  Uiso   1.00
H582   H     0.77140   0.19134   0.56888   0.00000  Uiso   1.00
H583   H     0.67957   0.22457   0.52604   0.00000  Uiso   1.00
N584   N     0.81160   0.15223   0.73542   0.00000  Uiso   1.00
N585   N     0.85507   0.18110   0.76457   0.00000  Uiso   1.00
O586   O     0.96435   0.24629   0.75357   0.00000  Uiso   1.00
O587   O     0.98112   0.29789   0.85552   0.00000  Uiso   1.00
O588   O     0.94192   0.05670   0.85702   0.00000  Uiso   1.00
O589   O     0.88393   0.24915   0.87572   0.00000  Uiso   1.00
O590   O     0.72408   0.23704   0.74423   0.00000  Uiso   1.00
O591   O     0.98157   0.17358   0.83380   0.00000  Uiso   1.00
O592   O     0.74130   0.16433   0.82446   0.00000  Uiso   1.00
O593   O     0.94258   0.09629   0.75576   0.00000  Uiso   1.00
O594   O     0.70231   0.08704   0.74642   0.00000  Uiso   1.00
O595   O     0.92537   0.16901   0.67554   0.00000  Uiso   1.00
O596   O     0.68510   0.15976   0.66620   0.00000  Uiso   1.00
O597   O     0.88781   0.31197   0.79214   0.00000  Uiso   1.00
S598   S     0.94794   0.00208   0.81918   0.00000  Uiso   1.00
Zn599  Zn    0.93786   0.17284   0.75623   0.00000  Uiso   1.00
Zn600  Zn    0.72881   0.16049   0.74376   0.00000  Uiso   1.00
C601   C     0.01501   0.59820   0.75070   0.00000  Uiso   1.00
C602   C     0.06012   0.52300   0.91250   0.00000  Uiso   1.00
C603   C     0.02091   0.65250   0.74839   0.00000  Uiso   1.00
C604   C     0.03761   0.50883   0.85404   0.00000  Uiso   1.00
C605   C     0.31875   0.35036   0.76809   0.00000  Uiso   1.00
C606   C     0.32010   0.40234   0.75424   0.00000  Uiso   1.00
C607   C     0.29601   0.49367   0.64615   0.00000  Uiso   1.00
C608   C     0.27894   0.45531   0.99808   0.00000  Uiso   1.00
C609   C     0.27230   0.48416   0.58853   0.00000  Uiso   1.00
C610   C     0.02310   0.54071   0.94487   0.00000  Uiso   1.00
C611   C     0.04183   0.54448   0.50118   0.00000  Uiso   1.00
C612   C     0.13508   0.51201   0.99322   0.00000  Uiso   1.00
C613   C     0.09564   0.52658   0.52542   0.00000  Uiso   1.00
C614   C     0.16911   0.56536   0.87885   0.00000  Uiso   1.00
C615   C     0.11874   0.51675   0.93720   0.00000  Uiso   1.00
C616   C     0.19110   0.49454   0.51394   0.00000  Uiso   1.00
C617   C     0.22557   0.47676   0.97796   0.00000  Uiso   1.00
C618   C     0.21085   0.48922   0.92427   0.00000  Uiso   1.00
C619   C     0.16298   0.51868   0.90842   0.00000  Uiso   1.00
C620   C     0.21591   0.49882   0.56882   0.00000  Uiso   1.00
C621   C     0.30268   0.45932   0.55383   0.00000  Uiso   1.00
H622   H     0.01220   0.44563   0.56941   0.00000  Uiso   1.00
H623   H     0.04967   0.66626   0.72338   0.00000  Uiso   1.00
H624   H     0.25093   0.37891   0.88197   0.00000  Uiso   1.00
H625   H     0.13150   0.58695   0.86260   0.00000  Uiso   1.00
H626   H     0.15701   0.45471   0.71351   0.00000  Uiso   1.00
H627   H     0.17562   0.54753   0.78171   0.00000  Uiso   1.00
H628   H     0.24127   0.48425   0.89842   0.00000  Uiso   1.00
H629   H     0.30455   0.44002   0.97083   0.00000  Uiso   1.00
H630   H     0.19355   0.51765   0.59656   0.00000  Uiso   1.00
H631   H     0.31304   0.55118   0.92685   0.00000  Uiso   1.00
H632   H     0.10474   0.52467   0.56888   0.00000  Uiso   1.00
H633   H     0.01290   0.55791   0.52604   0.00000  Uiso   1.00
N634   N     0.14493   0.48556   0.73542   0.00000  Uiso   1.00
N635   N     0.18840   0.51444   0.76457   0.00000  Uiso   1.00
O636   O     0.29769   0.57963   0.75357   0.00000  Uiso   1.00
O637   O     0.31445   0.63122   0.85552   0.00000  Uiso   1.00
O638   O     0.27526   0.39004   0.85702   0.00000  Uiso   1.00
O639   O     0.21726   0.58249   0.87572   0.00000  Uiso   1.00
O640   O     0.05742   0.57038   0.74423   0.00000  Uiso   1.00
O641   O     0.31490   0.50691   0.83380   0.00000  Uiso   1.00
O642   O     0.07463   0.49766   0.82446   0.00000  Uiso   1.00
O643   O     0.27592   0.42962   0.75576   0.00000  Uiso   1.00
O644   O     0.03565   0.42037   0.74642   0.00000  Uiso   1.00
O645   O     0.25870   0.50234   0.67554   0.00000  Uiso   1.00
O646   O     0.01843   0.49309   0.66620   0.00000  Uiso   1.00
O647   O     0.22114   0.64530   0.79214   0.00000  Uiso   1.00
S648   S     0.28128   0.33541   0.81918   0.00000  Uiso   1.00
Zn649  Zn    0.27119   0.50618   0.75623   0.00000  Uiso   1.00
Zn650  Zn    0.06214   0.49382   0.74376   0.00000  Uiso   1.00
C651   C     0.34834   0.59820   0.75070   0.00000  Uiso   1.00
C652   C     0.39345   0.52300   0.91250   0.00000  Uiso   1.00
C653   C     0.35425   0.65250   0.74839   0.00000  Uiso   1.00
C654   C     0.37094   0.50883   0.85404   0.00000  Uiso   1.00
C655   C     0.65208   0.35036   0.76809   0.00000  Uiso   1.00
C656   C     0.65344   0.40234   0.75424   0.00000  Uiso   1.00
C657   C     0.62934   0.49367   0.64615   0.00000  Uiso   1.00
C658   C     0.61228   0.45531   0.99808   0.00000  Uiso   1.00
C659   C     0.60563   0.48416   0.58853   0.00000  Uiso   1.00
C660   C     0.35643   0.54071   0.94487   0.00000  Uiso   1.00
C661   C     0.37517   0.54448   0.50118   0.00000  Uiso   1.00
C662   C     0.46841   0.51201   0.99322   0.00000  Uiso   1.00
C663   C     0.42897   0.52658   0.52542   0.00000  Uiso   1.00
C664   C     0.50244   0.56536   0.87885   0.00000  Uiso   1.00
C665   C     0.45207   0.51675   0.93720   0.00000  Uiso   1.00
C666   C     0.52443   0.49454   0.51394   0.00000  Uiso   1.00
C667   C     0.55890   0.47676   0.97796   0.00000  Uiso   1.00
C668   C     0.54418   0.48922   0.92427   0.00000  Uiso   1.00
C669   C     0.49631   0.51868   0.90842   0.00000  Uiso   1.00
C670   C     0.54924   0.49882   0.56882   0.00000  Uiso   1.00
C671   C     0.63602   0.45932   0.55383   0.00000  Uiso   1.00
H672   H     0.34554   0.44563   0.56941   0.00000  Uiso   1.00
H673   H     0.38301   0.66626   0.72338   0.00000  Uiso   1.00
H674   H     0.58426   0.37891   0.88197   0.00000  Uiso   1.00
H675   H     0.46484   0.58695   0.86260   0.00000  Uiso   1.00
H676   H     0.49035   0.45471   0.71351   0.00000  Uiso   1.00
H677   H     0.50895   0.54753   0.78171   0.00000  Uiso   1.00
H678   H     0.57460   0.48425   0.89842   0.00000  Uiso   1.00
H679   H     0.63788   0.44002   0.97083   0.00000  Uiso   1.00
H680   H     0.52689   0.51765   0.59656   0.00000  Uiso   1.00
H681   H     0.64637   0.55118   0.92685   0.00000  Uiso   1.00
H682   H     0.43807   0.52467   0.56888   0.00000  Uiso   1.00
H683   H     0.34624   0.55791   0.52604   0.00000  Uiso   1.00
N684   N     0.47827   0.48556   0.73542   0.00000  Uiso   1.00
N685   N     0.52173   0.51444   0.76457   0.00000  Uiso   1.00
O686   O     0.63102   0.57963   0.75357   0.00000  Uiso   1.00
O687   O     0.64779   0.63122   0.85552   0.00000  Uiso   1.00
O688   O     0.60859   0.39004   0.85702   0.00000  Uiso   1.00
O689   O     0.55060   0.58249   0.87572   0.00000  Uiso   1.00
O690   O     0.39075   0.57038   0.74423   0.00000  Uiso   1.00
O691   O     0.64823   0.50691   0.83380   0.00000  Uiso   1.00
O692   O     0.40796   0.49766   0.82446   0.00000  Uiso   1.00
O693   O     0.60925   0.42962   0.75576   0.00000  Uiso   1.00
O694   O     0.36898   0.42037   0.74642   0.00000  Uiso   1.00
O695   O     0.59204   0.50234   0.67554   0.00000  Uiso   1.00
O696   O     0.35177   0.49309   0.66620   0.00000  Uiso   1.00
O697   O     0.55447   0.64530   0.79214   0.00000  Uiso   1.00
S698   S     0.61461   0.33541   0.81918   0.00000  Uiso   1.00
Zn699  Zn    0.60453   0.50618   0.75623   0.00000  Uiso   1.00
Zn700  Zn    0.39547   0.49382   0.74376   0.00000  Uiso   1.00
C701   C     0.68168   0.59820   0.75070   0.00000  Uiso   1.00
C702   C     0.72679   0.52300   0.91250   0.00000  Uiso   1.00
C703   C     0.68758   0.65250   0.74839   0.00000  Uiso   1.00
C704   C     0.70427   0.50883   0.85404   0.00000  Uiso   1.00
C705   C     0.98542   0.35036   0.76809   0.00000  Uiso   1.00
C706   C     0.98677   0.40234   0.75424   0.00000  Uiso   1.00
C707   C     0.96268   0.49367   0.64615   0.00000  Uiso   1.00
C708   C     0.94561   0.45531   0.99808   0.00000  Uiso   1.00
C709   C     0.93897   0.48416   0.58853   0.00000  Uiso   1.00
C710   C     0.68977   0.54071   0.94487   0.00000  Uiso   1.00
C711   C     0.70850   0.54448   0.50118   0.00000  Uiso   1.00
C712   C     0.80175   0.51201   0.99322   0.00000  Uiso   1.00
C713   C     0.76230   0.52658   0.52542   0.00000  Uiso   1.00
C714   C     0.83577   0.56536   0.87885   0.00000  Uiso   1.00
C715   C     0.78541   0.51675   0.93720   0.00000  Uiso   1.00
C716   C     0.85777   0.49454   0.51394   0.00000  Uiso   1.00
C717   C     0.89224   0.47676   0.97796   0.00000  Uiso   1.00
C718   C     0.87752   0.48922   0.92427   0.00000  Uiso   1.00
C719   C     0.82964   0.51868   0.90842   0.00000  Uiso   1.00
C720   C     0.88258   0.49882   0.56882   0.00000  Uiso   1.00
C721   C     0.96935   0.45932   0.55383   0.00000  Uiso   1.00
H722   H     0.67887   0.44563   0.56941   0.00000  Uiso   1.00
H723   H     0.71634   0.66626   0.72338   0.00000  Uiso   1.00
H724   H     0.91760   0.37891   0.88197   0.00000  Uiso   1.00
H725   H     0.79817   0.58695   0.86260   0.00000  Uiso   1.00
H726   H     0.82368   0.45471   0.71351   0.00000  Uiso   1.00
H727   H     0.84228   0.54753   0.78171   0.00000  Uiso   1.00
H728   H     0.90793   0.48425   0.89842   0.00000  Uiso   1.00
H729   H     0.97121   0.44002   0.97083   0.00000  Uiso   1.00
H730   H     0.86022   0.51765   0.59656   0.00000  Uiso   1.00
H731   H     0.97971   0.55118   0.92685   0.00000  Uiso   1.00
H732   H     0.77140   0.52467   0.56888   0.00000  Uiso   1.00
H733   H     0.67957   0.55791   0.52604   0.00000  Uiso   1.00
N734   N     0.81160   0.48556   0.73542   0.00000  Uiso   1.00
N735   N     0.85507   0.51444   0.76457   0.00000  Uiso   1.00
O736   O     0.96435   0.57963   0.75357   0.00000  Uiso   1.00
O737   O     0.98112   0.63122   0.85552   0.00000  Uiso   1.00
O738   O     0.94192   0.39004   0.85702   0.00000  Uiso   1.00
O739   O     0.88393   0.58249   0.87572   0.00000  Uiso   1.00
O740   O     0.72408   0.57038   0.74423   0.00000  Uiso   1.00
O741   O     0.98157   0.50691   0.83380   0.00000  Uiso   1.00
O742   O     0.74130   0.49766   0.82446   0.00000  Uiso   1.00
O743   O     0.94258   0.42962   0.75576   0.00000  Uiso   1.00
O744   O     0.70231   0.42037   0.74642   0.00000  Uiso   1.00
O745   O     0.92537   0.50234   0.67554   0.00000  Uiso   1.00
O746   O     0.68510   0.49309   0.66620   0.00000  Uiso   1.00
O747   O     0.88781   0.64530   0.79214   0.00000  Uiso   1.00
S748   S     0.94794   0.33541   0.81918   0.00000  Uiso   1.00
Zn749  Zn    0.93786   0.50618   0.75623   0.00000  Uiso   1.00
Zn750  Zn    0.72881   0.49382   0.74376   0.00000  Uiso   1.00
C751   C     0.01501   0.93153   0.75070   0.00000  Uiso   1.00
C752   C     0.06012   0.85633   0.91250   0.00000  Uiso   1.00
C753   C     0.02091   0.98583   0.74839   0.00000  Uiso   1.00
C754   C     0.03761   0.84216   0.85404   0.00000  Uiso   1.00
C755   C     0.31875   0.68369   0.76809   0.00000  Uiso   1.00
C756   C     0.32010   0.73568   0.75424   0.00000  Uiso   1.00
C757   C     0.29601   0.82701   0.64615   0.00000  Uiso   1.00
C758   C     0.27894   0.78865   0.99808   0.00000  Uiso   1.00
C759   C     0.27230   0.81749   0.58853   0.00000  Uiso   1.00
C760   C     0.02310   0.87404   0.94487   0.00000  Uiso   1.00
C761   C     0.04183   0.87781   0.50118   0.00000  Uiso   1.00
C762   C     0.13508   0.84535   0.99322   0.00000  Uiso   1.00
C763   C     0.09564   0.85992   0.52542   0.00000  Uiso   1.00
C764   C     0.16911   0.89869   0.87885   0.00000  Uiso   1.00
C765   C     0.11874   0.85008   0.93720   0.00000  Uiso   1.00
C766   C     0.19110   0.82788   0.51394   0.00000  Uiso   1.00
C767   C     0.22557   0.81009   0.97796   0.00000  Uiso   1.00
C768   C     0.21085   0.82255   0.92427   0.00000  Uiso   1.00
C769   C     0.16298   0.85201   0.90842   0.00000  Uiso   1.00
C770   C     0.21591   0.83215   0.56882   0.00000  Uiso   1.00
C771   C     0.30268   0.79266   0.55383   0.00000  Uiso   1.00
H772   H     0.01220   0.77896   0.56941   0.00000  Uiso   1.00
H773   H     0.04967   0.99960   0.72338   0.00000  Uiso   1.00
H774   H     0.25093   0.71224   0.88197   0.00000  Uiso   1.00
H775   H     0.13150   0.92028   0.86260   0.00000  Uiso   1.00
H776   H     0.15701   0.78805   0.71351   0.00000  Uiso   1.00
H777   H     0.17562   0.88086   0.78171   0.00000  Uiso   1.00
H778   H     0.24127   0.81759   0.89842   0.00000  Uiso   1.00
H779   H     0.30455   0.77336   0.97083   0.00000  Uiso   1.00
H780   H     0.19355   0.85098   0.59656   0.00000  Uiso   1.00
H781   H     0.31304   0.88451   0.92685   0.00000  Uiso   1.00
H782   H     0.10474   0.85800   0.56888   0.00000  Uiso   1.00
H783   H     0.01290   0.89124   0.52604   0.00000  Uiso   1.00
N784   N     0.14493   0.81890   0.73542   0.00000  Uiso   1.00
N785   N     0.18840   0.84777   0.76457   0.00000  Uiso   1.00
O786   O     0.29769   0.91296   0.75357   0.00000  Uiso   1.00
O787   O     0.31445   0.96456   0.85552   0.00000  Uiso   1.00
O788   O     0.27526   0.72337   0.85702   0.00000  Uiso   1.00
O789   O     0.21726   0.91582   0.87572   0.00000  Uiso   1.00
O790   O     0.05742   0.90371   0.74423   0.00000  Uiso   1.00
O791   O     0.31490   0.84024   0.83380   0.00000  Uiso   1.00
O792   O     0.07463   0.83099   0.82446   0.00000  Uiso   1.00
O793   O     0.27592   0.76296   0.75576   0.00000  Uiso   1.00
O794   O     0.03565   0.75371   0.74642   0.00000  Uiso   1.00
O795   O     0.25870   0.83567   0.67554   0.00000  Uiso   1.00
O796   O     0.01843   0.82642   0.66620   0.00000  Uiso   1.00
O797   O     0.22114   0.97864   0.79214   0.00000  Uiso   1.00
S798   S     0.28128   0.66874   0.81918   0.00000  Uiso   1.00
Zn799  Zn    0.27119   0.83951   0.75623   0.00000  Uiso   1.00
Zn800  Zn    0.06214   0.82716   0.74376   0.00000  Uiso   1.00
C801   C     0.34834   0.93153   0.75070   0.00000  Uiso   1.00
C802   C     0.39345   0.85633   0.91250   0.00000  Uiso   1.00
C803   C     0.35425   0.98583   0.74839   0.00000  Uiso   1.00
C804   C     0.37094   0.84216   0.85404   0.00000  Uiso   1.00
C805   C     0.65208   0.68369   0.76809   0.00000  Uiso   1.00
C806   C     0.65344   0.73568   0.75424   0.00000  Uiso   1.00
C807   C     0.62934   0.82701   0.64615   0.00000  Uiso   1.00
C808   C     0.61228   0.78865   0.99808   0.00000  Uiso   1.00
C809   C     0.60563   0.81749   0.58853   0.00000  Uiso   1.00
C810   C     0.35643   0.87404   0.94487   0.00000  Uiso   1.00
C811   C     0.37517   0.87781   0.50118   0.00000  Uiso   1.00
C812   C     0.46841   0.84535   0.99322   0.00000  Uiso   1.00
C813   C     0.42897   0.85992   0.52542   0.00000  Uiso   1.00
C814   C     0.50244   0.89869   0.87885   0.00000  Uiso   1.00
C815   C     0.45207   0.85008   0.93720   0.00000  Uiso   1.00
C816   C     0.52443   0.82788   0.51394   0.00000  Uiso   1.00
C817   C     0.55890   0.81009   0.97796   0.00000  Uiso   1.00
C818   C     0.54418   0.82255   0.92427   0.00000  Uiso   1.00
C819   C     0.49631   0.85201   0.90842   0.00000  Uiso   1.00
C820   C     0.54924   0.83215   0.56882   0.00000  Uiso   1.00
C821   C     0.63602   0.79266   0.55383   0.00000  Uiso   1.00
H822   H     0.34554   0.77896   0.56941   0.00000  Uiso   1.00
H823   H     0.38301   0.99960   0.72338   0.00000  Uiso   1.00
H824   H     0.58426   0.71224   0.88197   0.00000  Uiso   1.00
H825   H     0.46484   0.92028   0.86260   0.00000  Uiso   1.00
H826   H     0.49035   0.78805   0.71351   0.00000  Uiso   1.00
H827   H     0.50895   0.88086   0.78171   0.00000  Uiso   1.00
H828   H     0.57460   0.81759   0.89842   0.00000  Uiso   1.00
H829   H     0.63788   0.77336   0.97083   0.00000  Uiso   1.00
H830   H     0.52689   0.85098   0.59656   0.00000  Uiso   1.00
H831   H     0.64637   0.88451   0.92685   0.00000  Uiso   1.00
H832   H     0.43807   0.85800   0.56888   0.00000  Uiso   1.00
H833   H     0.34624   0.89124   0.52604   0.00000  Uiso   1.00
N834   N     0.47827   0.81890   0.73542   0.00000  Uiso   1.00
N835   N     0.52173   0.84777   0.76457   0.00000  Uiso   1.00
O836   O     0.63102   0.91296   0.75357   0.00000  Uiso   1.00
O837   O     0.64779   0.96456   0.85552   0.00000  Uiso   1.00
O838   O     0.60859   0.72337   0.85702   0.00000  Uiso   1.00
O839   O     0.55060   0.91582   0.87572   0.00000  Uiso   1.00
O840   O     0.39075   0.90371   0.74423   0.00000  Uiso   1.00
O841   O     0.64823   0.84024   0.83380   0.00000  Uiso   1.00
O842   O     0.40796   0.83099   0.82446   0.00000  Uiso   1.00
O843   O     0.60925   0.76296   0.75576   0.00000  Uiso   1.00
O844   O     0.36898   0.75371   0.74642   0.00000  Uiso   1.00
O845   O     0.59204   0.83567   0.67554   0.00000  Uiso   1.00
O846   O     0.35177   0.82642   0.66620   0.00000  Uiso   1.00
O847   O     0.55447   0.97864   0.79214   0.00000  Uiso   1.00
S848   S     0.61461   0.66874   0.81918   0.00000  Uiso   1.00
Zn849  Zn    0.60453   0.83951   0.75623   0.00000  Uiso   1.00
Zn850  Zn    0.39547   0.82716   0.74376   0.00000  Uiso   1.00
C851   C     0.68168   0.93153   0.75070   0.00000  Uiso   1.00
C852   C     0.72679   0.85633   0.91250   0.00000  Uiso   1.00
C853   C     0.68758   0.98583   0.74839   0.00000  Uiso   1.00
C854   C     0.70427   0.84216   0.85404   0.00000  Uiso   1.00
C855   C     0.98542   0.68369   0.76809   0.00000  Uiso   1.00
C856   C     0.98677   0.73568   0.75424   0.00000  Uiso   1.00
C857   C     0.96268   0.82701   0.64615   0.00000  Uiso   1.00
C858   C     0.94561   0.78865   0.99808   0.00000  Uiso   1.00
C859   C     0.93897   0.81749   0.58853   0.00000  Uiso   1.00
C860   C     0.68977   0.87404   0.94487   0.00000  Uiso   1.00
C861   C     0.70850   0.87781   0.50118   0.00000  Uiso   1.00
C862   C     0.80175   0.84535   0.99322   0.00000  Uiso   1.00
C863   C     0.76230   0.85992   0.52542   0.00000  Uiso   1.00
C864   C     0.83577   0.89869   0.87885   0.00000  Uiso   1.00
C865   C     0.78541   0.85008   0.93720   0.00000  Uiso   1.00
C866   C     0.85777   0.82788   0.51394   0.00000  Uiso   1.00
C867   C     0.89224   0.81009   0.97796   0.00000  Uiso   1.00
C868   C     0.87752   0.82255   0.92427   0.00000  Uiso   1.00
C869   C     0.82964   0.85201   0.90842   0.00000  Uiso   1.00
C870   C     0.88258   0.83215   0.56882   0.00000  Uiso   1.00
C871   C     0.96935   0.79266   0.55383   0.00000  Uiso   1.00
H872   H     0.67887   0.77896   0.56941   0.00000  Uiso   1.00
H873   H     0.71634   0.99960   0.72338   0.00000  Uiso   1.00
H874   H     0.91760   0.71224   0.88197   0.00000  Uiso   1.00
H875   H     0.79817   0.92028   0.86260   0.00000  Uiso   1.00
H876   H     0.82368   0.78805   0.71351   0.00000  Uiso   1.00
H877   H     0.84228   0.88086   0.78171   0.00000  Uiso   1.00
H878   H     0.90793   0.81759   0.89842   0.00000  Uiso   1.00
H879   H     0.97121   0.77336   0.97083   0.00000  Uiso   1.00
H880   H     0.86022   0.85098   0.59656   0.00000  Uiso   1.00
H881   H     0.97971   0.88451   0.92685   0.00000  Uiso   1.00
H882   H     0.77140   0.85800   0.56888   0.00000  Uiso   1.00
H883   H     0.67957   0.89124   0.52604   0.00000  Uiso   1.00
N884   N     0.81160   0.81890   0.73542   0.00000  Uiso   1.00
N885   N     0.85507   0.84777   0.76457   0.00000  Uiso   1.00
O886   O     0.96435   0.91296   0.75357   0.00000  Uiso   1.00
O887   O     0.98112   0.96456   0.85552   0.00000  Uiso   1.00
O888   O     0.94192   0.72337   0.85702   0.00000  Uiso   1.00
O889   O     0.88393   0.91582   0.87572   0.00000  Uiso   1.00
O890   O     0.72408   0.90371   0.74423   0.00000  Uiso   1.00
O891   O     0.98157   0.84024   0.83380   0.00000  Uiso   1.00
O892   O     0.74130   0.83099   0.82446   0.00000  Uiso   1.00
O893   O     0.94258   0.76296   0.75576   0.00000  Uiso   1.00
O894   O     0.70231   0.75371   0.74642   0.00000  Uiso   1.00
O895   O     0.92537   0.83567   0.67554   0.00000  Uiso   1.00
O896   O     0.68510   0.82642   0.66620   0.00000  Uiso   1.00
O897   O     0.88781   0.97864   0.79214   0.00000  Uiso   1.00
S898   S     0.94794   0.66874   0.81918   0.00000  Uiso   1.00
Zn899  Zn    0.93786   0.83951   0.75623   0.00000  Uiso   1.00
Zn900  Zn    0.72881   0.82716   0.74376   0.00000  Uiso   1.00
loop_
_geom_bond_atom_site_label_1
_geom_bond_atom_site_label_2
_geom_bond_distance
_geom_bond_site_symmetry_2
_ccdc_geom_bond_type
C1     O40     1.293   .     A
C1     C3      1.405   .     S
C1     O136    1.282   1_455 S
C2     C4      1.471   .     S
C2     C15     1.403   .     A
C2     C10     1.400   .     A
C3     H23     1.089   .     S
C3     C255    1.342   1_455 S
C4     O42     1.304   .     A
C4     O141    1.300   1_455 S
C5     C6      1.407   .     S
C5     S48     1.775   .     S
C5     C353    1.342   1_545 S
C6     O43     1.292   .     A
C6     O94     1.281   .     S
C7     O45     1.293   .     A
C7     C9      1.440   .     S
C7     O96     1.297   .     S
C8     C17     1.401   .     A
C8     H29     1.084   .     S
C8     C471    1.391   .     S
C9     C21     1.398   .     A
C9     C20     1.390   .     A
C10    C461    1.390   .     S
C10    H131    1.076   1_455 S
C11    C13     1.393   .     A
C11    H33     1.083   .     S
C11    C460    1.390   1_554 S
C12    C15     1.399   .     A
C12    C463    1.418   .     S
C12    C466    1.413   .     S
C13    H32     1.078   .     S
C13    C462    1.418   1_554 S
C14    H25     1.086   .     S
C14    C19     1.475   .     S
C14    O39     1.217   .     D
C15    C19     1.402   .     A
C16    C20     1.376   .     A
C16    C462    1.413   1_554 S
C16    C467    1.422   1_554 S
C17    C18     1.388   .     A
C17    C466    1.422   .     S
C18    H28     1.082   .     S
C18    C19     1.390   .     A
C20    H30     1.076   .     S
C21    C458    1.391   1_554 S
C21    H72     1.083   .     S
H22    C121    1.083   1_455 S
H24    O38     0.991   .     S
H26    N34     1.029   .     S
H27    N35     1.022   .     S
H31    C60     1.076   .     S
N34    N35     1.286   .     D
N34    Zn50    2.029   .     S
N35    Zn49    2.029   .     S
O36    Zn49    1.971   .     S
O36    C51     1.282   .     S
O37    S198    1.503   .     S
O38    S48     1.682   .     S
O40    Zn50    1.980   .     S
O41    Zn49    1.999   .     S
O41    C54     1.300   .     S
O42    Zn50    1.994   .     S
O43    Zn49    1.980   .     S
O44    Zn50    1.971   .     S
O44    C106    1.281   1_455 S
O45    Zn49    1.994   .     S
O46    Zn50    1.999   .     S
O46    C107    1.297   1_455 S
O47    S198    1.503   .     S
S48    O337    1.503   1_545 S
S48    O347    1.503   1_545 S
C51    O90     1.293   .     A
C51    C53     1.405   .     S
C52    C54     1.471   .     S
C52    C65     1.403   .     A
C52    C60     1.400   .     A
C53    H73     1.089   .     S
C53    C155    1.342   .     S
C54    O92     1.304   .     A
C55    C56     1.407   .     S
C55    S98     1.775   .     S
C55    C403    1.342   1_545 S
C56    O93     1.292   .     A
C56    O144    1.281   .     S
C57    O95     1.293   .     A
C57    C59     1.440   .     S
C57    O146    1.297   .     S
C58    C67     1.401   .     A
C58    H79     1.084   .     S
C58    C521    1.391   .     S
C59    C71     1.398   .     A
C59    C70     1.390   .     A
C60    C511    1.390   .     S
C61    C63     1.393   .     A
C61    H83     1.083   .     S
C61    C510    1.390   1_554 S
C62    C65     1.399   .     A
C62    C513    1.418   .     S
C62    C516    1.413   .     S
C63    H82     1.078   .     S
C63    C512    1.418   1_554 S
C64    H75     1.086   .     S
C64    C69     1.475   .     S
C64    O89     1.217   .     D
C65    C69     1.402   .     A
C66    C70     1.376   .     A
C66    C512    1.413   1_554 S
C66    C517    1.422   1_554 S
C67    C68     1.388   .     A
C67    C516    1.422   .     S
C68    H78     1.082   .     S
C68    C69     1.390   .     A
C70    H80     1.076   .     S
C71    C508    1.391   1_554 S
C71    H122    1.083   .     S
H74    O88     0.991   .     S
H76    N84     1.029   .     S
H77    N85     1.022   .     S
H81    C110    1.076   .     S
N84    N85     1.286   .     D
N84    Zn100   2.029   .     S
N85    Zn99    2.029   .     S
O86    Zn99    1.971   .     S
O86    C101    1.282   .     S
O87    S248    1.503   .     S
O88    S98     1.682   .     S
O90    Zn100   1.980   .     S
O91    Zn99    1.999   .     S
O91    C104    1.300   .     S
O92    Zn100   1.994   .     S
O93    Zn99    1.980   .     S
O94    Zn100   1.971   .     S
O95    Zn99    1.994   .     S
O96    Zn100   1.999   .     S
O97    S248    1.503   .     S
S98    O387    1.503   1_545 S
S98    O397    1.503   1_545 S
C101   O140    1.293   .     A
C101   C103    1.405   .     S
C102   C104    1.471   .     S
C102   C115    1.403   .     A
C102   C110    1.400   .     A
C103   H123    1.089   .     S
C103   C205    1.342   .     S
C104   O142    1.304   .     A
C105   C106    1.407   .     S
C105   S148    1.775   .     S
C105   C303    1.342   1_645 S
C106   O143    1.292   .     A
C106   O44     1.281   1_655 S
C107   O145    1.293   .     A
C107   C109    1.440   .     S
C107   O46     1.297   1_655 S
C108   C117    1.401   .     A
C108   H129    1.084   .     S
C108   C571    1.391   .     S
C109   C121    1.398   .     A
C109   C120    1.390   .     A
C110   C561    1.390   .     S
C111   C113    1.393   .     A
C111   H133    1.083   .     S
C111   C560    1.390   1_554 S
C112   C115    1.399   .     A
C112   C563    1.418   .     S
C112   C566    1.413   .     S
C113   H132    1.078   .     S
C113   C562    1.418   1_554 S
C114   H125    1.086   .     S
C114   C119    1.475   .     S
C114   O139    1.217   .     D
C115   C119    1.402   .     A
C116   C120    1.376   .     A
C116   C562    1.413   1_554 S
C116   C567    1.422   1_554 S
C117   C118    1.388   .     A
C117   C566    1.422   .     S
C118   H128    1.082   .     S
C118   C119    1.390   .     A
C120   H130    1.076   .     S
C121   C558    1.391   1_554 S
C121   H22     1.083   1_655 S
H124   O138    0.991   .     S
H126   N134    1.029   .     S
H127   N135    1.022   .     S
H131   C10     1.076   1_655 S
N134   N135    1.286   .     D
N134   Zn150   2.029   .     S
N135   Zn149   2.029   .     S
O136   Zn149   1.971   .     S
O136   C1      1.282   1_655 S
O137   S298    1.503   .     S
O138   S148    1.682   .     S
O140   Zn150   1.980   .     S
O141   Zn149   1.999   .     S
O141   C4      1.300   1_655 S
O142   Zn150   1.994   .     S
O143   Zn149   1.980   .     S
O144   Zn150   1.971   .     S
O145   Zn149   1.994   .     S
O146   Zn150   1.999   .     S
O147   S298    1.503   .     S
S148   O437    1.503   1_545 S
S148   O447    1.503   1_545 S
C151   O190    1.293   .     A
C151   C153    1.405   .     S
C151   O286    1.282   1_455 S
C152   C154    1.471   .     S
C152   C165    1.403   .     A
C152   C160    1.400   .     A
C153   H173    1.089   .     S
C153   C405    1.342   1_455 S
C154   O192    1.304   .     A
C154   O291    1.300   1_455 S
C155   C156    1.407   .     S
C155   S198    1.775   .     S
C156   O193    1.292   .     A
C156   O244    1.281   .     S
C157   O195    1.293   .     A
C157   C159    1.440   .     S
C157   O246    1.297   .     S
C158   C167    1.401   .     A
C158   H179    1.084   .     S
C158   C621    1.391   .     S
C159   C171    1.398   .     A
C159   C170    1.390   .     A
C160   C611    1.390   .     S
C160   H281    1.076   1_455 S
C161   C163    1.393   .     A
C161   H183    1.083   .     S
C161   C610    1.390   1_554 S
C162   C165    1.399   .     A
C162   C613    1.418   .     S
C162   C616    1.413   .     S
C163   H182    1.078   .     S
C163   C612    1.418   1_554 S
C164   H175    1.086   .     S
C164   C169    1.475   .     S
C164   O189    1.217   .     D
C165   C169    1.402   .     A
C166   C170    1.376   .     A
C166   C612    1.413   1_554 S
C166   C617    1.422   1_554 S
C167   C168    1.388   .     A
C167   C616    1.422   .     S
C168   H178    1.082   .     S
C168   C169    1.390   .     A
C170   H180    1.076   .     S
C171   C608    1.391   1_554 S
C171   H222    1.083   .     S
H172   C271    1.083   1_455 S
H174   O188    0.991   .     S
H176   N184    1.029   .     S
H177   N185    1.022   .     S
H181   C210    1.076   .     S
N184   N185    1.286   .     D
N184   Zn200   2.029   .     S
N185   Zn199   2.029   .     S
O186   Zn199   1.971   .     S
O186   C201    1.282   .     S
O187   S348    1.503   .     S
O188   S198    1.682   .     S
O190   Zn200   1.980   .     S
O191   Zn199   1.999   .     S
O191   C204    1.300   .     S
O192   Zn200   1.994   .     S
O193   Zn199   1.980   .     S
O194   Zn200   1.971   .     S
O194   C256    1.281   1_455 S
O195   Zn199   1.994   .     S
O196   Zn200   1.999   .     S
O196   C257    1.297   1_455 S
O197   S348    1.503   .     S
C201   O240    1.293   .     A
C201   C203    1.405   .     S
C202   C204    1.471   .     S
C202   C215    1.403   .     A
C202   C210    1.400   .     A
C203   H223    1.089   .     S
C203   C305    1.342   .     S
C204   O242    1.304   .     A
C205   C206    1.407   .     S
C205   S248    1.775   .     S
C206   O243    1.292   .     A
C206   O294    1.281   .     S
C207   O245    1.293   .     A
C207   C209    1.440   .     S
C207   O296    1.297   .     S
C208   C217    1.401   .     A
C208   H229    1.084   .     S
C208   C671    1.391   .     S
C209   C221    1.398   .     A
C209   C220    1.390   .     A
C210   C661    1.390   .     S
C211   C213    1.393   .     A
C211   H233    1.083   .     S
C211   C660    1.390   1_554 S
C212   C215    1.399   .     A
C212   C663    1.418   .     S
C212   C666    1.413   .     S
C213   H232    1.078   .     S
C213   C662    1.418   1_554 S
C214   H225    1.086   .     S
C214   C219    1.475   .     S
C214   O239    1.217   .     D
C215   C219    1.402   .     A
C216   C220    1.376   .     A
C216   C662    1.413   1_554 S
C216   C667    1.422   1_554 S
C217   C218    1.388   .     A
C217   C666    1.422   .     S
C218   H228    1.082   .     S
C218   C219    1.390   .     A
C220   H230    1.076   .     S
C221   C658    1.391   1_554 S
C221   H272    1.083   .     S
H224   O238    0.991   .     S
H226   N234    1.029   .     S
H227   N235    1.022   .     S
H231   C260    1.076   .     S
N234   N235    1.286   .     D
N234   Zn250   2.029   .     S
N235   Zn249   2.029   .     S
O236   Zn249   1.971   .     S
O236   C251    1.282   .     S
O237   S398    1.503   .     S
O238   S248    1.682   .     S
O240   Zn250   1.980   .     S
O241   Zn249   1.999   .     S
O241   C254    1.300   .     S
O242   Zn250   1.994   .     S
O243   Zn249   1.980   .     S
O244   Zn250   1.971   .     S
O245   Zn249   1.994   .     S
O246   Zn250   1.999   .     S
O247   S398    1.503   .     S
C251   O290    1.293   .     A
C251   C253    1.405   .     S
C252   C254    1.471   .     S
C252   C265    1.403   .     A
C252   C260    1.400   .     A
C253   H273    1.089   .     S
C253   C355    1.342   .     S
C254   O292    1.304   .     A
C255   C256    1.407   .     S
C255   S298    1.775   .     S
C255   C3      1.342   1_655 S
C256   O293    1.292   .     A
C256   O194    1.281   1_655 S
C257   O295    1.293   .     A
C257   C259    1.440   .     S
C257   O196    1.297   1_655 S
C258   C267    1.401   .     A
C258   H279    1.084   .     S
C258   C721    1.391   .     S
C259   C271    1.398   .     A
C259   C270    1.390   .     A
C260   C711    1.390   .     S
C261   C263    1.393   .     A
C261   H283    1.083   .     S
C261   C710    1.390   1_554 S
C262   C265    1.399   .     A
C262   C713    1.418   .     S
C262   C716    1.413   .     S
C263   H282    1.078   .     S
C263   C712    1.418   1_554 S
C264   H275    1.086   .     S
C264   C269    1.475   .     S
C264   O289    1.217   .     D
C265   C269    1.402   .     A
C266   C270    1.376   .     A
C266   C712    1.413   1_554 S
C266   C717    1.422   1_554 S
C267   C268    1.388   .     A
C267   C716    1.422   .     S
C268   H278    1.082   .     S
C268   C269    1.390   .     A
C270   H280    1.076   .     S
C271   C708    1.391   1_554 S
C271   H172    1.083   1_655 S
H274   O288    0.991   .     S
H276   N284    1.029   .     S
H277   N285    1.022   .     S
H281   C160    1.076   1_655 S
N284   N285    1.286   .     D
N284   Zn300   2.029   .     S
N285   Zn299   2.029   .     S
O286   Zn299   1.971   .     S
O286   C151    1.282   1_655 S
O287   S448    1.503   .     S
O288   S298    1.682   .     S
O290   Zn300   1.980   .     S
O291   Zn299   1.999   .     S
O291   C154    1.300   1_655 S
O292   Zn300   1.994   .     S
O293   Zn299   1.980   .     S
O294   Zn300   1.971   .     S
O295   Zn299   1.994   .     S
O296   Zn300   1.999   .     S
O297   S448    1.503   .     S
C301   O340    1.293   .     A
C301   C303    1.405   .     S
C301   O436    1.282   1_455 S
C302   C304    1.471   .     S
C302   C315    1.403   .     A
C302   C310    1.400   .     A
C303   H323    1.089   .     S
C303   C105    1.342   1_465 S
C304   O342    1.304   .     A
C304   O441    1.300   1_455 S
C305   C306    1.407   .     S
C305   S348    1.775   .     S
C306   O343    1.292   .     A
C306   O394    1.281   .     S
C307   O345    1.293   .     A
C307   C309    1.440   .     S
C307   O396    1.297   .     S
C308   C317    1.401   .     A
C308   H329    1.084   .     S
C308   C771    1.391   .     S
C309   C321    1.398   .     A
C309   C320    1.390   .     A
C310   C761    1.390   .     S
C310   H431    1.076   1_455 S
C311   C313    1.393   .     A
C311   H333    1.083   .     S
C311   C760    1.390   1_554 S
C312   C315    1.399   .     A
C312   C763    1.418   .     S
C312   C766    1.413   .     S
C313   H332    1.078   .     S
C313   C762    1.418   1_554 S
C314   H325    1.086   .     S
C314   C319    1.475   .     S
C314   O339    1.217   .     D
C315   C319    1.402   .     A
C316   C320    1.376   .     A
C316   C762    1.413   1_554 S
C316   C767    1.422   1_554 S
C317   C318    1.388   .     A
C317   C766    1.422   .     S
C318   H328    1.082   .     S
C318   C319    1.390   .     A
C320   H330    1.076   .     S
C321   C758    1.391   1_554 S
C321   H372    1.083   .     S
H322   C421    1.083   1_455 S
H324   O338    0.991   .     S
H326   N334    1.029   .     S
H327   N335    1.022   .     S
H331   C360    1.076   .     S
N334   N335    1.286   .     D
N334   Zn350   2.029   .     S
N335   Zn349   2.029   .     S
O336   Zn349   1.971   .     S
O336   C351    1.282   .     S
O337   S48     1.503   1_565 S
O338   S348    1.682   .     S
O340   Zn350   1.980   .     S
O341   Zn349   1.999   .     S
O341   C354    1.300   .     S
O342   Zn350   1.994   .     S
O343   Zn349   1.980   .     S
O344   Zn350   1.971   .     S
O344   C406    1.281   1_455 S
O345   Zn349   1.994   .     S
O346   Zn350   1.999   .     S
O346   C407    1.297   1_455 S
O347   S48     1.503   1_565 S
C351   O390    1.293   .     A
C351   C353    1.405   .     S
C352   C354    1.471   .     S
C352   C365    1.403   .     A
C352   C360    1.400   .     A
C353   H373    1.089   .     S
C353   C5      1.342   1_565 S
C354   O392    1.304   .     A
C355   C356    1.407   .     S
C355   S398    1.775   .     S
C356   O393    1.292   .     A
C356   O444    1.281   .     S
C357   O395    1.293   .     A
C357   C359    1.440   .     S
C357   O446    1.297   .     S
C358   C367    1.401   .     A
C358   H379    1.084   .     S
C358   C821    1.391   .     S
C359   C371    1.398   .     A
C359   C370    1.390   .     A
C360   C811    1.390   .     S
C361   C363    1.393   .     A
C361   H383    1.083   .     S
C361   C810    1.390   1_554 S
C362   C365    1.399   .     A
C362   C813    1.418   .     S
C362   C816    1.413   .     S
C363   H382    1.078   .     S
C363   C812    1.418   1_554 S
C364   H375    1.086   .     S
C364   C369    1.475   .     S
C364   O389    1.217   .     D
C365   C369    1.402   .     A
C366   C370    1.376   .     A
C366   C812    1.413   1_554 S
C366   C817    1.422   1_554 S
C367   C368    1.388   .     A
C367   C816    1.422   .     S
C368   H378    1.082   .     S
C368   C369    1.390   .     A
C370   H380    1.076   .     S
C371   C808    1.391   1_554 S
C371   H422    1.083   .     S
H374   O388    0.991   .     S
H376   N384    1.029   .     S
H377   N385    1.022   .     S
H381   C410    1.076   .     S
N384   N385    1.286   .     D
N384   Zn400   2.029   .     S
N385   Zn399   2.029   .     S
O386   Zn399   1.971   .     S
O386   C401    1.282   .     S
O387   S98     1.503   1_565 S
O388   S398    1.682   .     S
O390   Zn400   1.980   .     S
O391   Zn399   1.999   .     S
O391   C404    1.300   .     S
O392   Zn400   1.994   .     S
O393   Zn399   1.980   .     S
O394   Zn400   1.971   .     S
O395   Zn399   1.994   .     S
O396   Zn400   1.999   .     S
O397   S98     1.503   1_565 S
C401   O440    1.293   .     A
C401   C403    1.405   .     S
C402   C404    1.471   .     S
C402   C415    1.403   .     A
C402   C410    1.400   .     A
C403   H423    1.089   .     S
C403   C55     1.342   1_565 S
C404   O442    1.304   .     A
C405   C406    1.407   .     S
C405   S448    1.775   .     S
C405   C153    1.342   1_655 S
C406   O443    1.292   .     A
C406   O344    1.281   1_655 S
C407   O445    1.293   .     A
C407   C409    1.440   .     S
C407   O346    1.297   1_655 S
C408   C417    1.401   .     A
C408   H429    1.084   .     S
C408   C871    1.391   .     S
C409   C421    1.398   .     A
C409   C420    1.390   .     A
C410   C861    1.390   .     S
C411   C413    1.393   .     A
C411   H433    1.083   .     S
C411   C860    1.390   1_554 S
C412   C415    1.399   .     A
C412   C863    1.418   .     S
C412   C866    1.413   .     S
C413   H432    1.078   .     S
C413   C862    1.418   1_554 S
C414   H425    1.086   .     S
C414   C419    1.475   .     S
C414   O439    1.217   .     D
C415   C419    1.402   .     A
C416   C420    1.376   .     A
C416   C862    1.413   1_554 S
C416   C867    1.422   1_554 S
C417   C418    1.388   .     A
C417   C866    1.422   .     S
C418   H428    1.082   .     S
C418   C419    1.390   .     A
C420   H430    1.076   .     S
C421   C858    1.391   1_554 S
C421   H322    1.083   1_655 S
H424   O438    0.991   .     S
H426   N434    1.029   .     S
H427   N435    1.022   .     S
H431   C310    1.076   1_655 S
N434   N435    1.286   .     D
N434   Zn450   2.029   .     S
N435   Zn449   2.029   .     S
O436   Zn449   1.971   .     S
O436   C301    1.282   1_655 S
O437   S148    1.503   1_565 S
O438   S448    1.682   .     S
O440   Zn450   1.980   .     S
O441   Zn449   1.999   .     S
O441   C304    1.300   1_655 S
O442   Zn450   1.994   .     S
O443   Zn449   1.980   .     S
O444   Zn450   1.971   .     S
O445   Zn449   1.994   .     S
O446   Zn450   1.999   .     S
O447   S148    1.503   1_565 S
C451   O490    1.293   .     A
C451   C453    1.405   .     S
C451   O586    1.282   1_455 S
C452   C454    1.471   .     S
C452   C465    1.403   .     A
C452   C460    1.400   .     A
C453   H473    1.089   .     S
C453   C705    1.342   1_455 S
C454   O492    1.304   .     A
C454   O591    1.300   1_455 S
C455   C456    1.407   .     S
C455   S498    1.775   .     S
C455   C803    1.342   1_545 S
C456   O493    1.292   .     A
C456   O544    1.281   .     S
C457   O495    1.293   .     A
C457   C459    1.440   .     S
C457   O546    1.297   .     S
C458   C467    1.401   .     A
C458   H479    1.084   .     S
C458   C21     1.391   1_556 S
C459   C471    1.398   .     A
C459   C470    1.390   .     A
C460   C11     1.390   1_556 S
C460   H581    1.076   1_455 S
C461   C463    1.393   .     A
C461   H483    1.083   .     S
C462   C465    1.399   .     A
C462   C13     1.418   1_556 S
C462   C16     1.413   1_556 S
C463   H482    1.078   .     S
C464   H475    1.086   .     S
C464   C469    1.475   .     S
C464   O489    1.217   .     D
C465   C469    1.402   .     A
C466   C470    1.376   .     A
C467   C468    1.388   .     A
C467   C16     1.422   1_556 S
C468   H478    1.082   .     S
C468   C469    1.390   .     A
C470   H480    1.076   .     S
C471   H522    1.083   .     S
H472   C571    1.083   1_455 S
H474   O488    0.991   .     S
H476   N484    1.029   .     S
H477   N485    1.022   .     S
H481   C510    1.076   .     S
N484   N485    1.286   .     D
N484   Zn500   2.029   .     S
N485   Zn499   2.029   .     S
O486   Zn499   1.971   .     S
O486   C501    1.282   .     S
O487   S648    1.503   .     S
O488   S498    1.682   .     S
O490   Zn500   1.980   .     S
O491   Zn499   1.999   .     S
O491   C504    1.300   .     S
O492   Zn500   1.994   .     S
O493   Zn499   1.980   .     S
O494   Zn500   1.971   .     S
O494   C556    1.281   1_455 S
O495   Zn499   1.994   .     S
O496   Zn500   1.999   .     S
O496   C557    1.297   1_455 S
O497   S648    1.503   .     S
S498   O787    1.503   1_545 S
S498   O797    1.503   1_545 S
C501   O540    1.293   .     A
C501   C503    1.405   .     S
C502   C504    1.471   .     S
C502   C515    1.403   .     A
C502   C510    1.400   .     A
C503   H523    1.089   .     S
C503   C605    1.342   .     S
C504   O542    1.304   .     A
C505   C506    1.407   .     S
C505   S548    1.775   .     S
C505   C853    1.342   1_545 S
C506   O543    1.292   .     A
C506   O594    1.281   .     S
C507   O545    1.293   .     A
C507   C509    1.440   .     S
C507   O596    1.297   .     S
C508   C517    1.401   .     A
C508   H529    1.084   .     S
C508   C71     1.391   1_556 S
C509   C521    1.398   .     A
C509   C520    1.390   .     A
C510   C61     1.390   1_556 S
C511   C513    1.393   .     A
C511   H533    1.083   .     S
C512   C515    1.399   .     A
C512   C63     1.418   1_556 S
C512   C66     1.413   1_556 S
C513   H532    1.078   .     S
C514   H525    1.086   .     S
C514   C519    1.475   .     S
C514   O539    1.217   .     D
C515   C519    1.402   .     A
C516   C520    1.376   .     A
C517   C518    1.388   .     A
C517   C66     1.422   1_556 S
C518   H528    1.082   .     S
C518   C519    1.390   .     A
C520   H530    1.076   .     S
C521   H572    1.083   .     S
H524   O538    0.991   .     S
H526   N534    1.029   .     S
H527   N535    1.022   .     S
H531   C560    1.076   .     S
N534   N535    1.286   .     D
N534   Zn550   2.029   .     S
N535   Zn549   2.029   .     S
O536   Zn549   1.971   .     S
O536   C551    1.282   .     S
O537   S698    1.503   .     S
O538   S548    1.682   .     S
O540   Zn550   1.980   .     S
O541   Zn549   1.999   .     S
O541   C554    1.300   .     S
O542   Zn550   1.994   .     S
O543   Zn549   1.980   .     S
O544   Zn550   1.971   .     S
O545   Zn549   1.994   .     S
O546   Zn550   1.999   .     S
O547   S698    1.503   .     S
S548   O837    1.503   1_545 S
S548   O847    1.503   1_545 S
C551   O590    1.293   .     A
C551   C553    1.405   .     S
C552   C554    1.471   .     S
C552   C565    1.403   .     A
C552   C560    1.400   .     A
C553   H573    1.089   .     S
C553   C655    1.342   .     S
C554   O592    1.304   .     A
C555   C556    1.407   .     S
C555   S598    1.775   .     S
C555   C753    1.342   1_645 S
C556   O593    1.292   .     A
C556   O494    1.281   1_655 S
C557   O595    1.293   .     A
C557   C559    1.440   .     S
C557   O496    1.297   1_655 S
C558   C567    1.401   .     A
C558   H579    1.084   .     S
C558   C121    1.391   1_556 S
C559   C571    1.398   .     A
C559   C570    1.390   .     A
C560   C111    1.390   1_556 S
C561   C563    1.393   .     A
C561   H583    1.083   .     S
C562   C565    1.399   .     A
C562   C113    1.418   1_556 S
C562   C116    1.413   1_556 S
C563   H582    1.078   .     S
C564   H575    1.086   .     S
C564   C569    1.475   .     S
C564   O589    1.217   .     D
C565   C569    1.402   .     A
C566   C570    1.376   .     A
C567   C568    1.388   .     A
C567   C116    1.422   1_556 S
C568   H578    1.082   .     S
C568   C569    1.390   .     A
C570   H580    1.076   .     S
C571   H472    1.083   1_655 S
H574   O588    0.991   .     S
H576   N584    1.029   .     S
H577   N585    1.022   .     S
H581   C460    1.076   1_655 S
N584   N585    1.286   .     D
N584   Zn600   2.029   .     S
N585   Zn599   2.029   .     S
O586   Zn599   1.971   .     S
O586   C451    1.282   1_655 S
O587   S748    1.503   .     S
O588   S598    1.682   .     S
O590   Zn600   1.980   .     S
O591   Zn599   1.999   .     S
O591   C454    1.300   1_655 S
O592   Zn600   1.994   .     S
O593   Zn599   1.980   .     S
O594   Zn600   1.971   .     S
O595   Zn599   1.994   .     S
O596   Zn600   1.999   .     S
O597   S748    1.503   .     S
S598   O887    1.503   1_545 S
S598   O897    1.503   1_545 S
C601   O640    1.293   .     A
C601   C603    1.405   .     S
C601   O736    1.282   1_455 S
C602   C604    1.471   .     S
C602   C615    1.403   .     A
C602   C610    1.400   .     A
C603   H623    1.089   .     S
C603   C855    1.342   1_455 S
C604   O642    1.304   .     A
C604   O741    1.300   1_455 S
C605   C606    1.407   .     S
C605   S648    1.775   .     S
C606   O643    1.292   .     A
C606   O694    1.281   .     S
C607   O645    1.293   .     A
C607   C609    1.440   .     S
C607   O696    1.297   .     S
C608   C617    1.401   .     A
C608   H629    1.084   .     S
C608   C171    1.391   1_556 S
C609   C621    1.398   .     A
C609   C620    1.390   .     A
C610   C161    1.390   1_556 S
C610   H731    1.076   1_455 S
C611   C613    1.393   .     A
C611   H633    1.083   .     S
C612   C615    1.399   .     A
C612   C163    1.418   1_556 S
C612   C166    1.413   1_556 S
C613   H632    1.078   .     S
C614   H625    1.086   .     S
C614   C619    1.475   .     S
C614   O639    1.217   .     D
C615   C619    1.402   .     A
C616   C620    1.376   .     A
C617   C618    1.388   .     A
C617   C166    1.422   1_556 S
C618   H628    1.082   .     S
C618   C619    1.390   .     A
C620   H630    1.076   .     S
C621   H672    1.083   .     S
H622   C721    1.083   1_455 S
H624   O638    0.991   .     S
H626   N634    1.029   .     S
H627   N635    1.022   .     S
H631   C660    1.076   .     S
N634   N635    1.286   .     D
N634   Zn650   2.029   .     S
N635   Zn649   2.029   .     S
O636   Zn649   1.971   .     S
O636   C651    1.282   .     S
O637   S798    1.503   .     S
O638   S648    1.682   .     S
O640   Zn650   1.980   .     S
O641   Zn649   1.999   .     S
O641   C654    1.300   .     S
O642   Zn650   1.994   .     S
O643   Zn649   1.980   .     S
O644   Zn650   1.971   .     S
O644   C706    1.281   1_455 S
O645   Zn649   1.994   .     S
O646   Zn650   1.999   .     S
O646   C707    1.297   1_455 S
O647   S798    1.503   .     S
C651   O690    1.293   .     A
C651   C653    1.405   .     S
C652   C654    1.471   .     S
C652   C665    1.403   .     A
C652   C660    1.400   .     A
C653   H673    1.089   .     S
C653   C755    1.342   .     S
C654   O692    1.304   .     A
C655   C656    1.407   .     S
C655   S698    1.775   .     S
C656   O693    1.292   .     A
C656   O744    1.281   .     S
C657   O695    1.293   .     A
C657   C659    1.440   .     S
C657   O746    1.297   .     S
C658   C667    1.401   .     A
C658   H679    1.084   .     S
C658   C221    1.391   1_556 S
C659   C671    1.398   .     A
C659   C670    1.390   .     A
C660   C211    1.390   1_556 S
C661   C663    1.393   .     A
C661   H683    1.083   .     S
C662   C665    1.399   .     A
C662   C213    1.418   1_556 S
C662   C216    1.413   1_556 S
C663   H682    1.078   .     S
C664   H675    1.086   .     S
C664   C669    1.475   .     S
C664   O689    1.217   .     D
C665   C669    1.402   .     A
C666   C670    1.376   .     A
C667   C668    1.388   .     A
C667   C216    1.422   1_556 S
C668   H678    1.082   .     S
C668   C669    1.390   .     A
C670   H680    1.076   .     S
C671   H722    1.083   .     S
H674   O688    0.991   .     S
H676   N684    1.029   .     S
H677   N685    1.022   .     S
H681   C710    1.076   .     S
N684   N685    1.286   .     D
N684   Zn700   2.029   .     S
N685   Zn699   2.029   .     S
O686   Zn699   1.971   .     S
O686   C701    1.282   .     S
O687   S848    1.503   .     S
O688   S698    1.682   .     S
O690   Zn700   1.980   .     S
O691   Zn699   1.999   .     S
O691   C704    1.300   .     S
O692   Zn700   1.994   .     S
O693   Zn699   1.980   .     S
O694   Zn700   1.971   .     S
O695   Zn699   1.994   .     S
O696   Zn700   1.999   .     S
O697   S848    1.503   .     S
C701   O740    1.293   .     A
C701   C703    1.405   .     S
C702   C704    1.471   .     S
C702   C715    1.403   .     A
C702   C710    1.400   .     A
C703   H723    1.089   .     S
C703   C805    1.342   .     S
C704   O742    1.304   .     A
C705   C706    1.407   .     S
C705   S748    1.775   .     S
C705   C453    1.342   1_655 S
C706   O743    1.292   .     A
C706   O644    1.281   1_655 S
C707   O745    1.293   .     A
C707   C709    1.440   .     S
C707   O646    1.297   1_655 S
C708   C717    1.401   .     A
C708   H729    1.084   .     S
C708   C271    1.391   1_556 S
C709   C721    1.398   .     A
C709   C720    1.390   .     A
C710   C261    1.390   1_556 S
C711   C713    1.393   .     A
C711   H733    1.083   .     S
C712   C715    1.399   .     A
C712   C263    1.418   1_556 S
C712   C266    1.413   1_556 S
C713   H732    1.078   .     S
C714   H725    1.086   .     S
C714   C719    1.475   .     S
C714   O739    1.217   .     D
C715   C719    1.402   .     A
C716   C720    1.376   .     A
C717   C718    1.388   .     A
C717   C266    1.422   1_556 S
C718   H728    1.082   .     S
C718   C719    1.390   .     A
C720   H730    1.076   .     S
C721   H622    1.083   1_655 S
H724   O738    0.991   .     S
H726   N734    1.029   .     S
H727   N735    1.022   .     S
H731   C610    1.076   1_655 S
N734   N735    1.286   .     D
N734   Zn750   2.029   .     S
N735   Zn749   2.029   .     S
O736   Zn749   1.971   .     S
O736   C601    1.282   1_655 S
O737   S898    1.503   .     S
O738   S748    1.682   .     S
O740   Zn750   1.980   .     S
O741   Zn749   1.999   .     S
O741   C604    1.300   1_655 S
O742   Zn750   1.994   .     S
O743   Zn749   1.980   .     S
O744   Zn750   1.971   .     S
O745   Zn749   1.994   .     S
O746   Zn750   1.999   .     S
O747   S898    1.503   .     S
C751   O790    1.293   .     A
C751   C753    1.405   .     S
C751   O886    1.282   1_455 S
C752   C754    1.471   .     S
C752   C765    1.403   .     A
C752   C760    1.400   .     A
C753   H773    1.089   .     S
C753   C555    1.342   1_465 S
C754   O792    1.304   .     A
C754   O891    1.300   1_455 S
C755   C756    1.407   .     S
C755   S798    1.775   .     S
C756   O793    1.292   .     A
C756   O844    1.281   .     S
C757   O795    1.293   .     A
C757   C759    1.440   .     S
C757   O846    1.297   .     S
C758   C767    1.401   .     A
C758   H779    1.084   .     S
C758   C321    1.391   1_556 S
C759   C771    1.398   .     A
C759   C770    1.390   .     A
C760   C311    1.390   1_556 S
C760   H881    1.076   1_455 S
C761   C763    1.393   .     A
C761   H783    1.083   .     S
C762   C765    1.399   .     A
C762   C313    1.418   1_556 S
C762   C316    1.413   1_556 S
C763   H782    1.078   .     S
C764   H775    1.086   .     S
C764   C769    1.475   .     S
C764   O789    1.217   .     D
C765   C769    1.402   .     A
C766   C770    1.376   .     A
C767   C768    1.388   .     A
C767   C316    1.422   1_556 S
C768   H778    1.082   .     S
C768   C769    1.390   .     A
C770   H780    1.076   .     S
C771   H822    1.083   .     S
H772   C871    1.083   1_455 S
H774   O788    0.991   .     S
H776   N784    1.029   .     S
H777   N785    1.022   .     S
H781   C810    1.076   .     S
N784   N785    1.286   .     D
N784   Zn800   2.029   .     S
N785   Zn799   2.029   .     S
O786   Zn799   1.971   .     S
O786   C801    1.282   .     S
O787   S498    1.503   1_565 S
O788   S798    1.682   .     S
O790   Zn800   1.980   .     S
O791   Zn799   1.999   .     S
O791   C804    1.300   .     S
O792   Zn800   1.994   .     S
O793   Zn799   1.980   .     S
O794   Zn800   1.971   .     S
O794   C856    1.281   1_455 S
O795   Zn799   1.994   .     S
O796   Zn800   1.999   .     S
O796   C857    1.297   1_455 S
O797   S498    1.503   1_565 S
C801   O840    1.293   .     A
C801   C803    1.405   .     S
C802   C804    1.471   .     S
C802   C815    1.403   .     A
C802   C810    1.400   .     A
C803   H823    1.089   .     S
C803   C455    1.342   1_565 S
C804   O842    1.304   .     A
C805   C806    1.407   .     S
C805   S848    1.775   .     S
C806   O843    1.292   .     A
C806   O894    1.281   .     S
C807   O845    1.293   .     A
C807   C809    1.440   .     S
C807   O896    1.297   .     S
C808   C817    1.401   .     A
C808   H829    1.084   .     S
C808   C371    1.391   1_556 S
C809   C821    1.398   .     A
C809   C820    1.390   .     A
C810   C361    1.390   1_556 S
C811   C813    1.393   .     A
C811   H833    1.083   .     S
C812   C815    1.399   .     A
C812   C363    1.418   1_556 S
C812   C366    1.413   1_556 S
C813   H832    1.078   .     S
C814   H825    1.086   .     S
C814   C819    1.475   .     S
C814   O839    1.217   .     D
C815   C819    1.402   .     A
C816   C820    1.376   .     A
C817   C818    1.388   .     A
C817   C366    1.422   1_556 S
C818   H828    1.082   .     S
C818   C819    1.390   .     A
C820   H830    1.076   .     S
C821   H872    1.083   .     S
H824   O838    0.991   .     S
H826   N834    1.029   .     S
H827   N835    1.022   .     S
H831   C860    1.076   .     S
N834   N835    1.286   .     D
N834   Zn850   2.029   .     S
N835   Zn849   2.029   .     S
O836   Zn849   1.971   .     S
O836   C851    1.282   .     S
O837   S548    1.503   1_565 S
O838   S848    1.682   .     S
O840   Zn850   1.980   .     S
O841   Zn849   1.999   .     S
O841   C854    1.300   .     S
O842   Zn850   1.994   .     S
O843   Zn849   1.980   .     S
O844   Zn850   1.971   .     S
O845   Zn849   1.994   .     S
O846   Zn850   1.999   .     S
O847   S548    1.503   1_565 S
C851   O890    1.293   .     A
C851   C853    1.405   .     S
C852   C854    1.471   .     S
C852   C865    1.403   .     A
C852   C860    1.400   .     A
C853   H873    1.089   .     S
C853   C505    1.342   1_565 S
C854   O892    1.304   .     A
C855   C856    1.407   .     S
C855   S898    1.775   .     S
C855   C603    1.342   1_655 S
C856   O893    1.292   .     A
C856   O794    1.281   1_655 S
C857   O895    1.293   .     A
C857   C859    1.440   .     S
C857   O796    1.297   1_655 S
C858   C867    1.401   .     A
C858   H879    1.084   .     S
C858   C421    1.391   1_556 S
C859   C871    1.398   .     A
C859   C870    1.390   .     A
C860   C411    1.390   1_556 S
C861   C863    1.393   .     A
C861   H883    1.083   .     S
C862   C865    1.399   .     A
C862   C413    1.418   1_556 S
C862   C416    1.413   1_556 S
C863   H882    1.078   .     S
C864   H875    1.086   .     S
C864   C869    1.475   .     S
C864   O889    1.217   .     D
C865   C869    1.402   .     A
C866   C870    1.376   .     A
C867   C868    1.388   .     A
C867   C416    1.422   1_556 S
C868   H878    1.082   .     S
C868   C869    1.390   .     A
C870   H880    1.076   .     S
C871   H772    1.083   1_655 S
H874   O888    0.991   .     S
H876   N884    1.029   .     S
H877   N885    1.022   .     S
H881   C760    1.076   1_655 S
N884   N885    1.286   .     D
N884   Zn900   2.029   .     S
N885   Zn899   2.029   .     S
O886   Zn899   1.971   .     S
O886   C751    1.282   1_655 S
O887   S598    1.503   1_565 S
O888   S898    1.682   .     S
O890   Zn900   1.980   .     S
O891   Zn899   1.999   .     S
O891   C754    1.300   1_655 S
O892   Zn900   1.994   .     S
O893   Zn899   1.980   .     S
O894   Zn900   1.971   .     S
O895   Zn899   1.994   .     S
O896   Zn900   1.999   .     S
O897   S598    1.503   1_565 S
