data_str_m3_o2_o10_pcu_sym.98
_audit_creation_date              2020-01-03
_audit_creation_method            'Materials Studio'
_symmetry_space_group_name_H-M    'P1'
_symmetry_Int_Tables_number       1
_symmetry_cell_setting            triclinic
loop_
_symmetry_equiv_pos_as_xyz
  x,y,z
_cell_length_a                    25.6748
_cell_length_b                    29.9402
_cell_length_c                    28.7540
_cell_angle_alpha                 90.0983
_cell_angle_beta                  98.0193
_cell_angle_gamma                 93.0373
loop_
_atom_site_label
_atom_site_type_symbol
_atom_site_fract_x
_atom_site_fract_y
_atom_site_fract_z
_atom_site_U_iso_or_equiv
_atom_site_adp_type
_atom_site_occupancy
C1     C     0.16744   0.16418   0.25014   0.00000  Uiso   1.00
C2     C     0.13833   0.21516   0.44351   0.00000  Uiso   1.00
C3     C     0.16563   0.25111   0.02628   0.00000  Uiso   1.00
C4     C     0.17143   0.24516   0.47348   0.00000  Uiso   1.00
C5     C     0.06724   0.25011   0.23775   0.00000  Uiso   1.00
C6     C     0.26610   0.25148   0.26216   0.00000  Uiso   1.00
C7     C     0.01212   0.24929   0.23112   0.00000  Uiso   1.00
C8     C     0.32118   0.25566   0.26819   0.00000  Uiso   1.00
C9     C     0.20324   0.04908   0.28816   0.00000  Uiso   1.00
C10    C     0.12316   0.45048   0.27154   0.00000  Uiso   1.00
C11    C     0.20701   0.09578   0.28354   0.00000  Uiso   1.00
C12    C     0.16608   0.33576   0.25004   0.00000  Uiso   1.00
C13    C     0.12198   0.40362   0.26783   0.00000  Uiso   1.00
C14    C     0.16933   0.11620   0.25092   0.00000  Uiso   1.00
C15    C     0.16420   0.38363   0.25058   0.00000  Uiso   1.00
C16    C     0.13094   0.09110   0.22090   0.00000  Uiso   1.00
C17    C     0.20560   0.40882   0.23468   0.00000  Uiso   1.00
C18    C     0.13193   0.04442   0.22125   0.00000  Uiso   1.00
C19    C     0.20661   0.45551   0.23802   0.00000  Uiso   1.00
C20    C     0.16633   0.02408   0.25598   0.00000  Uiso   1.00
C21    C     0.16527   0.47564   0.25570   0.00000  Uiso   1.00
C22    C     0.23791   0.02636   0.32722   0.00000  Uiso   1.00
C23    C     0.12207   0.23292   0.04693   0.00000  Uiso   1.00
C24    C     0.08081   0.47317   0.29340   0.00000  Uiso   1.00
C25    C     0.25032   0.12407   0.31311   0.00000  Uiso   1.00
C26    C     0.07602   0.37441   0.28095   0.00000  Uiso   1.00
C27    C     0.06706   0.23029   0.01937   0.00000  Uiso   1.00
C28    C     0.27019   0.26250   0.47769   0.00000  Uiso   1.00
C29    C     0.08392   0.20016   0.11592   0.00000  Uiso   1.00
C30    C     0.24978   0.29982   0.38370   0.00000  Uiso   1.00
C31    C     0.24039   0.31007   0.13548   0.00000  Uiso   1.00
C32    C     0.08652   0.19706   0.36415   0.00000  Uiso   1.00
C33    C     0.21433   0.26385   0.45239   0.00000  Uiso   1.00
C34    C     0.12661   0.22775   0.09665   0.00000  Uiso   1.00
C35    C     0.20801   0.27102   0.40298   0.00000  Uiso   1.00
C36    C     0.20150   0.27836   0.10613   0.00000  Uiso   1.00
C37    C     0.13265   0.22095   0.39380   0.00000  Uiso   1.00
C38    C     0.20003   0.28043   0.05619   0.00000  Uiso   1.00
H39    H     0.32495   0.24190   0.19600   0.00000  Uiso   1.00
H40    H     0.23457   0.13925   0.34316   0.00000  Uiso   1.00
H41    H     0.28464   0.10477   0.32701   0.00000  Uiso   1.00
H42    H     0.06187   0.35015   0.25212   0.00000  Uiso   1.00
H43    H     0.08869   0.35587   0.31361   0.00000  Uiso   1.00
H44    H     0.04144   0.39317   0.28666   0.00000  Uiso   1.00
H45    H     0.05997   0.09292   0.18701   0.00000  Uiso   1.00
H46    H     0.25855   0.40583   0.19277   0.00000  Uiso   1.00
H47    H     0.09148   0.03488   0.15930   0.00000  Uiso   1.00
H48    H     0.28046   0.46644   0.23123   0.00000  Uiso   1.00
H49    H     0.06540   0.24670   0.48472   0.00000  Uiso   1.00
H50    H     0.00816   0.26461   0.30283   0.00000  Uiso   1.00
H51    H     0.05117   0.19512   0.01494   0.00000  Uiso   1.00
H52    H     0.04033   0.24899   0.03851   0.00000  Uiso   1.00
H53    H     0.28955   0.29656   0.48197   0.00000  Uiso   1.00
H54    H     0.27187   0.24600   0.01233   0.00000  Uiso   1.00
H55    H     0.29363   0.24204   0.45688   0.00000  Uiso   1.00
H56    H     0.09724   0.18727   0.15079   0.00000  Uiso   1.00
H57    H     0.04901   0.22021   0.11732   0.00000  Uiso   1.00
H58    H     0.07202   0.17010   0.09351   0.00000  Uiso   1.00
H59    H     0.23563   0.31425   0.34961   0.00000  Uiso   1.00
H60    H     0.26205   0.32897   0.40738   0.00000  Uiso   1.00
H61    H     0.22504   0.49099   0.33224   0.00000  Uiso   1.00
H62    H     0.28478   0.28031   0.38082   0.00000  Uiso   1.00
H63    H     0.23821   0.30949   0.17274   0.00000  Uiso   1.00
H64    H     0.28118   0.30205   0.13108   0.00000  Uiso   1.00
H65    H     0.23336   0.34505   0.12457   0.00000  Uiso   1.00
H66    H     0.09908   0.17559   0.33706   0.00000  Uiso   1.00
H67    H     0.06176   0.17565   0.38470   0.00000  Uiso   1.00
H68    H     0.05968   0.22206   0.34861   0.00000  Uiso   1.00
H69    H     0.25849   0.32498   0.05526   0.00000  Uiso   1.00
H70    H     0.11790   0.15192   0.44128   0.00000  Uiso   1.00
H71    H     0.27910   0.02718   0.31944   0.00000  Uiso   1.00
H72    H     0.23662   0.04368   0.36119   0.00000  Uiso   1.00
H73    H     0.08938   0.00948   0.29982   0.00000  Uiso   1.00
H74    H     0.04265   0.46896   0.27000   0.00000  Uiso   1.00
H75    H     0.07696   0.45828   0.32818   0.00000  Uiso   1.00
H76    H     0.26604   0.15098   0.29153   0.00000  Uiso   1.00
N77    N     0.16667   0.24999   0.12623   0.00000  Uiso   1.00
N78    N     0.16667   0.25001   0.37376   0.00000  Uiso   1.00
O79    O     0.16667   0.18454   0.28974   0.00000  Uiso   1.00
O80    O     0.24450   0.38680   0.21677   0.00000  Uiso   1.00
O81    O     0.09992   0.01767   0.18852   0.00000  Uiso   1.00
O82    O     0.24752   0.48252   0.22517   0.00000  Uiso   1.00
O83    O     0.22502   0.31564   0.03557   0.00000  Uiso   1.00
O84    O     0.11714   0.17752   0.46303   0.00000  Uiso   1.00
O85    O     0.16666   0.31546   0.21026   0.00000  Uiso   1.00
O86    O     0.16667   0.18453   0.21026   0.00000  Uiso   1.00
O87    O     0.16666   0.31547   0.28974   0.00000  Uiso   1.00
O88    O     0.09058   0.25000   0.28044   0.00000  Uiso   1.00
O89    O     0.24275   0.25000   0.21955   0.00000  Uiso   1.00
O90    O     0.09058   0.24999   0.20096   0.00000  Uiso   1.00
O91    O     0.24275   0.25001   0.29903   0.00000  Uiso   1.00
O92    O     0.09211   0.11303   0.19318   0.00000  Uiso   1.00
Zn93   Zn    0.16667   0.25000   0.30307   0.00000  Uiso   1.00
Zn94   Zn    0.16667   0.24999   0.19693   0.00000  Uiso   1.00
C95    C     0.50077   0.16418   0.25014   0.00000  Uiso   1.00
C96    C     0.47166   0.21516   0.44351   0.00000  Uiso   1.00
C97    C     0.49896   0.25111   0.02628   0.00000  Uiso   1.00
C98    C     0.50476   0.24516   0.47348   0.00000  Uiso   1.00
C99    C     0.40057   0.25011   0.23775   0.00000  Uiso   1.00
C100   C     0.59944   0.25148   0.26216   0.00000  Uiso   1.00
C101   C     0.34546   0.24929   0.23112   0.00000  Uiso   1.00
C102   C     0.65451   0.25566   0.26819   0.00000  Uiso   1.00
C103   C     0.53657   0.04908   0.28816   0.00000  Uiso   1.00
C104   C     0.45650   0.45048   0.27154   0.00000  Uiso   1.00
C105   C     0.54034   0.09578   0.28354   0.00000  Uiso   1.00
C106   C     0.49941   0.33576   0.25004   0.00000  Uiso   1.00
C107   C     0.45531   0.40362   0.26783   0.00000  Uiso   1.00
C108   C     0.50267   0.11620   0.25092   0.00000  Uiso   1.00
C109   C     0.49753   0.38363   0.25058   0.00000  Uiso   1.00
C110   C     0.46428   0.09110   0.22090   0.00000  Uiso   1.00
C111   C     0.53893   0.40882   0.23468   0.00000  Uiso   1.00
C112   C     0.46527   0.04442   0.22125   0.00000  Uiso   1.00
C113   C     0.53994   0.45551   0.23802   0.00000  Uiso   1.00
C114   C     0.49966   0.02408   0.25598   0.00000  Uiso   1.00
C115   C     0.49861   0.47564   0.25570   0.00000  Uiso   1.00
C116   C     0.57124   0.02636   0.32722   0.00000  Uiso   1.00
C117   C     0.45541   0.23292   0.04693   0.00000  Uiso   1.00
C118   C     0.41414   0.47317   0.29340   0.00000  Uiso   1.00
C119   C     0.58366   0.12407   0.31311   0.00000  Uiso   1.00
C120   C     0.40936   0.37441   0.28095   0.00000  Uiso   1.00
C121   C     0.40039   0.23029   0.01937   0.00000  Uiso   1.00
C122   C     0.60352   0.26250   0.47769   0.00000  Uiso   1.00
C123   C     0.41725   0.20016   0.11592   0.00000  Uiso   1.00
C124   C     0.58311   0.29982   0.38370   0.00000  Uiso   1.00
C125   C     0.57373   0.31007   0.13548   0.00000  Uiso   1.00
C126   C     0.41985   0.19706   0.36415   0.00000  Uiso   1.00
C127   C     0.54766   0.26385   0.45239   0.00000  Uiso   1.00
C128   C     0.45994   0.22775   0.09665   0.00000  Uiso   1.00
C129   C     0.54134   0.27102   0.40298   0.00000  Uiso   1.00
C130   C     0.53483   0.27836   0.10613   0.00000  Uiso   1.00
C131   C     0.46599   0.22095   0.39380   0.00000  Uiso   1.00
C132   C     0.53336   0.28043   0.05619   0.00000  Uiso   1.00
H133   H     0.65828   0.24190   0.19600   0.00000  Uiso   1.00
H134   H     0.56791   0.13925   0.34316   0.00000  Uiso   1.00
H135   H     0.61797   0.10477   0.32701   0.00000  Uiso   1.00
H136   H     0.39520   0.35015   0.25212   0.00000  Uiso   1.00
H137   H     0.42202   0.35587   0.31361   0.00000  Uiso   1.00
H138   H     0.37477   0.39317   0.28666   0.00000  Uiso   1.00
H139   H     0.39330   0.09292   0.18701   0.00000  Uiso   1.00
H140   H     0.59189   0.40583   0.19277   0.00000  Uiso   1.00
H141   H     0.42481   0.03488   0.15930   0.00000  Uiso   1.00
H142   H     0.61379   0.46644   0.23123   0.00000  Uiso   1.00
H143   H     0.39873   0.24670   0.48472   0.00000  Uiso   1.00
H144   H     0.34150   0.26461   0.30283   0.00000  Uiso   1.00
H145   H     0.38450   0.19512   0.01494   0.00000  Uiso   1.00
H146   H     0.37366   0.24899   0.03851   0.00000  Uiso   1.00
H147   H     0.62288   0.29656   0.48197   0.00000  Uiso   1.00
H148   H     0.60520   0.24600   0.01233   0.00000  Uiso   1.00
H149   H     0.62697   0.24204   0.45688   0.00000  Uiso   1.00
H150   H     0.43058   0.18727   0.15079   0.00000  Uiso   1.00
H151   H     0.38234   0.22021   0.11732   0.00000  Uiso   1.00
H152   H     0.40535   0.17010   0.09351   0.00000  Uiso   1.00
H153   H     0.56896   0.31425   0.34961   0.00000  Uiso   1.00
H154   H     0.59538   0.32897   0.40738   0.00000  Uiso   1.00
H155   H     0.55837   0.49099   0.33224   0.00000  Uiso   1.00
H156   H     0.61811   0.28031   0.38082   0.00000  Uiso   1.00
H157   H     0.57155   0.30949   0.17274   0.00000  Uiso   1.00
H158   H     0.61451   0.30205   0.13108   0.00000  Uiso   1.00
H159   H     0.56670   0.34505   0.12457   0.00000  Uiso   1.00
H160   H     0.43241   0.17559   0.33706   0.00000  Uiso   1.00
H161   H     0.39509   0.17565   0.38470   0.00000  Uiso   1.00
H162   H     0.39301   0.22206   0.34861   0.00000  Uiso   1.00
H163   H     0.59183   0.32498   0.05526   0.00000  Uiso   1.00
H164   H     0.45123   0.15192   0.44128   0.00000  Uiso   1.00
H165   H     0.61244   0.02718   0.31944   0.00000  Uiso   1.00
H166   H     0.56995   0.04368   0.36119   0.00000  Uiso   1.00
H167   H     0.42271   0.00948   0.29982   0.00000  Uiso   1.00
H168   H     0.37598   0.46896   0.27000   0.00000  Uiso   1.00
H169   H     0.41029   0.45828   0.32818   0.00000  Uiso   1.00
H170   H     0.59937   0.15098   0.29153   0.00000  Uiso   1.00
N171   N     0.50000   0.24999   0.12623   0.00000  Uiso   1.00
N172   N     0.50000   0.25001   0.37376   0.00000  Uiso   1.00
O173   O     0.50000   0.18454   0.28974   0.00000  Uiso   1.00
O174   O     0.57783   0.38680   0.21677   0.00000  Uiso   1.00
O175   O     0.43326   0.01767   0.18852   0.00000  Uiso   1.00
O176   O     0.58085   0.48252   0.22517   0.00000  Uiso   1.00
O177   O     0.55835   0.31564   0.03557   0.00000  Uiso   1.00
O178   O     0.45047   0.17752   0.46303   0.00000  Uiso   1.00
O179   O     0.50000   0.31546   0.21026   0.00000  Uiso   1.00
O180   O     0.50000   0.18453   0.21026   0.00000  Uiso   1.00
O181   O     0.50000   0.31547   0.28974   0.00000  Uiso   1.00
O182   O     0.42392   0.25000   0.28044   0.00000  Uiso   1.00
O183   O     0.57608   0.25000   0.21955   0.00000  Uiso   1.00
O184   O     0.42392   0.24999   0.20096   0.00000  Uiso   1.00
O185   O     0.57608   0.25001   0.29903   0.00000  Uiso   1.00
O186   O     0.42544   0.11303   0.19318   0.00000  Uiso   1.00
Zn187  Zn    0.50000   0.25000   0.30307   0.00000  Uiso   1.00
Zn188  Zn    0.50000   0.24999   0.19693   0.00000  Uiso   1.00
C189   C     0.83410   0.16418   0.25014   0.00000  Uiso   1.00
C190   C     0.80499   0.21516   0.44351   0.00000  Uiso   1.00
C191   C     0.83229   0.25111   0.02628   0.00000  Uiso   1.00
C192   C     0.83809   0.24516   0.47348   0.00000  Uiso   1.00
C193   C     0.73390   0.25011   0.23775   0.00000  Uiso   1.00
C194   C     0.93277   0.25148   0.26216   0.00000  Uiso   1.00
C195   C     0.67879   0.24929   0.23112   0.00000  Uiso   1.00
C196   C     0.98785   0.25566   0.26819   0.00000  Uiso   1.00
C197   C     0.86990   0.04908   0.28816   0.00000  Uiso   1.00
C198   C     0.78983   0.45048   0.27154   0.00000  Uiso   1.00
C199   C     0.87368   0.09578   0.28354   0.00000  Uiso   1.00
C200   C     0.83274   0.33576   0.25004   0.00000  Uiso   1.00
C201   C     0.78865   0.40362   0.26783   0.00000  Uiso   1.00
C202   C     0.83600   0.11620   0.25092   0.00000  Uiso   1.00
C203   C     0.83087   0.38363   0.25058   0.00000  Uiso   1.00
C204   C     0.79761   0.09110   0.22090   0.00000  Uiso   1.00
C205   C     0.87226   0.40882   0.23468   0.00000  Uiso   1.00
C206   C     0.79860   0.04442   0.22125   0.00000  Uiso   1.00
C207   C     0.87328   0.45551   0.23802   0.00000  Uiso   1.00
C208   C     0.83299   0.02408   0.25598   0.00000  Uiso   1.00
C209   C     0.83194   0.47564   0.25570   0.00000  Uiso   1.00
C210   C     0.90458   0.02636   0.32722   0.00000  Uiso   1.00
C211   C     0.78874   0.23292   0.04693   0.00000  Uiso   1.00
C212   C     0.74748   0.47317   0.29340   0.00000  Uiso   1.00
C213   C     0.91699   0.12407   0.31311   0.00000  Uiso   1.00
C214   C     0.74269   0.37441   0.28095   0.00000  Uiso   1.00
C215   C     0.73372   0.23029   0.01937   0.00000  Uiso   1.00
C216   C     0.93685   0.26250   0.47769   0.00000  Uiso   1.00
C217   C     0.75058   0.20016   0.11592   0.00000  Uiso   1.00
C218   C     0.91644   0.29982   0.38370   0.00000  Uiso   1.00
C219   C     0.90706   0.31007   0.13548   0.00000  Uiso   1.00
C220   C     0.75318   0.19706   0.36415   0.00000  Uiso   1.00
C221   C     0.88100   0.26385   0.45239   0.00000  Uiso   1.00
C222   C     0.79327   0.22775   0.09665   0.00000  Uiso   1.00
C223   C     0.87468   0.27102   0.40298   0.00000  Uiso   1.00
C224   C     0.86816   0.27836   0.10613   0.00000  Uiso   1.00
C225   C     0.79932   0.22095   0.39380   0.00000  Uiso   1.00
C226   C     0.86669   0.28043   0.05619   0.00000  Uiso   1.00
H227   H     0.99162   0.24190   0.19600   0.00000  Uiso   1.00
H228   H     0.90124   0.13925   0.34316   0.00000  Uiso   1.00
H229   H     0.95131   0.10477   0.32701   0.00000  Uiso   1.00
H230   H     0.72853   0.35015   0.25212   0.00000  Uiso   1.00
H231   H     0.75535   0.35587   0.31361   0.00000  Uiso   1.00
H232   H     0.70810   0.39317   0.28666   0.00000  Uiso   1.00
H233   H     0.72663   0.09292   0.18701   0.00000  Uiso   1.00
H234   H     0.92522   0.40583   0.19277   0.00000  Uiso   1.00
H235   H     0.75814   0.03488   0.15930   0.00000  Uiso   1.00
H236   H     0.94713   0.46644   0.23123   0.00000  Uiso   1.00
H237   H     0.73206   0.24670   0.48472   0.00000  Uiso   1.00
H238   H     0.67483   0.26461   0.30283   0.00000  Uiso   1.00
H239   H     0.71783   0.19512   0.01494   0.00000  Uiso   1.00
H240   H     0.70700   0.24899   0.03851   0.00000  Uiso   1.00
H241   H     0.95622   0.29656   0.48197   0.00000  Uiso   1.00
H242   H     0.93853   0.24600   0.01233   0.00000  Uiso   1.00
H243   H     0.96030   0.24204   0.45688   0.00000  Uiso   1.00
H244   H     0.76391   0.18727   0.15079   0.00000  Uiso   1.00
H245   H     0.71567   0.22021   0.11732   0.00000  Uiso   1.00
H246   H     0.73869   0.17010   0.09351   0.00000  Uiso   1.00
H247   H     0.90230   0.31425   0.34961   0.00000  Uiso   1.00
H248   H     0.92871   0.32897   0.40738   0.00000  Uiso   1.00
H249   H     0.89170   0.49099   0.33224   0.00000  Uiso   1.00
H250   H     0.95145   0.28031   0.38082   0.00000  Uiso   1.00
H251   H     0.90488   0.30949   0.17274   0.00000  Uiso   1.00
H252   H     0.94784   0.30205   0.13108   0.00000  Uiso   1.00
H253   H     0.90003   0.34505   0.12457   0.00000  Uiso   1.00
H254   H     0.76575   0.17559   0.33706   0.00000  Uiso   1.00
H255   H     0.72842   0.17565   0.38470   0.00000  Uiso   1.00
H256   H     0.72634   0.22206   0.34861   0.00000  Uiso   1.00
H257   H     0.92516   0.32498   0.05526   0.00000  Uiso   1.00
H258   H     0.78457   0.15192   0.44128   0.00000  Uiso   1.00
H259   H     0.94577   0.02718   0.31944   0.00000  Uiso   1.00
H260   H     0.90328   0.04368   0.36119   0.00000  Uiso   1.00
H261   H     0.75605   0.00948   0.29982   0.00000  Uiso   1.00
H262   H     0.70932   0.46896   0.27000   0.00000  Uiso   1.00
H263   H     0.74362   0.45828   0.32818   0.00000  Uiso   1.00
H264   H     0.93271   0.15098   0.29153   0.00000  Uiso   1.00
N265   N     0.83333   0.24999   0.12623   0.00000  Uiso   1.00
N266   N     0.83333   0.25001   0.37376   0.00000  Uiso   1.00
O267   O     0.83334   0.18454   0.28974   0.00000  Uiso   1.00
O268   O     0.91117   0.38680   0.21677   0.00000  Uiso   1.00
O269   O     0.76659   0.01767   0.18852   0.00000  Uiso   1.00
O270   O     0.91419   0.48252   0.22517   0.00000  Uiso   1.00
O271   O     0.89169   0.31564   0.03557   0.00000  Uiso   1.00
O272   O     0.78381   0.17752   0.46303   0.00000  Uiso   1.00
O273   O     0.83333   0.31546   0.21026   0.00000  Uiso   1.00
O274   O     0.83334   0.18453   0.21026   0.00000  Uiso   1.00
O275   O     0.83333   0.31547   0.28974   0.00000  Uiso   1.00
O276   O     0.75725   0.25000   0.28044   0.00000  Uiso   1.00
O277   O     0.90942   0.25000   0.21955   0.00000  Uiso   1.00
O278   O     0.75725   0.24999   0.20096   0.00000  Uiso   1.00
O279   O     0.90942   0.25001   0.29903   0.00000  Uiso   1.00
O280   O     0.75877   0.11303   0.19318   0.00000  Uiso   1.00
Zn281  Zn    0.83333   0.25000   0.30307   0.00000  Uiso   1.00
Zn282  Zn    0.83333   0.24999   0.19693   0.00000  Uiso   1.00
C283   C     0.16744   0.66418   0.25014   0.00000  Uiso   1.00
C284   C     0.13833   0.71516   0.44351   0.00000  Uiso   1.00
C285   C     0.16563   0.75111   0.02628   0.00000  Uiso   1.00
C286   C     0.17143   0.74516   0.47348   0.00000  Uiso   1.00
C287   C     0.06724   0.75011   0.23775   0.00000  Uiso   1.00
C288   C     0.26610   0.75148   0.26216   0.00000  Uiso   1.00
C289   C     0.01212   0.74929   0.23112   0.00000  Uiso   1.00
C290   C     0.32118   0.75566   0.26819   0.00000  Uiso   1.00
C291   C     0.20324   0.54908   0.28816   0.00000  Uiso   1.00
C292   C     0.12316   0.95048   0.27154   0.00000  Uiso   1.00
C293   C     0.20701   0.59578   0.28354   0.00000  Uiso   1.00
C294   C     0.16608   0.83576   0.25004   0.00000  Uiso   1.00
C295   C     0.12198   0.90362   0.26783   0.00000  Uiso   1.00
C296   C     0.16933   0.61620   0.25092   0.00000  Uiso   1.00
C297   C     0.16420   0.88363   0.25058   0.00000  Uiso   1.00
C298   C     0.13094   0.59110   0.22090   0.00000  Uiso   1.00
C299   C     0.20560   0.90882   0.23468   0.00000  Uiso   1.00
C300   C     0.13193   0.54442   0.22125   0.00000  Uiso   1.00
C301   C     0.20661   0.95551   0.23802   0.00000  Uiso   1.00
C302   C     0.16633   0.52408   0.25598   0.00000  Uiso   1.00
C303   C     0.16527   0.97564   0.25570   0.00000  Uiso   1.00
C304   C     0.23791   0.52636   0.32722   0.00000  Uiso   1.00
C305   C     0.12207   0.73292   0.04693   0.00000  Uiso   1.00
C306   C     0.08081   0.97317   0.29340   0.00000  Uiso   1.00
C307   C     0.25032   0.62407   0.31311   0.00000  Uiso   1.00
C308   C     0.07602   0.87441   0.28095   0.00000  Uiso   1.00
C309   C     0.06706   0.73029   0.01937   0.00000  Uiso   1.00
C310   C     0.27019   0.76250   0.47769   0.00000  Uiso   1.00
C311   C     0.08392   0.70016   0.11592   0.00000  Uiso   1.00
C312   C     0.24978   0.79982   0.38370   0.00000  Uiso   1.00
C313   C     0.24039   0.81007   0.13548   0.00000  Uiso   1.00
C314   C     0.08652   0.69706   0.36415   0.00000  Uiso   1.00
C315   C     0.21433   0.76385   0.45239   0.00000  Uiso   1.00
C316   C     0.12661   0.72775   0.09665   0.00000  Uiso   1.00
C317   C     0.20801   0.77102   0.40298   0.00000  Uiso   1.00
C318   C     0.20150   0.77836   0.10613   0.00000  Uiso   1.00
C319   C     0.13265   0.72095   0.39380   0.00000  Uiso   1.00
C320   C     0.20003   0.78043   0.05619   0.00000  Uiso   1.00
H321   H     0.32495   0.74190   0.19600   0.00000  Uiso   1.00
H322   H     0.23457   0.63925   0.34316   0.00000  Uiso   1.00
H323   H     0.28464   0.60477   0.32701   0.00000  Uiso   1.00
H324   H     0.06187   0.85015   0.25212   0.00000  Uiso   1.00
H325   H     0.08869   0.85587   0.31361   0.00000  Uiso   1.00
H326   H     0.04144   0.89317   0.28666   0.00000  Uiso   1.00
H327   H     0.05997   0.59292   0.18701   0.00000  Uiso   1.00
H328   H     0.25855   0.90583   0.19277   0.00000  Uiso   1.00
H329   H     0.09148   0.53488   0.15930   0.00000  Uiso   1.00
H330   H     0.28046   0.96644   0.23123   0.00000  Uiso   1.00
H331   H     0.06540   0.74670   0.48472   0.00000  Uiso   1.00
H332   H     0.00816   0.76461   0.30283   0.00000  Uiso   1.00
H333   H     0.05117   0.69512   0.01494   0.00000  Uiso   1.00
H334   H     0.04033   0.74899   0.03851   0.00000  Uiso   1.00
H335   H     0.28955   0.79656   0.48197   0.00000  Uiso   1.00
H336   H     0.27187   0.74600   0.01233   0.00000  Uiso   1.00
H337   H     0.29363   0.74204   0.45688   0.00000  Uiso   1.00
H338   H     0.09724   0.68727   0.15079   0.00000  Uiso   1.00
H339   H     0.04901   0.72021   0.11732   0.00000  Uiso   1.00
H340   H     0.07202   0.67010   0.09351   0.00000  Uiso   1.00
H341   H     0.23563   0.81425   0.34961   0.00000  Uiso   1.00
H342   H     0.26205   0.82897   0.40738   0.00000  Uiso   1.00
H343   H     0.22504   0.99099   0.33224   0.00000  Uiso   1.00
H344   H     0.28478   0.78031   0.38082   0.00000  Uiso   1.00
H345   H     0.23821   0.80949   0.17274   0.00000  Uiso   1.00
H346   H     0.28118   0.80205   0.13108   0.00000  Uiso   1.00
H347   H     0.23336   0.84505   0.12457   0.00000  Uiso   1.00
H348   H     0.09908   0.67559   0.33706   0.00000  Uiso   1.00
H349   H     0.06176   0.67565   0.38470   0.00000  Uiso   1.00
H350   H     0.05968   0.72206   0.34861   0.00000  Uiso   1.00
H351   H     0.25849   0.82498   0.05526   0.00000  Uiso   1.00
H352   H     0.11790   0.65192   0.44128   0.00000  Uiso   1.00
H353   H     0.27910   0.52718   0.31944   0.00000  Uiso   1.00
H354   H     0.23662   0.54368   0.36119   0.00000  Uiso   1.00
H355   H     0.08938   0.50948   0.29982   0.00000  Uiso   1.00
H356   H     0.04265   0.96896   0.27000   0.00000  Uiso   1.00
H357   H     0.07696   0.95828   0.32818   0.00000  Uiso   1.00
H358   H     0.26604   0.65098   0.29153   0.00000  Uiso   1.00
N359   N     0.16667   0.74999   0.12623   0.00000  Uiso   1.00
N360   N     0.16667   0.75001   0.37376   0.00000  Uiso   1.00
O361   O     0.16667   0.68454   0.28974   0.00000  Uiso   1.00
O362   O     0.24450   0.88680   0.21677   0.00000  Uiso   1.00
O363   O     0.09992   0.51767   0.18852   0.00000  Uiso   1.00
O364   O     0.24752   0.98252   0.22517   0.00000  Uiso   1.00
O365   O     0.22502   0.81564   0.03557   0.00000  Uiso   1.00
O366   O     0.11714   0.67752   0.46303   0.00000  Uiso   1.00
O367   O     0.16666   0.81546   0.21026   0.00000  Uiso   1.00
O368   O     0.16667   0.68453   0.21026   0.00000  Uiso   1.00
O369   O     0.16666   0.81547   0.28974   0.00000  Uiso   1.00
O370   O     0.09058   0.75000   0.28044   0.00000  Uiso   1.00
O371   O     0.24275   0.75000   0.21955   0.00000  Uiso   1.00
O372   O     0.09058   0.74999   0.20096   0.00000  Uiso   1.00
O373   O     0.24275   0.75001   0.29903   0.00000  Uiso   1.00
O374   O     0.09211   0.61303   0.19318   0.00000  Uiso   1.00
Zn375  Zn    0.16667   0.75000   0.30307   0.00000  Uiso   1.00
Zn376  Zn    0.16667   0.74999   0.19693   0.00000  Uiso   1.00
C377   C     0.50077   0.66418   0.25014   0.00000  Uiso   1.00
C378   C     0.47166   0.71516   0.44351   0.00000  Uiso   1.00
C379   C     0.49896   0.75111   0.02628   0.00000  Uiso   1.00
C380   C     0.50476   0.74516   0.47348   0.00000  Uiso   1.00
C381   C     0.40057   0.75011   0.23775   0.00000  Uiso   1.00
C382   C     0.59944   0.75148   0.26216   0.00000  Uiso   1.00
C383   C     0.34546   0.74929   0.23112   0.00000  Uiso   1.00
C384   C     0.65451   0.75566   0.26819   0.00000  Uiso   1.00
C385   C     0.53657   0.54908   0.28816   0.00000  Uiso   1.00
C386   C     0.45650   0.95048   0.27154   0.00000  Uiso   1.00
C387   C     0.54034   0.59578   0.28354   0.00000  Uiso   1.00
C388   C     0.49941   0.83576   0.25004   0.00000  Uiso   1.00
C389   C     0.45531   0.90362   0.26783   0.00000  Uiso   1.00
C390   C     0.50267   0.61620   0.25092   0.00000  Uiso   1.00
C391   C     0.49753   0.88363   0.25058   0.00000  Uiso   1.00
C392   C     0.46428   0.59110   0.22090   0.00000  Uiso   1.00
C393   C     0.53893   0.90882   0.23468   0.00000  Uiso   1.00
C394   C     0.46527   0.54442   0.22125   0.00000  Uiso   1.00
C395   C     0.53994   0.95551   0.23802   0.00000  Uiso   1.00
C396   C     0.49966   0.52408   0.25598   0.00000  Uiso   1.00
C397   C     0.49861   0.97564   0.25570   0.00000  Uiso   1.00
C398   C     0.57124   0.52636   0.32722   0.00000  Uiso   1.00
C399   C     0.45541   0.73292   0.04693   0.00000  Uiso   1.00
C400   C     0.41414   0.97317   0.29340   0.00000  Uiso   1.00
C401   C     0.58366   0.62407   0.31311   0.00000  Uiso   1.00
C402   C     0.40936   0.87441   0.28095   0.00000  Uiso   1.00
C403   C     0.40039   0.73029   0.01937   0.00000  Uiso   1.00
C404   C     0.60352   0.76250   0.47769   0.00000  Uiso   1.00
C405   C     0.41725   0.70016   0.11592   0.00000  Uiso   1.00
C406   C     0.58311   0.79982   0.38370   0.00000  Uiso   1.00
C407   C     0.57373   0.81007   0.13548   0.00000  Uiso   1.00
C408   C     0.41985   0.69706   0.36415   0.00000  Uiso   1.00
C409   C     0.54766   0.76385   0.45239   0.00000  Uiso   1.00
C410   C     0.45994   0.72775   0.09665   0.00000  Uiso   1.00
C411   C     0.54134   0.77102   0.40298   0.00000  Uiso   1.00
C412   C     0.53483   0.77836   0.10613   0.00000  Uiso   1.00
C413   C     0.46599   0.72095   0.39380   0.00000  Uiso   1.00
C414   C     0.53336   0.78043   0.05619   0.00000  Uiso   1.00
H415   H     0.65828   0.74190   0.19600   0.00000  Uiso   1.00
H416   H     0.56791   0.63925   0.34316   0.00000  Uiso   1.00
H417   H     0.61797   0.60477   0.32701   0.00000  Uiso   1.00
H418   H     0.39520   0.85015   0.25212   0.00000  Uiso   1.00
H419   H     0.42202   0.85587   0.31361   0.00000  Uiso   1.00
H420   H     0.37477   0.89317   0.28666   0.00000  Uiso   1.00
H421   H     0.39330   0.59292   0.18701   0.00000  Uiso   1.00
H422   H     0.59189   0.90583   0.19277   0.00000  Uiso   1.00
H423   H     0.42481   0.53488   0.15930   0.00000  Uiso   1.00
H424   H     0.61379   0.96644   0.23123   0.00000  Uiso   1.00
H425   H     0.39873   0.74670   0.48472   0.00000  Uiso   1.00
H426   H     0.34150   0.76461   0.30283   0.00000  Uiso   1.00
H427   H     0.38450   0.69512   0.01494   0.00000  Uiso   1.00
H428   H     0.37366   0.74899   0.03851   0.00000  Uiso   1.00
H429   H     0.62288   0.79656   0.48197   0.00000  Uiso   1.00
H430   H     0.60520   0.74600   0.01233   0.00000  Uiso   1.00
H431   H     0.62697   0.74204   0.45688   0.00000  Uiso   1.00
H432   H     0.43058   0.68727   0.15079   0.00000  Uiso   1.00
H433   H     0.38234   0.72021   0.11732   0.00000  Uiso   1.00
H434   H     0.40535   0.67010   0.09351   0.00000  Uiso   1.00
H435   H     0.56896   0.81425   0.34961   0.00000  Uiso   1.00
H436   H     0.59538   0.82897   0.40738   0.00000  Uiso   1.00
H437   H     0.55837   0.99099   0.33224   0.00000  Uiso   1.00
H438   H     0.61811   0.78031   0.38082   0.00000  Uiso   1.00
H439   H     0.57155   0.80949   0.17274   0.00000  Uiso   1.00
H440   H     0.61451   0.80205   0.13108   0.00000  Uiso   1.00
H441   H     0.56670   0.84505   0.12457   0.00000  Uiso   1.00
H442   H     0.43241   0.67559   0.33706   0.00000  Uiso   1.00
H443   H     0.39509   0.67565   0.38470   0.00000  Uiso   1.00
H444   H     0.39301   0.72206   0.34861   0.00000  Uiso   1.00
H445   H     0.59183   0.82498   0.05526   0.00000  Uiso   1.00
H446   H     0.45123   0.65192   0.44128   0.00000  Uiso   1.00
H447   H     0.61244   0.52718   0.31944   0.00000  Uiso   1.00
H448   H     0.56995   0.54368   0.36119   0.00000  Uiso   1.00
H449   H     0.42271   0.50948   0.29982   0.00000  Uiso   1.00
H450   H     0.37598   0.96896   0.27000   0.00000  Uiso   1.00
H451   H     0.41029   0.95828   0.32818   0.00000  Uiso   1.00
H452   H     0.59937   0.65098   0.29153   0.00000  Uiso   1.00
N453   N     0.50000   0.74999   0.12623   0.00000  Uiso   1.00
N454   N     0.50000   0.75001   0.37376   0.00000  Uiso   1.00
O455   O     0.50000   0.68454   0.28974   0.00000  Uiso   1.00
O456   O     0.57783   0.88680   0.21677   0.00000  Uiso   1.00
O457   O     0.43326   0.51767   0.18852   0.00000  Uiso   1.00
O458   O     0.58085   0.98252   0.22517   0.00000  Uiso   1.00
O459   O     0.55835   0.81564   0.03557   0.00000  Uiso   1.00
O460   O     0.45047   0.67752   0.46303   0.00000  Uiso   1.00
O461   O     0.50000   0.81546   0.21026   0.00000  Uiso   1.00
O462   O     0.50000   0.68453   0.21026   0.00000  Uiso   1.00
O463   O     0.50000   0.81547   0.28974   0.00000  Uiso   1.00
O464   O     0.42392   0.75000   0.28044   0.00000  Uiso   1.00
O465   O     0.57608   0.75000   0.21955   0.00000  Uiso   1.00
O466   O     0.42392   0.74999   0.20096   0.00000  Uiso   1.00
O467   O     0.57608   0.75001   0.29903   0.00000  Uiso   1.00
O468   O     0.42544   0.61303   0.19318   0.00000  Uiso   1.00
Zn469  Zn    0.50000   0.75000   0.30307   0.00000  Uiso   1.00
Zn470  Zn    0.50000   0.74999   0.19693   0.00000  Uiso   1.00
C471   C     0.83410   0.66418   0.25014   0.00000  Uiso   1.00
C472   C     0.80499   0.71516   0.44351   0.00000  Uiso   1.00
C473   C     0.83229   0.75111   0.02628   0.00000  Uiso   1.00
C474   C     0.83809   0.74516   0.47348   0.00000  Uiso   1.00
C475   C     0.73390   0.75011   0.23775   0.00000  Uiso   1.00
C476   C     0.93277   0.75148   0.26216   0.00000  Uiso   1.00
C477   C     0.67879   0.74929   0.23112   0.00000  Uiso   1.00
C478   C     0.98785   0.75566   0.26819   0.00000  Uiso   1.00
C479   C     0.86990   0.54908   0.28816   0.00000  Uiso   1.00
C480   C     0.78983   0.95048   0.27154   0.00000  Uiso   1.00
C481   C     0.87368   0.59578   0.28354   0.00000  Uiso   1.00
C482   C     0.83274   0.83576   0.25004   0.00000  Uiso   1.00
C483   C     0.78865   0.90362   0.26783   0.00000  Uiso   1.00
C484   C     0.83600   0.61620   0.25092   0.00000  Uiso   1.00
C485   C     0.83087   0.88363   0.25058   0.00000  Uiso   1.00
C486   C     0.79761   0.59110   0.22090   0.00000  Uiso   1.00
C487   C     0.87226   0.90882   0.23468   0.00000  Uiso   1.00
C488   C     0.79860   0.54442   0.22125   0.00000  Uiso   1.00
C489   C     0.87328   0.95551   0.23802   0.00000  Uiso   1.00
C490   C     0.83299   0.52408   0.25598   0.00000  Uiso   1.00
C491   C     0.83194   0.97564   0.25570   0.00000  Uiso   1.00
C492   C     0.90458   0.52636   0.32722   0.00000  Uiso   1.00
C493   C     0.78874   0.73292   0.04693   0.00000  Uiso   1.00
C494   C     0.74748   0.97317   0.29340   0.00000  Uiso   1.00
C495   C     0.91699   0.62407   0.31311   0.00000  Uiso   1.00
C496   C     0.74269   0.87441   0.28095   0.00000  Uiso   1.00
C497   C     0.73372   0.73029   0.01937   0.00000  Uiso   1.00
C498   C     0.93685   0.76250   0.47769   0.00000  Uiso   1.00
C499   C     0.75058   0.70016   0.11592   0.00000  Uiso   1.00
C500   C     0.91644   0.79982   0.38370   0.00000  Uiso   1.00
C501   C     0.90706   0.81007   0.13548   0.00000  Uiso   1.00
C502   C     0.75318   0.69706   0.36415   0.00000  Uiso   1.00
C503   C     0.88100   0.76385   0.45239   0.00000  Uiso   1.00
C504   C     0.79327   0.72775   0.09665   0.00000  Uiso   1.00
C505   C     0.87468   0.77102   0.40298   0.00000  Uiso   1.00
C506   C     0.86816   0.77836   0.10613   0.00000  Uiso   1.00
C507   C     0.79932   0.72095   0.39380   0.00000  Uiso   1.00
C508   C     0.86669   0.78043   0.05619   0.00000  Uiso   1.00
H509   H     0.99162   0.74190   0.19600   0.00000  Uiso   1.00
H510   H     0.90124   0.63925   0.34316   0.00000  Uiso   1.00
H511   H     0.95131   0.60477   0.32701   0.00000  Uiso   1.00
H512   H     0.72853   0.85015   0.25212   0.00000  Uiso   1.00
H513   H     0.75535   0.85587   0.31361   0.00000  Uiso   1.00
H514   H     0.70810   0.89317   0.28666   0.00000  Uiso   1.00
H515   H     0.72663   0.59292   0.18701   0.00000  Uiso   1.00
H516   H     0.92522   0.90583   0.19277   0.00000  Uiso   1.00
H517   H     0.75814   0.53488   0.15930   0.00000  Uiso   1.00
H518   H     0.94713   0.96644   0.23123   0.00000  Uiso   1.00
H519   H     0.73206   0.74670   0.48472   0.00000  Uiso   1.00
H520   H     0.67483   0.76461   0.30283   0.00000  Uiso   1.00
H521   H     0.71783   0.69512   0.01494   0.00000  Uiso   1.00
H522   H     0.70700   0.74899   0.03851   0.00000  Uiso   1.00
H523   H     0.95622   0.79656   0.48197   0.00000  Uiso   1.00
H524   H     0.93853   0.74600   0.01233   0.00000  Uiso   1.00
H525   H     0.96030   0.74204   0.45688   0.00000  Uiso   1.00
H526   H     0.76391   0.68727   0.15079   0.00000  Uiso   1.00
H527   H     0.71567   0.72021   0.11732   0.00000  Uiso   1.00
H528   H     0.73869   0.67010   0.09351   0.00000  Uiso   1.00
H529   H     0.90230   0.81425   0.34961   0.00000  Uiso   1.00
H530   H     0.92871   0.82897   0.40738   0.00000  Uiso   1.00
H531   H     0.89170   0.99099   0.33224   0.00000  Uiso   1.00
H532   H     0.95145   0.78031   0.38082   0.00000  Uiso   1.00
H533   H     0.90488   0.80949   0.17274   0.00000  Uiso   1.00
H534   H     0.94784   0.80205   0.13108   0.00000  Uiso   1.00
H535   H     0.90003   0.84505   0.12457   0.00000  Uiso   1.00
H536   H     0.76575   0.67559   0.33706   0.00000  Uiso   1.00
H537   H     0.72842   0.67565   0.38470   0.00000  Uiso   1.00
H538   H     0.72634   0.72206   0.34861   0.00000  Uiso   1.00
H539   H     0.92516   0.82498   0.05526   0.00000  Uiso   1.00
H540   H     0.78457   0.65192   0.44128   0.00000  Uiso   1.00
H541   H     0.94577   0.52718   0.31944   0.00000  Uiso   1.00
H542   H     0.90328   0.54368   0.36119   0.00000  Uiso   1.00
H543   H     0.75605   0.50948   0.29982   0.00000  Uiso   1.00
H544   H     0.70932   0.96896   0.27000   0.00000  Uiso   1.00
H545   H     0.74362   0.95828   0.32818   0.00000  Uiso   1.00
H546   H     0.93271   0.65098   0.29153   0.00000  Uiso   1.00
N547   N     0.83333   0.74999   0.12623   0.00000  Uiso   1.00
N548   N     0.83333   0.75001   0.37376   0.00000  Uiso   1.00
O549   O     0.83334   0.68454   0.28974   0.00000  Uiso   1.00
O550   O     0.91117   0.88680   0.21677   0.00000  Uiso   1.00
O551   O     0.76659   0.51767   0.18852   0.00000  Uiso   1.00
O552   O     0.91419   0.98252   0.22517   0.00000  Uiso   1.00
O553   O     0.89169   0.81564   0.03557   0.00000  Uiso   1.00
O554   O     0.78381   0.67752   0.46303   0.00000  Uiso   1.00
O555   O     0.83333   0.81546   0.21026   0.00000  Uiso   1.00
O556   O     0.83334   0.68453   0.21026   0.00000  Uiso   1.00
O557   O     0.83333   0.81547   0.28974   0.00000  Uiso   1.00
O558   O     0.75725   0.75000   0.28044   0.00000  Uiso   1.00
O559   O     0.90942   0.75000   0.21955   0.00000  Uiso   1.00
O560   O     0.75725   0.74999   0.20096   0.00000  Uiso   1.00
O561   O     0.90942   0.75001   0.29903   0.00000  Uiso   1.00
O562   O     0.75877   0.61303   0.19318   0.00000  Uiso   1.00
Zn563  Zn    0.83333   0.75000   0.30307   0.00000  Uiso   1.00
Zn564  Zn    0.83333   0.74999   0.19693   0.00000  Uiso   1.00
C565   C     0.16744   0.16418   0.75014   0.00000  Uiso   1.00
C566   C     0.13833   0.21516   0.94351   0.00000  Uiso   1.00
C567   C     0.16563   0.25111   0.52628   0.00000  Uiso   1.00
C568   C     0.17143   0.24516   0.97348   0.00000  Uiso   1.00
C569   C     0.06724   0.25011   0.73775   0.00000  Uiso   1.00
C570   C     0.26610   0.25148   0.76216   0.00000  Uiso   1.00
C571   C     0.01212   0.24929   0.73112   0.00000  Uiso   1.00
C572   C     0.32118   0.25566   0.76819   0.00000  Uiso   1.00
C573   C     0.20324   0.04908   0.78816   0.00000  Uiso   1.00
C574   C     0.12316   0.45048   0.77154   0.00000  Uiso   1.00
C575   C     0.20701   0.09578   0.78354   0.00000  Uiso   1.00
C576   C     0.16608   0.33576   0.75004   0.00000  Uiso   1.00
C577   C     0.12198   0.40362   0.76783   0.00000  Uiso   1.00
C578   C     0.16933   0.11620   0.75092   0.00000  Uiso   1.00
C579   C     0.16420   0.38363   0.75058   0.00000  Uiso   1.00
C580   C     0.13094   0.09110   0.72090   0.00000  Uiso   1.00
C581   C     0.20560   0.40882   0.73468   0.00000  Uiso   1.00
C582   C     0.13193   0.04442   0.72125   0.00000  Uiso   1.00
C583   C     0.20661   0.45551   0.73802   0.00000  Uiso   1.00
C584   C     0.16633   0.02408   0.75598   0.00000  Uiso   1.00
C585   C     0.16527   0.47564   0.75570   0.00000  Uiso   1.00
C586   C     0.23791   0.02636   0.82722   0.00000  Uiso   1.00
C587   C     0.12207   0.23292   0.54693   0.00000  Uiso   1.00
C588   C     0.08081   0.47317   0.79340   0.00000  Uiso   1.00
C589   C     0.25032   0.12407   0.81311   0.00000  Uiso   1.00
C590   C     0.07602   0.37441   0.78095   0.00000  Uiso   1.00
C591   C     0.06706   0.23029   0.51937   0.00000  Uiso   1.00
C592   C     0.27019   0.26250   0.97769   0.00000  Uiso   1.00
C593   C     0.08392   0.20016   0.61592   0.00000  Uiso   1.00
C594   C     0.24978   0.29982   0.88370   0.00000  Uiso   1.00
C595   C     0.24039   0.31007   0.63548   0.00000  Uiso   1.00
C596   C     0.08652   0.19706   0.86415   0.00000  Uiso   1.00
C597   C     0.21433   0.26385   0.95239   0.00000  Uiso   1.00
C598   C     0.12661   0.22775   0.59665   0.00000  Uiso   1.00
C599   C     0.20801   0.27102   0.90298   0.00000  Uiso   1.00
C600   C     0.20150   0.27836   0.60613   0.00000  Uiso   1.00
C601   C     0.13265   0.22095   0.89380   0.00000  Uiso   1.00
C602   C     0.20003   0.28043   0.55619   0.00000  Uiso   1.00
H603   H     0.32495   0.24190   0.69600   0.00000  Uiso   1.00
H604   H     0.23457   0.13925   0.84316   0.00000  Uiso   1.00
H605   H     0.28464   0.10477   0.82701   0.00000  Uiso   1.00
H606   H     0.06187   0.35015   0.75212   0.00000  Uiso   1.00
H607   H     0.08869   0.35587   0.81361   0.00000  Uiso   1.00
H608   H     0.04144   0.39317   0.78666   0.00000  Uiso   1.00
H609   H     0.05997   0.09292   0.68701   0.00000  Uiso   1.00
H610   H     0.25855   0.40583   0.69277   0.00000  Uiso   1.00
H611   H     0.09148   0.03488   0.65930   0.00000  Uiso   1.00
H612   H     0.28046   0.46644   0.73123   0.00000  Uiso   1.00
H613   H     0.06540   0.24670   0.98472   0.00000  Uiso   1.00
H614   H     0.00816   0.26461   0.80283   0.00000  Uiso   1.00
H615   H     0.05117   0.19512   0.51494   0.00000  Uiso   1.00
H616   H     0.04033   0.24899   0.53851   0.00000  Uiso   1.00
H617   H     0.28955   0.29656   0.98197   0.00000  Uiso   1.00
H618   H     0.27187   0.24600   0.51233   0.00000  Uiso   1.00
H619   H     0.29363   0.24204   0.95688   0.00000  Uiso   1.00
H620   H     0.09724   0.18727   0.65079   0.00000  Uiso   1.00
H621   H     0.04901   0.22021   0.61732   0.00000  Uiso   1.00
H622   H     0.07202   0.17010   0.59351   0.00000  Uiso   1.00
H623   H     0.23563   0.31425   0.84961   0.00000  Uiso   1.00
H624   H     0.26205   0.32897   0.90738   0.00000  Uiso   1.00
H625   H     0.22504   0.49099   0.83224   0.00000  Uiso   1.00
H626   H     0.28478   0.28031   0.88082   0.00000  Uiso   1.00
H627   H     0.23821   0.30949   0.67274   0.00000  Uiso   1.00
H628   H     0.28118   0.30205   0.63108   0.00000  Uiso   1.00
H629   H     0.23336   0.34505   0.62457   0.00000  Uiso   1.00
H630   H     0.09908   0.17559   0.83706   0.00000  Uiso   1.00
H631   H     0.06176   0.17565   0.88470   0.00000  Uiso   1.00
H632   H     0.05968   0.22206   0.84861   0.00000  Uiso   1.00
H633   H     0.25849   0.32498   0.55526   0.00000  Uiso   1.00
H634   H     0.11790   0.15192   0.94128   0.00000  Uiso   1.00
H635   H     0.27910   0.02718   0.81944   0.00000  Uiso   1.00
H636   H     0.23662   0.04368   0.86119   0.00000  Uiso   1.00
H637   H     0.08938   0.00948   0.79982   0.00000  Uiso   1.00
H638   H     0.04265   0.46896   0.77000   0.00000  Uiso   1.00
H639   H     0.07696   0.45828   0.82818   0.00000  Uiso   1.00
H640   H     0.26604   0.15098   0.79153   0.00000  Uiso   1.00
N641   N     0.16667   0.24999   0.62623   0.00000  Uiso   1.00
N642   N     0.16667   0.25001   0.87376   0.00000  Uiso   1.00
O643   O     0.16667   0.18454   0.78974   0.00000  Uiso   1.00
O644   O     0.24450   0.38680   0.71677   0.00000  Uiso   1.00
O645   O     0.09992   0.01767   0.68852   0.00000  Uiso   1.00
O646   O     0.24752   0.48252   0.72517   0.00000  Uiso   1.00
O647   O     0.22502   0.31564   0.53557   0.00000  Uiso   1.00
O648   O     0.11714   0.17752   0.96303   0.00000  Uiso   1.00
O649   O     0.16666   0.31546   0.71026   0.00000  Uiso   1.00
O650   O     0.16667   0.18453   0.71026   0.00000  Uiso   1.00
O651   O     0.16666   0.31547   0.78974   0.00000  Uiso   1.00
O652   O     0.09058   0.25000   0.78044   0.00000  Uiso   1.00
O653   O     0.24275   0.25000   0.71955   0.00000  Uiso   1.00
O654   O     0.09058   0.24999   0.70096   0.00000  Uiso   1.00
O655   O     0.24275   0.25001   0.79903   0.00000  Uiso   1.00
O656   O     0.09211   0.11303   0.69318   0.00000  Uiso   1.00
Zn657  Zn    0.16667   0.25000   0.80307   0.00000  Uiso   1.00
Zn658  Zn    0.16667   0.24999   0.69693   0.00000  Uiso   1.00
C659   C     0.50077   0.16418   0.75014   0.00000  Uiso   1.00
C660   C     0.47166   0.21516   0.94351   0.00000  Uiso   1.00
C661   C     0.49896   0.25111   0.52628   0.00000  Uiso   1.00
C662   C     0.50476   0.24516   0.97348   0.00000  Uiso   1.00
C663   C     0.40057   0.25011   0.73775   0.00000  Uiso   1.00
C664   C     0.59944   0.25148   0.76216   0.00000  Uiso   1.00
C665   C     0.34546   0.24929   0.73112   0.00000  Uiso   1.00
C666   C     0.65451   0.25566   0.76819   0.00000  Uiso   1.00
C667   C     0.53657   0.04908   0.78816   0.00000  Uiso   1.00
C668   C     0.45650   0.45048   0.77154   0.00000  Uiso   1.00
C669   C     0.54034   0.09578   0.78354   0.00000  Uiso   1.00
C670   C     0.49941   0.33576   0.75004   0.00000  Uiso   1.00
C671   C     0.45531   0.40362   0.76783   0.00000  Uiso   1.00
C672   C     0.50267   0.11620   0.75092   0.00000  Uiso   1.00
C673   C     0.49753   0.38363   0.75058   0.00000  Uiso   1.00
C674   C     0.46428   0.09110   0.72090   0.00000  Uiso   1.00
C675   C     0.53893   0.40882   0.73468   0.00000  Uiso   1.00
C676   C     0.46527   0.04442   0.72125   0.00000  Uiso   1.00
C677   C     0.53994   0.45551   0.73802   0.00000  Uiso   1.00
C678   C     0.49966   0.02408   0.75598   0.00000  Uiso   1.00
C679   C     0.49861   0.47564   0.75570   0.00000  Uiso   1.00
C680   C     0.57124   0.02636   0.82722   0.00000  Uiso   1.00
C681   C     0.45541   0.23292   0.54693   0.00000  Uiso   1.00
C682   C     0.41414   0.47317   0.79340   0.00000  Uiso   1.00
C683   C     0.58366   0.12407   0.81311   0.00000  Uiso   1.00
C684   C     0.40936   0.37441   0.78095   0.00000  Uiso   1.00
C685   C     0.40039   0.23029   0.51937   0.00000  Uiso   1.00
C686   C     0.60352   0.26250   0.97769   0.00000  Uiso   1.00
C687   C     0.41725   0.20016   0.61592   0.00000  Uiso   1.00
C688   C     0.58311   0.29982   0.88370   0.00000  Uiso   1.00
C689   C     0.57373   0.31007   0.63548   0.00000  Uiso   1.00
C690   C     0.41985   0.19706   0.86415   0.00000  Uiso   1.00
C691   C     0.54766   0.26385   0.95239   0.00000  Uiso   1.00
C692   C     0.45994   0.22775   0.59665   0.00000  Uiso   1.00
C693   C     0.54134   0.27102   0.90298   0.00000  Uiso   1.00
C694   C     0.53483   0.27836   0.60613   0.00000  Uiso   1.00
C695   C     0.46599   0.22095   0.89380   0.00000  Uiso   1.00
C696   C     0.53336   0.28043   0.55619   0.00000  Uiso   1.00
H697   H     0.65828   0.24190   0.69600   0.00000  Uiso   1.00
H698   H     0.56791   0.13925   0.84316   0.00000  Uiso   1.00
H699   H     0.61797   0.10477   0.82701   0.00000  Uiso   1.00
H700   H     0.39520   0.35015   0.75212   0.00000  Uiso   1.00
H701   H     0.42202   0.35587   0.81361   0.00000  Uiso   1.00
H702   H     0.37477   0.39317   0.78666   0.00000  Uiso   1.00
H703   H     0.39330   0.09292   0.68701   0.00000  Uiso   1.00
H704   H     0.59189   0.40583   0.69277   0.00000  Uiso   1.00
H705   H     0.42481   0.03488   0.65930   0.00000  Uiso   1.00
H706   H     0.61379   0.46644   0.73123   0.00000  Uiso   1.00
H707   H     0.39873   0.24670   0.98472   0.00000  Uiso   1.00
H708   H     0.34150   0.26461   0.80283   0.00000  Uiso   1.00
H709   H     0.38450   0.19512   0.51494   0.00000  Uiso   1.00
H710   H     0.37366   0.24899   0.53851   0.00000  Uiso   1.00
H711   H     0.62288   0.29656   0.98197   0.00000  Uiso   1.00
H712   H     0.60520   0.24600   0.51233   0.00000  Uiso   1.00
H713   H     0.62697   0.24204   0.95688   0.00000  Uiso   1.00
H714   H     0.43058   0.18727   0.65079   0.00000  Uiso   1.00
H715   H     0.38234   0.22021   0.61732   0.00000  Uiso   1.00
H716   H     0.40535   0.17010   0.59351   0.00000  Uiso   1.00
H717   H     0.56896   0.31425   0.84961   0.00000  Uiso   1.00
H718   H     0.59538   0.32897   0.90738   0.00000  Uiso   1.00
H719   H     0.55837   0.49099   0.83224   0.00000  Uiso   1.00
H720   H     0.61811   0.28031   0.88082   0.00000  Uiso   1.00
H721   H     0.57155   0.30949   0.67274   0.00000  Uiso   1.00
H722   H     0.61451   0.30205   0.63108   0.00000  Uiso   1.00
H723   H     0.56670   0.34505   0.62457   0.00000  Uiso   1.00
H724   H     0.43241   0.17559   0.83706   0.00000  Uiso   1.00
H725   H     0.39509   0.17565   0.88470   0.00000  Uiso   1.00
H726   H     0.39301   0.22206   0.84861   0.00000  Uiso   1.00
H727   H     0.59183   0.32498   0.55526   0.00000  Uiso   1.00
H728   H     0.45123   0.15192   0.94128   0.00000  Uiso   1.00
H729   H     0.61244   0.02718   0.81944   0.00000  Uiso   1.00
H730   H     0.56995   0.04368   0.86119   0.00000  Uiso   1.00
H731   H     0.42271   0.00948   0.79982   0.00000  Uiso   1.00
H732   H     0.37598   0.46896   0.77000   0.00000  Uiso   1.00
H733   H     0.41029   0.45828   0.82818   0.00000  Uiso   1.00
H734   H     0.59937   0.15098   0.79153   0.00000  Uiso   1.00
N735   N     0.50000   0.24999   0.62623   0.00000  Uiso   1.00
N736   N     0.50000   0.25001   0.87376   0.00000  Uiso   1.00
O737   O     0.50000   0.18454   0.78974   0.00000  Uiso   1.00
O738   O     0.57783   0.38680   0.71677   0.00000  Uiso   1.00
O739   O     0.43326   0.01767   0.68852   0.00000  Uiso   1.00
O740   O     0.58085   0.48252   0.72517   0.00000  Uiso   1.00
O741   O     0.55835   0.31564   0.53557   0.00000  Uiso   1.00
O742   O     0.45047   0.17752   0.96303   0.00000  Uiso   1.00
O743   O     0.50000   0.31546   0.71026   0.00000  Uiso   1.00
O744   O     0.50000   0.18453   0.71026   0.00000  Uiso   1.00
O745   O     0.50000   0.31547   0.78974   0.00000  Uiso   1.00
O746   O     0.42392   0.25000   0.78044   0.00000  Uiso   1.00
O747   O     0.57608   0.25000   0.71955   0.00000  Uiso   1.00
O748   O     0.42392   0.24999   0.70096   0.00000  Uiso   1.00
O749   O     0.57608   0.25001   0.79903   0.00000  Uiso   1.00
O750   O     0.42544   0.11303   0.69318   0.00000  Uiso   1.00
Zn751  Zn    0.50000   0.25000   0.80307   0.00000  Uiso   1.00
Zn752  Zn    0.50000   0.24999   0.69693   0.00000  Uiso   1.00
C753   C     0.83410   0.16418   0.75014   0.00000  Uiso   1.00
C754   C     0.80499   0.21516   0.94351   0.00000  Uiso   1.00
C755   C     0.83229   0.25111   0.52628   0.00000  Uiso   1.00
C756   C     0.83809   0.24516   0.97348   0.00000  Uiso   1.00
C757   C     0.73390   0.25011   0.73775   0.00000  Uiso   1.00
C758   C     0.93277   0.25148   0.76216   0.00000  Uiso   1.00
C759   C     0.67879   0.24929   0.73112   0.00000  Uiso   1.00
C760   C     0.98785   0.25566   0.76819   0.00000  Uiso   1.00
C761   C     0.86990   0.04908   0.78816   0.00000  Uiso   1.00
C762   C     0.78983   0.45048   0.77154   0.00000  Uiso   1.00
C763   C     0.87368   0.09578   0.78354   0.00000  Uiso   1.00
C764   C     0.83274   0.33576   0.75004   0.00000  Uiso   1.00
C765   C     0.78865   0.40362   0.76783   0.00000  Uiso   1.00
C766   C     0.83600   0.11620   0.75092   0.00000  Uiso   1.00
C767   C     0.83087   0.38363   0.75058   0.00000  Uiso   1.00
C768   C     0.79761   0.09110   0.72090   0.00000  Uiso   1.00
C769   C     0.87226   0.40882   0.73468   0.00000  Uiso   1.00
C770   C     0.79860   0.04442   0.72125   0.00000  Uiso   1.00
C771   C     0.87328   0.45551   0.73802   0.00000  Uiso   1.00
C772   C     0.83299   0.02408   0.75598   0.00000  Uiso   1.00
C773   C     0.83194   0.47564   0.75570   0.00000  Uiso   1.00
C774   C     0.90458   0.02636   0.82722   0.00000  Uiso   1.00
C775   C     0.78874   0.23292   0.54693   0.00000  Uiso   1.00
C776   C     0.74748   0.47317   0.79340   0.00000  Uiso   1.00
C777   C     0.91699   0.12407   0.81311   0.00000  Uiso   1.00
C778   C     0.74269   0.37441   0.78095   0.00000  Uiso   1.00
C779   C     0.73372   0.23029   0.51937   0.00000  Uiso   1.00
C780   C     0.93685   0.26250   0.97769   0.00000  Uiso   1.00
C781   C     0.75058   0.20016   0.61592   0.00000  Uiso   1.00
C782   C     0.91644   0.29982   0.88370   0.00000  Uiso   1.00
C783   C     0.90706   0.31007   0.63548   0.00000  Uiso   1.00
C784   C     0.75318   0.19706   0.86415   0.00000  Uiso   1.00
C785   C     0.88100   0.26385   0.95239   0.00000  Uiso   1.00
C786   C     0.79327   0.22775   0.59665   0.00000  Uiso   1.00
C787   C     0.87468   0.27102   0.90298   0.00000  Uiso   1.00
C788   C     0.86816   0.27836   0.60613   0.00000  Uiso   1.00
C789   C     0.79932   0.22095   0.89380   0.00000  Uiso   1.00
C790   C     0.86669   0.28043   0.55619   0.00000  Uiso   1.00
H791   H     0.99162   0.24190   0.69600   0.00000  Uiso   1.00
H792   H     0.90124   0.13925   0.84316   0.00000  Uiso   1.00
H793   H     0.95131   0.10477   0.82701   0.00000  Uiso   1.00
H794   H     0.72853   0.35015   0.75212   0.00000  Uiso   1.00
H795   H     0.75535   0.35587   0.81361   0.00000  Uiso   1.00
H796   H     0.70810   0.39317   0.78666   0.00000  Uiso   1.00
H797   H     0.72663   0.09292   0.68701   0.00000  Uiso   1.00
H798   H     0.92522   0.40583   0.69277   0.00000  Uiso   1.00
H799   H     0.75814   0.03488   0.65930   0.00000  Uiso   1.00
H800   H     0.94713   0.46644   0.73123   0.00000  Uiso   1.00
H801   H     0.73206   0.24670   0.98472   0.00000  Uiso   1.00
H802   H     0.67483   0.26461   0.80283   0.00000  Uiso   1.00
H803   H     0.71783   0.19512   0.51494   0.00000  Uiso   1.00
H804   H     0.70700   0.24899   0.53851   0.00000  Uiso   1.00
H805   H     0.95622   0.29656   0.98197   0.00000  Uiso   1.00
H806   H     0.93853   0.24600   0.51233   0.00000  Uiso   1.00
H807   H     0.96030   0.24204   0.95688   0.00000  Uiso   1.00
H808   H     0.76391   0.18727   0.65079   0.00000  Uiso   1.00
H809   H     0.71567   0.22021   0.61732   0.00000  Uiso   1.00
H810   H     0.73869   0.17010   0.59351   0.00000  Uiso   1.00
H811   H     0.90230   0.31425   0.84961   0.00000  Uiso   1.00
H812   H     0.92871   0.32897   0.90738   0.00000  Uiso   1.00
H813   H     0.89170   0.49099   0.83224   0.00000  Uiso   1.00
H814   H     0.95145   0.28031   0.88082   0.00000  Uiso   1.00
H815   H     0.90488   0.30949   0.67274   0.00000  Uiso   1.00
H816   H     0.94784   0.30205   0.63108   0.00000  Uiso   1.00
H817   H     0.90003   0.34505   0.62457   0.00000  Uiso   1.00
H818   H     0.76575   0.17559   0.83706   0.00000  Uiso   1.00
H819   H     0.72842   0.17565   0.88470   0.00000  Uiso   1.00
H820   H     0.72634   0.22206   0.84861   0.00000  Uiso   1.00
H821   H     0.92516   0.32498   0.55526   0.00000  Uiso   1.00
H822   H     0.78457   0.15192   0.94128   0.00000  Uiso   1.00
H823   H     0.94577   0.02718   0.81944   0.00000  Uiso   1.00
H824   H     0.90328   0.04368   0.86119   0.00000  Uiso   1.00
H825   H     0.75605   0.00948   0.79982   0.00000  Uiso   1.00
H826   H     0.70932   0.46896   0.77000   0.00000  Uiso   1.00
H827   H     0.74362   0.45828   0.82818   0.00000  Uiso   1.00
H828   H     0.93271   0.15098   0.79153   0.00000  Uiso   1.00
N829   N     0.83333   0.24999   0.62623   0.00000  Uiso   1.00
N830   N     0.83333   0.25001   0.87376   0.00000  Uiso   1.00
O831   O     0.83334   0.18454   0.78974   0.00000  Uiso   1.00
O832   O     0.91117   0.38680   0.71677   0.00000  Uiso   1.00
O833   O     0.76659   0.01767   0.68852   0.00000  Uiso   1.00
O834   O     0.91419   0.48252   0.72517   0.00000  Uiso   1.00
O835   O     0.89169   0.31564   0.53557   0.00000  Uiso   1.00
O836   O     0.78381   0.17752   0.96303   0.00000  Uiso   1.00
O837   O     0.83333   0.31546   0.71026   0.00000  Uiso   1.00
O838   O     0.83334   0.18453   0.71026   0.00000  Uiso   1.00
O839   O     0.83333   0.31547   0.78974   0.00000  Uiso   1.00
O840   O     0.75725   0.25000   0.78044   0.00000  Uiso   1.00
O841   O     0.90942   0.25000   0.71955   0.00000  Uiso   1.00
O842   O     0.75725   0.24999   0.70096   0.00000  Uiso   1.00
O843   O     0.90942   0.25001   0.79903   0.00000  Uiso   1.00
O844   O     0.75877   0.11303   0.69318   0.00000  Uiso   1.00
Zn845  Zn    0.83333   0.25000   0.80307   0.00000  Uiso   1.00
Zn846  Zn    0.83333   0.24999   0.69693   0.00000  Uiso   1.00
C847   C     0.16744   0.66418   0.75014   0.00000  Uiso   1.00
C848   C     0.13833   0.71516   0.94351   0.00000  Uiso   1.00
C849   C     0.16563   0.75111   0.52628   0.00000  Uiso   1.00
C850   C     0.17143   0.74516   0.97348   0.00000  Uiso   1.00
C851   C     0.06724   0.75011   0.73775   0.00000  Uiso   1.00
C852   C     0.26610   0.75148   0.76216   0.00000  Uiso   1.00
C853   C     0.01212   0.74929   0.73112   0.00000  Uiso   1.00
C854   C     0.32118   0.75566   0.76819   0.00000  Uiso   1.00
C855   C     0.20324   0.54908   0.78816   0.00000  Uiso   1.00
C856   C     0.12316   0.95048   0.77154   0.00000  Uiso   1.00
C857   C     0.20701   0.59578   0.78354   0.00000  Uiso   1.00
C858   C     0.16608   0.83576   0.75004   0.00000  Uiso   1.00
C859   C     0.12198   0.90362   0.76783   0.00000  Uiso   1.00
C860   C     0.16933   0.61620   0.75092   0.00000  Uiso   1.00
C861   C     0.16420   0.88363   0.75058   0.00000  Uiso   1.00
C862   C     0.13094   0.59110   0.72090   0.00000  Uiso   1.00
C863   C     0.20560   0.90882   0.73468   0.00000  Uiso   1.00
C864   C     0.13193   0.54442   0.72125   0.00000  Uiso   1.00
C865   C     0.20661   0.95551   0.73802   0.00000  Uiso   1.00
C866   C     0.16633   0.52408   0.75598   0.00000  Uiso   1.00
C867   C     0.16527   0.97564   0.75570   0.00000  Uiso   1.00
C868   C     0.23791   0.52636   0.82722   0.00000  Uiso   1.00
C869   C     0.12207   0.73292   0.54693   0.00000  Uiso   1.00
C870   C     0.08081   0.97317   0.79340   0.00000  Uiso   1.00
C871   C     0.25032   0.62407   0.81311   0.00000  Uiso   1.00
C872   C     0.07602   0.87441   0.78095   0.00000  Uiso   1.00
C873   C     0.06706   0.73029   0.51937   0.00000  Uiso   1.00
C874   C     0.27019   0.76250   0.97769   0.00000  Uiso   1.00
C875   C     0.08392   0.70016   0.61592   0.00000  Uiso   1.00
C876   C     0.24978   0.79982   0.88370   0.00000  Uiso   1.00
C877   C     0.24039   0.81007   0.63548   0.00000  Uiso   1.00
C878   C     0.08652   0.69706   0.86415   0.00000  Uiso   1.00
C879   C     0.21433   0.76385   0.95239   0.00000  Uiso   1.00
C880   C     0.12661   0.72775   0.59665   0.00000  Uiso   1.00
C881   C     0.20801   0.77102   0.90298   0.00000  Uiso   1.00
C882   C     0.20150   0.77836   0.60613   0.00000  Uiso   1.00
C883   C     0.13265   0.72095   0.89380   0.00000  Uiso   1.00
C884   C     0.20003   0.78043   0.55619   0.00000  Uiso   1.00
H885   H     0.32495   0.74190   0.69600   0.00000  Uiso   1.00
H886   H     0.23457   0.63925   0.84316   0.00000  Uiso   1.00
H887   H     0.28464   0.60477   0.82701   0.00000  Uiso   1.00
H888   H     0.06187   0.85015   0.75212   0.00000  Uiso   1.00
H889   H     0.08869   0.85587   0.81361   0.00000  Uiso   1.00
H890   H     0.04144   0.89317   0.78666   0.00000  Uiso   1.00
H891   H     0.05997   0.59292   0.68701   0.00000  Uiso   1.00
H892   H     0.25855   0.90583   0.69277   0.00000  Uiso   1.00
H893   H     0.09148   0.53488   0.65930   0.00000  Uiso   1.00
H894   H     0.28046   0.96644   0.73123   0.00000  Uiso   1.00
H895   H     0.06540   0.74670   0.98472   0.00000  Uiso   1.00
H896   H     0.00816   0.76461   0.80283   0.00000  Uiso   1.00
H897   H     0.05117   0.69512   0.51494   0.00000  Uiso   1.00
H898   H     0.04033   0.74899   0.53851   0.00000  Uiso   1.00
H899   H     0.28955   0.79656   0.98197   0.00000  Uiso   1.00
H900   H     0.27187   0.74600   0.51233   0.00000  Uiso   1.00
H901   H     0.29363   0.74204   0.95688   0.00000  Uiso   1.00
H902   H     0.09724   0.68727   0.65079   0.00000  Uiso   1.00
H903   H     0.04901   0.72021   0.61732   0.00000  Uiso   1.00
H904   H     0.07202   0.67010   0.59351   0.00000  Uiso   1.00
H905   H     0.23563   0.81425   0.84961   0.00000  Uiso   1.00
H906   H     0.26205   0.82897   0.90738   0.00000  Uiso   1.00
H907   H     0.22504   0.99099   0.83224   0.00000  Uiso   1.00
H908   H     0.28478   0.78031   0.88082   0.00000  Uiso   1.00
H909   H     0.23821   0.80949   0.67274   0.00000  Uiso   1.00
H910   H     0.28118   0.80205   0.63108   0.00000  Uiso   1.00
H911   H     0.23336   0.84505   0.62457   0.00000  Uiso   1.00
H912   H     0.09908   0.67559   0.83706   0.00000  Uiso   1.00
H913   H     0.06176   0.67565   0.88470   0.00000  Uiso   1.00
H914   H     0.05968   0.72206   0.84861   0.00000  Uiso   1.00
H915   H     0.25849   0.82498   0.55526   0.00000  Uiso   1.00
H916   H     0.11790   0.65192   0.94128   0.00000  Uiso   1.00
H917   H     0.27910   0.52718   0.81944   0.00000  Uiso   1.00
H918   H     0.23662   0.54368   0.86119   0.00000  Uiso   1.00
H919   H     0.08938   0.50948   0.79982   0.00000  Uiso   1.00
H920   H     0.04265   0.96896   0.77000   0.00000  Uiso   1.00
H921   H     0.07696   0.95828   0.82818   0.00000  Uiso   1.00
H922   H     0.26604   0.65098   0.79153   0.00000  Uiso   1.00
N923   N     0.16667   0.74999   0.62623   0.00000  Uiso   1.00
N924   N     0.16667   0.75001   0.87376   0.00000  Uiso   1.00
O925   O     0.16667   0.68454   0.78974   0.00000  Uiso   1.00
O926   O     0.24450   0.88680   0.71677   0.00000  Uiso   1.00
O927   O     0.09992   0.51767   0.68852   0.00000  Uiso   1.00
O928   O     0.24752   0.98252   0.72517   0.00000  Uiso   1.00
O929   O     0.22502   0.81564   0.53557   0.00000  Uiso   1.00
O930   O     0.11714   0.67752   0.96303   0.00000  Uiso   1.00
O931   O     0.16666   0.81546   0.71026   0.00000  Uiso   1.00
O932   O     0.16667   0.68453   0.71026   0.00000  Uiso   1.00
O933   O     0.16666   0.81547   0.78974   0.00000  Uiso   1.00
O934   O     0.09058   0.75000   0.78044   0.00000  Uiso   1.00
O935   O     0.24275   0.75000   0.71955   0.00000  Uiso   1.00
O936   O     0.09058   0.74999   0.70096   0.00000  Uiso   1.00
O937   O     0.24275   0.75001   0.79903   0.00000  Uiso   1.00
O938   O     0.09211   0.61303   0.69318   0.00000  Uiso   1.00
Zn939  Zn    0.16667   0.75000   0.80307   0.00000  Uiso   1.00
Zn940  Zn    0.16667   0.74999   0.69693   0.00000  Uiso   1.00
C941   C     0.50077   0.66418   0.75014   0.00000  Uiso   1.00
C942   C     0.47166   0.71516   0.94351   0.00000  Uiso   1.00
C943   C     0.49896   0.75111   0.52628   0.00000  Uiso   1.00
C944   C     0.50476   0.74516   0.97348   0.00000  Uiso   1.00
C945   C     0.40057   0.75011   0.73775   0.00000  Uiso   1.00
C946   C     0.59944   0.75148   0.76216   0.00000  Uiso   1.00
C947   C     0.34546   0.74929   0.73112   0.00000  Uiso   1.00
C948   C     0.65451   0.75566   0.76819   0.00000  Uiso   1.00
C949   C     0.53657   0.54908   0.78816   0.00000  Uiso   1.00
C950   C     0.45650   0.95048   0.77154   0.00000  Uiso   1.00
C951   C     0.54034   0.59578   0.78354   0.00000  Uiso   1.00
C952   C     0.49941   0.83576   0.75004   0.00000  Uiso   1.00
C953   C     0.45531   0.90362   0.76783   0.00000  Uiso   1.00
C954   C     0.50267   0.61620   0.75092   0.00000  Uiso   1.00
C955   C     0.49753   0.88363   0.75058   0.00000  Uiso   1.00
C956   C     0.46428   0.59110   0.72090   0.00000  Uiso   1.00
C957   C     0.53893   0.90882   0.73468   0.00000  Uiso   1.00
C958   C     0.46527   0.54442   0.72125   0.00000  Uiso   1.00
C959   C     0.53994   0.95551   0.73802   0.00000  Uiso   1.00
C960   C     0.49966   0.52408   0.75598   0.00000  Uiso   1.00
C961   C     0.49861   0.97564   0.75570   0.00000  Uiso   1.00
C962   C     0.57124   0.52636   0.82722   0.00000  Uiso   1.00
C963   C     0.45541   0.73292   0.54693   0.00000  Uiso   1.00
C964   C     0.41414   0.97317   0.79340   0.00000  Uiso   1.00
C965   C     0.58366   0.62407   0.81311   0.00000  Uiso   1.00
C966   C     0.40936   0.87441   0.78095   0.00000  Uiso   1.00
C967   C     0.40039   0.73029   0.51937   0.00000  Uiso   1.00
C968   C     0.60352   0.76250   0.97769   0.00000  Uiso   1.00
C969   C     0.41725   0.70016   0.61592   0.00000  Uiso   1.00
C970   C     0.58311   0.79982   0.88370   0.00000  Uiso   1.00
C971   C     0.57373   0.81007   0.63548   0.00000  Uiso   1.00
C972   C     0.41985   0.69706   0.86415   0.00000  Uiso   1.00
C973   C     0.54766   0.76385   0.95239   0.00000  Uiso   1.00
C974   C     0.45994   0.72775   0.59665   0.00000  Uiso   1.00
C975   C     0.54134   0.77102   0.90298   0.00000  Uiso   1.00
C976   C     0.53483   0.77836   0.60613   0.00000  Uiso   1.00
C977   C     0.46599   0.72095   0.89380   0.00000  Uiso   1.00
C978   C     0.53336   0.78043   0.55619   0.00000  Uiso   1.00
H979   H     0.65828   0.74190   0.69600   0.00000  Uiso   1.00
H980   H     0.56791   0.63925   0.84316   0.00000  Uiso   1.00
H981   H     0.61797   0.60477   0.82701   0.00000  Uiso   1.00
H982   H     0.39520   0.85015   0.75212   0.00000  Uiso   1.00
H983   H     0.42202   0.85587   0.81361   0.00000  Uiso   1.00
H984   H     0.37477   0.89317   0.78666   0.00000  Uiso   1.00
H985   H     0.39330   0.59292   0.68701   0.00000  Uiso   1.00
H986   H     0.59189   0.90583   0.69277   0.00000  Uiso   1.00
H987   H     0.42481   0.53488   0.65930   0.00000  Uiso   1.00
H988   H     0.61379   0.96644   0.73123   0.00000  Uiso   1.00
H989   H     0.39873   0.74670   0.98472   0.00000  Uiso   1.00
H990   H     0.34150   0.76461   0.80283   0.00000  Uiso   1.00
H991   H     0.38450   0.69512   0.51494   0.00000  Uiso   1.00
H992   H     0.37366   0.74899   0.53851   0.00000  Uiso   1.00
H993   H     0.62288   0.79656   0.98197   0.00000  Uiso   1.00
H994   H     0.60520   0.74600   0.51233   0.00000  Uiso   1.00
H995   H     0.62697   0.74204   0.95688   0.00000  Uiso   1.00
H996   H     0.43058   0.68727   0.65079   0.00000  Uiso   1.00
H997   H     0.38234   0.72021   0.61732   0.00000  Uiso   1.00
H998   H     0.40535   0.67010   0.59351   0.00000  Uiso   1.00
H999   H     0.56896   0.81425   0.84961   0.00000  Uiso   1.00
H1000  H     0.59538   0.82897   0.90738   0.00000  Uiso   1.00
H1001  H     0.55837   0.99099   0.83224   0.00000  Uiso   1.00
H1002  H     0.61811   0.78031   0.88082   0.00000  Uiso   1.00
H1003  H     0.57155   0.80949   0.67274   0.00000  Uiso   1.00
H1004  H     0.61451   0.80205   0.63108   0.00000  Uiso   1.00
H1005  H     0.56670   0.84505   0.62457   0.00000  Uiso   1.00
H1006  H     0.43241   0.67559   0.83706   0.00000  Uiso   1.00
H1007  H     0.39509   0.67565   0.88470   0.00000  Uiso   1.00
H1008  H     0.39301   0.72206   0.84861   0.00000  Uiso   1.00
H1009  H     0.59183   0.82498   0.55526   0.00000  Uiso   1.00
H1010  H     0.45123   0.65192   0.94128   0.00000  Uiso   1.00
H1011  H     0.61244   0.52718   0.81944   0.00000  Uiso   1.00
H1012  H     0.56995   0.54368   0.86119   0.00000  Uiso   1.00
H1013  H     0.42271   0.50948   0.79982   0.00000  Uiso   1.00
H1014  H     0.37598   0.96896   0.77000   0.00000  Uiso   1.00
H1015  H     0.41029   0.95828   0.82818   0.00000  Uiso   1.00
H1016  H     0.59937   0.65098   0.79153   0.00000  Uiso   1.00
N1017  N     0.50000   0.74999   0.62623   0.00000  Uiso   1.00
N1018  N     0.50000   0.75001   0.87376   0.00000  Uiso   1.00
O1019  O     0.50000   0.68454   0.78974   0.00000  Uiso   1.00
O1020  O     0.57783   0.88680   0.71677   0.00000  Uiso   1.00
O1021  O     0.43326   0.51767   0.68852   0.00000  Uiso   1.00
O1022  O     0.58085   0.98252   0.72517   0.00000  Uiso   1.00
O1023  O     0.55835   0.81564   0.53557   0.00000  Uiso   1.00
O1024  O     0.45047   0.67752   0.96303   0.00000  Uiso   1.00
O1025  O     0.50000   0.81546   0.71026   0.00000  Uiso   1.00
O1026  O     0.50000   0.68453   0.71026   0.00000  Uiso   1.00
O1027  O     0.50000   0.81547   0.78974   0.00000  Uiso   1.00
O1028  O     0.42392   0.75000   0.78044   0.00000  Uiso   1.00
O1029  O     0.57608   0.75000   0.71955   0.00000  Uiso   1.00
O1030  O     0.42392   0.74999   0.70096   0.00000  Uiso   1.00
O1031  O     0.57608   0.75001   0.79903   0.00000  Uiso   1.00
O1032  O     0.42544   0.61303   0.69318   0.00000  Uiso   1.00
Zn1033 Zn    0.50000   0.75000   0.80307   0.00000  Uiso   1.00
Zn1034 Zn    0.50000   0.74999   0.69693   0.00000  Uiso   1.00
C1035  C     0.83410   0.66418   0.75014   0.00000  Uiso   1.00
C1036  C     0.80499   0.71516   0.94351   0.00000  Uiso   1.00
C1037  C     0.83229   0.75111   0.52628   0.00000  Uiso   1.00
C1038  C     0.83809   0.74516   0.97348   0.00000  Uiso   1.00
C1039  C     0.73390   0.75011   0.73775   0.00000  Uiso   1.00
C1040  C     0.93277   0.75148   0.76216   0.00000  Uiso   1.00
C1041  C     0.67879   0.74929   0.73112   0.00000  Uiso   1.00
C1042  C     0.98785   0.75566   0.76819   0.00000  Uiso   1.00
C1043  C     0.86990   0.54908   0.78816   0.00000  Uiso   1.00
C1044  C     0.78983   0.95048   0.77154   0.00000  Uiso   1.00
C1045  C     0.87368   0.59578   0.78354   0.00000  Uiso   1.00
C1046  C     0.83274   0.83576   0.75004   0.00000  Uiso   1.00
C1047  C     0.78865   0.90362   0.76783   0.00000  Uiso   1.00
C1048  C     0.83600   0.61620   0.75092   0.00000  Uiso   1.00
C1049  C     0.83087   0.88363   0.75058   0.00000  Uiso   1.00
C1050  C     0.79761   0.59110   0.72090   0.00000  Uiso   1.00
C1051  C     0.87226   0.90882   0.73468   0.00000  Uiso   1.00
C1052  C     0.79860   0.54442   0.72125   0.00000  Uiso   1.00
C1053  C     0.87328   0.95551   0.73802   0.00000  Uiso   1.00
C1054  C     0.83299   0.52408   0.75598   0.00000  Uiso   1.00
C1055  C     0.83194   0.97564   0.75570   0.00000  Uiso   1.00
C1056  C     0.90458   0.52636   0.82722   0.00000  Uiso   1.00
C1057  C     0.78874   0.73292   0.54693   0.00000  Uiso   1.00
C1058  C     0.74748   0.97317   0.79340   0.00000  Uiso   1.00
C1059  C     0.91699   0.62407   0.81311   0.00000  Uiso   1.00
C1060  C     0.74269   0.87441   0.78095   0.00000  Uiso   1.00
C1061  C     0.73372   0.73029   0.51937   0.00000  Uiso   1.00
C1062  C     0.93685   0.76250   0.97769   0.00000  Uiso   1.00
C1063  C     0.75058   0.70016   0.61592   0.00000  Uiso   1.00
C1064  C     0.91644   0.79982   0.88370   0.00000  Uiso   1.00
C1065  C     0.90706   0.81007   0.63548   0.00000  Uiso   1.00
C1066  C     0.75318   0.69706   0.86415   0.00000  Uiso   1.00
C1067  C     0.88100   0.76385   0.95239   0.00000  Uiso   1.00
C1068  C     0.79327   0.72775   0.59665   0.00000  Uiso   1.00
C1069  C     0.87468   0.77102   0.90298   0.00000  Uiso   1.00
C1070  C     0.86816   0.77836   0.60613   0.00000  Uiso   1.00
C1071  C     0.79932   0.72095   0.89380   0.00000  Uiso   1.00
C1072  C     0.86669   0.78043   0.55619   0.00000  Uiso   1.00
H1073  H     0.99162   0.74190   0.69600   0.00000  Uiso   1.00
H1074  H     0.90124   0.63925   0.84316   0.00000  Uiso   1.00
H1075  H     0.95131   0.60477   0.82701   0.00000  Uiso   1.00
H1076  H     0.72853   0.85015   0.75212   0.00000  Uiso   1.00
H1077  H     0.75535   0.85587   0.81361   0.00000  Uiso   1.00
H1078  H     0.70810   0.89317   0.78666   0.00000  Uiso   1.00
H1079  H     0.72663   0.59292   0.68701   0.00000  Uiso   1.00
H1080  H     0.92522   0.90583   0.69277   0.00000  Uiso   1.00
H1081  H     0.75814   0.53488   0.65930   0.00000  Uiso   1.00
H1082  H     0.94713   0.96644   0.73123   0.00000  Uiso   1.00
H1083  H     0.73206   0.74670   0.98472   0.00000  Uiso   1.00
H1084  H     0.67483   0.76461   0.80283   0.00000  Uiso   1.00
H1085  H     0.71783   0.69512   0.51494   0.00000  Uiso   1.00
H1086  H     0.70700   0.74899   0.53851   0.00000  Uiso   1.00
H1087  H     0.95622   0.79656   0.98197   0.00000  Uiso   1.00
H1088  H     0.93853   0.74600   0.51233   0.00000  Uiso   1.00
H1089  H     0.96030   0.74204   0.95688   0.00000  Uiso   1.00
H1090  H     0.76391   0.68727   0.65079   0.00000  Uiso   1.00
H1091  H     0.71567   0.72021   0.61732   0.00000  Uiso   1.00
H1092  H     0.73869   0.67010   0.59351   0.00000  Uiso   1.00
H1093  H     0.90230   0.81425   0.84961   0.00000  Uiso   1.00
H1094  H     0.92871   0.82897   0.90738   0.00000  Uiso   1.00
H1095  H     0.89170   0.99099   0.83224   0.00000  Uiso   1.00
H1096  H     0.95145   0.78031   0.88082   0.00000  Uiso   1.00
H1097  H     0.90488   0.80949   0.67274   0.00000  Uiso   1.00
H1098  H     0.94784   0.80205   0.63108   0.00000  Uiso   1.00
H1099  H     0.90003   0.84505   0.62457   0.00000  Uiso   1.00
H1100  H     0.76575   0.67559   0.83706   0.00000  Uiso   1.00
H1101  H     0.72842   0.67565   0.88470   0.00000  Uiso   1.00
H1102  H     0.72634   0.72206   0.84861   0.00000  Uiso   1.00
H1103  H     0.92516   0.82498   0.55526   0.00000  Uiso   1.00
H1104  H     0.78457   0.65192   0.94128   0.00000  Uiso   1.00
H1105  H     0.94577   0.52718   0.81944   0.00000  Uiso   1.00
H1106  H     0.90328   0.54368   0.86119   0.00000  Uiso   1.00
H1107  H     0.75605   0.50948   0.79982   0.00000  Uiso   1.00
H1108  H     0.70932   0.96896   0.77000   0.00000  Uiso   1.00
H1109  H     0.74362   0.95828   0.82818   0.00000  Uiso   1.00
H1110  H     0.93271   0.65098   0.79153   0.00000  Uiso   1.00
N1111  N     0.83333   0.74999   0.62623   0.00000  Uiso   1.00
N1112  N     0.83333   0.75001   0.87376   0.00000  Uiso   1.00
O1113  O     0.83334   0.68454   0.78974   0.00000  Uiso   1.00
O1114  O     0.91117   0.88680   0.71677   0.00000  Uiso   1.00
O1115  O     0.76659   0.51767   0.68852   0.00000  Uiso   1.00
O1116  O     0.91419   0.98252   0.72517   0.00000  Uiso   1.00
O1117  O     0.89169   0.81564   0.53557   0.00000  Uiso   1.00
O1118  O     0.78381   0.67752   0.96303   0.00000  Uiso   1.00
O1119  O     0.83333   0.81546   0.71026   0.00000  Uiso   1.00
O1120  O     0.83334   0.68453   0.71026   0.00000  Uiso   1.00
O1121  O     0.83333   0.81547   0.78974   0.00000  Uiso   1.00
O1122  O     0.75725   0.75000   0.78044   0.00000  Uiso   1.00
O1123  O     0.90942   0.75000   0.71955   0.00000  Uiso   1.00
O1124  O     0.75725   0.74999   0.70096   0.00000  Uiso   1.00
O1125  O     0.90942   0.75001   0.79903   0.00000  Uiso   1.00
O1126  O     0.75877   0.61303   0.69318   0.00000  Uiso   1.00
Zn1127 Zn    0.83333   0.75000   0.80307   0.00000  Uiso   1.00
Zn1128 Zn    0.83333   0.74999   0.69693   0.00000  Uiso   1.00
loop_
_geom_bond_atom_site_label_1
_geom_bond_atom_site_label_2
_geom_bond_distance
_geom_bond_site_symmetry_2
_ccdc_geom_bond_type
C1     O79     1.293   .     A
C1     O86     1.298   .     A
C1     C14     1.440   .     S
C2     O84     1.379   .     S
C2     C4      1.408   .     A
C2     C37     1.428   .     A
C3     C23     1.422   .     A
C3     C38     1.412   .     A
C3     C568    1.557   1_554 S
C4     C33     1.420   .     A
C4     C567    1.557   .     S
C5     O88     1.289   .     A
C5     O90     1.286   .     A
C5     C7      1.400   .     S
C6     O91     1.289   .     A
C6     C8      1.399   .     S
C6     O89     1.286   .     A
C7     C196    1.326   1_455 S
C7     H227    1.088   1_455 S
C8     C101    1.326   .     S
C8     H144    1.084   .     S
C9     C20     1.412   .     A
C9     C11     1.404   .     A
C9     C22     1.518   .     S
C10    C21     1.413   .     A
C10    C24     1.519   .     S
C10    C13     1.405   .     A
C11    C14     1.414   .     A
C11    C25     1.520   .     S
C12    O85     1.297   .     A
C12    C15     1.437   .     S
C12    O87     1.293   .     A
C13    C26     1.522   .     S
C13    C15     1.413   .     A
C14    C16     1.401   .     A
C15    C17     1.400   .     A
C16    O92     1.382   .     S
C16    C18     1.399   .     A
C17    C19     1.400   .     A
C17    O80     1.382   .     S
C18    O81     1.383   .     S
C18    C20     1.400   .     A
C19    C21     1.402   .     A
C19    O82     1.383   .     S
C20    C303    1.449   1_545 S
C21    C302    1.449   .     S
C22    H72     1.110   .     S
C22    H71     1.110   .     S
C22    H343    1.108   1_545 S
C23    C27     1.518   .     S
C23    C34     1.428   .     A
C24    H75     1.110   .     S
C24    H74     1.110   .     S
C24    H355    1.108   .     S
C25    H41     1.108   .     S
C25    H76     1.111   .     S
C25    H40     1.110   .     S
C26    H44     1.106   .     S
C26    H43     1.110   .     S
C26    H42     1.110   .     S
C27    H51     1.109   .     S
C27    H52     1.110   .     S
C27    H613    1.108   1_554 S
C28    H55     1.111   .     S
C28    C33     1.517   .     S
C28    H53     1.109   .     S
C28    H618    1.109   .     S
C29    C34     1.505   .     S
C29    H58     1.110   .     S
C29    H57     1.110   .     S
C29    H56     1.091   .     S
C30    H60     1.110   .     S
C30    H59     1.095   .     S
C30    C35     1.507   .     S
C30    H62     1.110   .     S
C31    H63     1.081   .     S
C31    H65     1.111   .     S
C31    H64     1.111   .     S
C31    C36     1.507   .     S
C32    H68     1.098   .     S
C32    C37     1.506   .     S
C32    H67     1.108   .     S
C32    H66     1.102   .     S
C33    C35     1.425   .     A
C34    N77     1.381   .     A
C35    N78     1.381   .     A
C36    N77     1.386   .     A
C36    C38     1.433   .     A
C37    N78     1.383   .     A
C38    O83     1.382   .     S
H39    C101    1.088   .     S
H45    O92     0.990   .     S
H46    O80     0.990   .     S
H47    O81     0.991   .     S
H48    O82     0.990   .     S
H49    C591    1.108   .     S
H50    C196    1.084   1_455 S
H54    C592    1.109   1_554 S
H61    C304    1.108   .     S
H69    O83     0.988   .     S
H70    O84     0.991   .     S
H73    C306    1.108   1_545 S
N77    Zn94    2.033   .     S
N78    Zn93    2.033   .     S
O79    Zn93    1.997   .     S
O85    Zn94    1.997   .     S
O86    Zn94    1.998   .     S
O87    Zn93    1.998   .     S
O88    Zn93    1.971   .     S
O89    Zn94    1.971   .     S
O90    Zn94    1.973   .     S
O91    Zn93    1.973   .     S
C95    O173    1.293   .     A
C95    O180    1.298   .     A
C95    C108    1.440   .     S
C96    O178    1.379   .     S
C96    C98     1.408   .     A
C96    C131    1.428   .     A
C97    C117    1.422   .     A
C97    C132    1.412   .     A
C97    C662    1.557   1_554 S
C98    C127    1.420   .     A
C98    C661    1.557   .     S
C99    O182    1.289   .     A
C99    O184    1.286   .     A
C99    C101    1.400   .     S
C100   O185    1.289   .     A
C100   C102    1.399   .     S
C100   O183    1.286   .     A
C102   C195    1.326   .     S
C102   H238    1.084   .     S
C103   C114    1.412   .     A
C103   C105    1.404   .     A
C103   C116    1.518   .     S
C104   C115    1.413   .     A
C104   C118    1.519   .     S
C104   C107    1.405   .     A
C105   C108    1.414   .     A
C105   C119    1.520   .     S
C106   O179    1.297   .     A
C106   C109    1.437   .     S
C106   O181    1.293   .     A
C107   C120    1.522   .     S
C107   C109    1.413   .     A
C108   C110    1.401   .     A
C109   C111    1.400   .     A
C110   O186    1.382   .     S
C110   C112    1.399   .     A
C111   C113    1.400   .     A
C111   O174    1.382   .     S
C112   O175    1.383   .     S
C112   C114    1.400   .     A
C113   C115    1.402   .     A
C113   O176    1.383   .     S
C114   C397    1.449   1_545 S
C115   C396    1.449   .     S
C116   H166    1.110   .     S
C116   H165    1.110   .     S
C116   H437    1.108   1_545 S
C117   C121    1.518   .     S
C117   C128    1.428   .     A
C118   H169    1.110   .     S
C118   H168    1.110   .     S
C118   H449    1.108   .     S
C119   H135    1.108   .     S
C119   H170    1.111   .     S
C119   H134    1.110   .     S
C120   H138    1.106   .     S
C120   H137    1.110   .     S
C120   H136    1.110   .     S
C121   H145    1.109   .     S
C121   H146    1.110   .     S
C121   H707    1.108   1_554 S
C122   H149    1.111   .     S
C122   C127    1.517   .     S
C122   H147    1.109   .     S
C122   H712    1.109   .     S
C123   C128    1.505   .     S
C123   H152    1.110   .     S
C123   H151    1.110   .     S
C123   H150    1.091   .     S
C124   H154    1.110   .     S
C124   H153    1.095   .     S
C124   C129    1.507   .     S
C124   H156    1.110   .     S
C125   H157    1.081   .     S
C125   H159    1.111   .     S
C125   H158    1.111   .     S
C125   C130    1.507   .     S
C126   H162    1.098   .     S
C126   C131    1.506   .     S
C126   H161    1.108   .     S
C126   H160    1.102   .     S
C127   C129    1.425   .     A
C128   N171    1.381   .     A
C129   N172    1.381   .     A
C130   N171    1.386   .     A
C130   C132    1.433   .     A
C131   N172    1.383   .     A
C132   O177    1.382   .     S
H133   C195    1.088   .     S
H139   O186    0.990   .     S
H140   O174    0.990   .     S
H141   O175    0.991   .     S
H142   O176    0.990   .     S
H143   C685    1.108   .     S
H148   C686    1.109   1_554 S
H155   C398    1.108   .     S
H163   O177    0.988   .     S
H164   O178    0.991   .     S
H167   C400    1.108   1_545 S
N171   Zn188   2.033   .     S
N172   Zn187   2.033   .     S
O173   Zn187   1.997   .     S
O179   Zn188   1.997   .     S
O180   Zn188   1.998   .     S
O181   Zn187   1.998   .     S
O182   Zn187   1.971   .     S
O183   Zn188   1.971   .     S
O184   Zn188   1.973   .     S
O185   Zn187   1.973   .     S
C189   O267    1.293   .     A
C189   O274    1.298   .     A
C189   C202    1.440   .     S
C190   O272    1.379   .     S
C190   C192    1.408   .     A
C190   C225    1.428   .     A
C191   C211    1.422   .     A
C191   C226    1.412   .     A
C191   C756    1.557   1_554 S
C192   C221    1.420   .     A
C192   C755    1.557   .     S
C193   O276    1.289   .     A
C193   O278    1.286   .     A
C193   C195    1.400   .     S
C194   O279    1.289   .     A
C194   C196    1.399   .     S
C194   O277    1.286   .     A
C196   C7      1.326   1_655 S
C196   H50     1.084   1_655 S
C197   C208    1.412   .     A
C197   C199    1.404   .     A
C197   C210    1.518   .     S
C198   C209    1.413   .     A
C198   C212    1.519   .     S
C198   C201    1.405   .     A
C199   C202    1.414   .     A
C199   C213    1.520   .     S
C200   O273    1.297   .     A
C200   C203    1.437   .     S
C200   O275    1.293   .     A
C201   C214    1.522   .     S
C201   C203    1.413   .     A
C202   C204    1.401   .     A
C203   C205    1.400   .     A
C204   O280    1.382   .     S
C204   C206    1.399   .     A
C205   C207    1.400   .     A
C205   O268    1.382   .     S
C206   O269    1.383   .     S
C206   C208    1.400   .     A
C207   C209    1.402   .     A
C207   O270    1.383   .     S
C208   C491    1.449   1_545 S
C209   C490    1.449   .     S
C210   H260    1.110   .     S
C210   H259    1.110   .     S
C210   H531    1.108   1_545 S
C211   C215    1.518   .     S
C211   C222    1.428   .     A
C212   H263    1.110   .     S
C212   H262    1.110   .     S
C212   H543    1.108   .     S
C213   H229    1.108   .     S
C213   H264    1.111   .     S
C213   H228    1.110   .     S
C214   H232    1.106   .     S
C214   H231    1.110   .     S
C214   H230    1.110   .     S
C215   H239    1.109   .     S
C215   H240    1.110   .     S
C215   H801    1.108   1_554 S
C216   H243    1.111   .     S
C216   C221    1.517   .     S
C216   H241    1.109   .     S
C216   H806    1.109   .     S
C217   C222    1.505   .     S
C217   H246    1.110   .     S
C217   H245    1.110   .     S
C217   H244    1.091   .     S
C218   H248    1.110   .     S
C218   H247    1.095   .     S
C218   C223    1.507   .     S
C218   H250    1.110   .     S
C219   H251    1.081   .     S
C219   H253    1.111   .     S
C219   H252    1.111   .     S
C219   C224    1.507   .     S
C220   H256    1.098   .     S
C220   C225    1.506   .     S
C220   H255    1.108   .     S
C220   H254    1.102   .     S
C221   C223    1.425   .     A
C222   N265    1.381   .     A
C223   N266    1.381   .     A
C224   N265    1.386   .     A
C224   C226    1.433   .     A
C225   N266    1.383   .     A
C226   O271    1.382   .     S
H227   C7      1.088   1_655 S
H233   O280    0.990   .     S
H234   O268    0.990   .     S
H235   O269    0.991   .     S
H236   O270    0.990   .     S
H237   C779    1.108   .     S
H242   C780    1.109   1_554 S
H249   C492    1.108   .     S
H257   O271    0.988   .     S
H258   O272    0.991   .     S
H261   C494    1.108   1_545 S
N265   Zn282   2.033   .     S
N266   Zn281   2.033   .     S
O267   Zn281   1.997   .     S
O273   Zn282   1.997   .     S
O274   Zn282   1.998   .     S
O275   Zn281   1.998   .     S
O276   Zn281   1.971   .     S
O277   Zn282   1.971   .     S
O278   Zn282   1.973   .     S
O279   Zn281   1.973   .     S
C283   O361    1.293   .     A
C283   O368    1.298   .     A
C283   C296    1.440   .     S
C284   O366    1.379   .     S
C284   C286    1.408   .     A
C284   C319    1.428   .     A
C285   C305    1.422   .     A
C285   C320    1.412   .     A
C285   C850    1.557   1_554 S
C286   C315    1.420   .     A
C286   C849    1.557   .     S
C287   O370    1.289   .     A
C287   O372    1.286   .     A
C287   C289    1.400   .     S
C288   O373    1.289   .     A
C288   C290    1.399   .     S
C288   O371    1.286   .     A
C289   C478    1.326   1_455 S
C289   H509    1.088   1_455 S
C290   C383    1.326   .     S
C290   H426    1.084   .     S
C291   C302    1.412   .     A
C291   C293    1.404   .     A
C291   C304    1.518   .     S
C292   C303    1.413   .     A
C292   C306    1.519   .     S
C292   C295    1.405   .     A
C293   C296    1.414   .     A
C293   C307    1.520   .     S
C294   O367    1.297   .     A
C294   C297    1.437   .     S
C294   O369    1.293   .     A
C295   C308    1.522   .     S
C295   C297    1.413   .     A
C296   C298    1.401   .     A
C297   C299    1.400   .     A
C298   O374    1.382   .     S
C298   C300    1.399   .     A
C299   C301    1.400   .     A
C299   O362    1.382   .     S
C300   O363    1.383   .     S
C300   C302    1.400   .     A
C301   C303    1.402   .     A
C301   O364    1.383   .     S
C303   C20     1.449   1_565 S
C304   H354    1.110   .     S
C304   H353    1.110   .     S
C305   C309    1.518   .     S
C305   C316    1.428   .     A
C306   H357    1.110   .     S
C306   H356    1.110   .     S
C306   H73     1.108   1_565 S
C307   H323    1.108   .     S
C307   H358    1.111   .     S
C307   H322    1.110   .     S
C308   H326    1.106   .     S
C308   H325    1.110   .     S
C308   H324    1.110   .     S
C309   H333    1.109   .     S
C309   H334    1.110   .     S
C309   H895    1.108   1_554 S
C310   H337    1.111   .     S
C310   C315    1.517   .     S
C310   H335    1.109   .     S
C310   H900    1.109   .     S
C311   C316    1.505   .     S
C311   H340    1.110   .     S
C311   H339    1.110   .     S
C311   H338    1.091   .     S
C312   H342    1.110   .     S
C312   H341    1.095   .     S
C312   C317    1.507   .     S
C312   H344    1.110   .     S
C313   H345    1.081   .     S
C313   H347    1.111   .     S
C313   H346    1.111   .     S
C313   C318    1.507   .     S
C314   H350    1.098   .     S
C314   C319    1.506   .     S
C314   H349    1.108   .     S
C314   H348    1.102   .     S
C315   C317    1.425   .     A
C316   N359    1.381   .     A
C317   N360    1.381   .     A
C318   N359    1.386   .     A
C318   C320    1.433   .     A
C319   N360    1.383   .     A
C320   O365    1.382   .     S
H321   C383    1.088   .     S
H327   O374    0.990   .     S
H328   O362    0.990   .     S
H329   O363    0.991   .     S
H330   O364    0.990   .     S
H331   C873    1.108   .     S
H332   C478    1.084   1_455 S
H336   C874    1.109   1_554 S
H343   C22     1.108   1_565 S
H351   O365    0.988   .     S
H352   O366    0.991   .     S
N359   Zn376   2.033   .     S
N360   Zn375   2.033   .     S
O361   Zn375   1.997   .     S
O367   Zn376   1.997   .     S
O368   Zn376   1.998   .     S
O369   Zn375   1.998   .     S
O370   Zn375   1.971   .     S
O371   Zn376   1.971   .     S
O372   Zn376   1.973   .     S
O373   Zn375   1.973   .     S
C377   O455    1.293   .     A
C377   O462    1.298   .     A
C377   C390    1.440   .     S
C378   O460    1.379   .     S
C378   C380    1.408   .     A
C378   C413    1.428   .     A
C379   C399    1.422   .     A
C379   C414    1.412   .     A
C379   C944    1.557   1_554 S
C380   C409    1.420   .     A
C380   C943    1.557   .     S
C381   O464    1.289   .     A
C381   O466    1.286   .     A
C381   C383    1.400   .     S
C382   O467    1.289   .     A
C382   C384    1.399   .     S
C382   O465    1.286   .     A
C384   C477    1.326   .     S
C384   H520    1.084   .     S
C385   C396    1.412   .     A
C385   C387    1.404   .     A
C385   C398    1.518   .     S
C386   C397    1.413   .     A
C386   C400    1.519   .     S
C386   C389    1.405   .     A
C387   C390    1.414   .     A
C387   C401    1.520   .     S
C388   O461    1.297   .     A
C388   C391    1.437   .     S
C388   O463    1.293   .     A
C389   C402    1.522   .     S
C389   C391    1.413   .     A
C390   C392    1.401   .     A
C391   C393    1.400   .     A
C392   O468    1.382   .     S
C392   C394    1.399   .     A
C393   C395    1.400   .     A
C393   O456    1.382   .     S
C394   O457    1.383   .     S
C394   C396    1.400   .     A
C395   C397    1.402   .     A
C395   O458    1.383   .     S
C397   C114    1.449   1_565 S
C398   H448    1.110   .     S
C398   H447    1.110   .     S
C399   C403    1.518   .     S
C399   C410    1.428   .     A
C400   H451    1.110   .     S
C400   H450    1.110   .     S
C400   H167    1.108   1_565 S
C401   H417    1.108   .     S
C401   H452    1.111   .     S
C401   H416    1.110   .     S
C402   H420    1.106   .     S
C402   H419    1.110   .     S
C402   H418    1.110   .     S
C403   H427    1.109   .     S
C403   H428    1.110   .     S
C403   H989    1.108   1_554 S
C404   H431    1.111   .     S
C404   C409    1.517   .     S
C404   H429    1.109   .     S
C404   H994    1.109   .     S
C405   C410    1.505   .     S
C405   H434    1.110   .     S
C405   H433    1.110   .     S
C405   H432    1.091   .     S
C406   H436    1.110   .     S
C406   H435    1.095   .     S
C406   C411    1.507   .     S
C406   H438    1.110   .     S
C407   H439    1.081   .     S
C407   H441    1.111   .     S
C407   H440    1.111   .     S
C407   C412    1.507   .     S
C408   H444    1.098   .     S
C408   C413    1.506   .     S
C408   H443    1.108   .     S
C408   H442    1.102   .     S
C409   C411    1.425   .     A
C410   N453    1.381   .     A
C411   N454    1.381   .     A
C412   N453    1.386   .     A
C412   C414    1.433   .     A
C413   N454    1.383   .     A
C414   O459    1.382   .     S
H415   C477    1.088   .     S
H421   O468    0.990   .     S
H422   O456    0.990   .     S
H423   O457    0.991   .     S
H424   O458    0.990   .     S
H425   C967    1.108   .     S
H430   C968    1.109   1_554 S
H437   C116    1.108   1_565 S
H445   O459    0.988   .     S
H446   O460    0.991   .     S
N453   Zn470   2.033   .     S
N454   Zn469   2.033   .     S
O455   Zn469   1.997   .     S
O461   Zn470   1.997   .     S
O462   Zn470   1.998   .     S
O463   Zn469   1.998   .     S
O464   Zn469   1.971   .     S
O465   Zn470   1.971   .     S
O466   Zn470   1.973   .     S
O467   Zn469   1.973   .     S
C471   O549    1.293   .     A
C471   O556    1.298   .     A
C471   C484    1.440   .     S
C472   O554    1.379   .     S
C472   C474    1.408   .     A
C472   C507    1.428   .     A
C473   C493    1.422   .     A
C473   C508    1.412   .     A
C473   C1038   1.557   1_554 S
C474   C503    1.420   .     A
C474   C1037   1.557   .     S
C475   O558    1.289   .     A
C475   O560    1.286   .     A
C475   C477    1.400   .     S
C476   O561    1.289   .     A
C476   C478    1.399   .     S
C476   O559    1.286   .     A
C478   C289    1.326   1_655 S
C478   H332    1.084   1_655 S
C479   C490    1.412   .     A
C479   C481    1.404   .     A
C479   C492    1.518   .     S
C480   C491    1.413   .     A
C480   C494    1.519   .     S
C480   C483    1.405   .     A
C481   C484    1.414   .     A
C481   C495    1.520   .     S
C482   O555    1.297   .     A
C482   C485    1.437   .     S
C482   O557    1.293   .     A
C483   C496    1.522   .     S
C483   C485    1.413   .     A
C484   C486    1.401   .     A
C485   C487    1.400   .     A
C486   O562    1.382   .     S
C486   C488    1.399   .     A
C487   C489    1.400   .     A
C487   O550    1.382   .     S
C488   O551    1.383   .     S
C488   C490    1.400   .     A
C489   C491    1.402   .     A
C489   O552    1.383   .     S
C491   C208    1.449   1_565 S
C492   H542    1.110   .     S
C492   H541    1.110   .     S
C493   C497    1.518   .     S
C493   C504    1.428   .     A
C494   H545    1.110   .     S
C494   H544    1.110   .     S
C494   H261    1.108   1_565 S
C495   H511    1.108   .     S
C495   H546    1.111   .     S
C495   H510    1.110   .     S
C496   H514    1.106   .     S
C496   H513    1.110   .     S
C496   H512    1.110   .     S
C497   H521    1.109   .     S
C497   H522    1.110   .     S
C497   H1083   1.108   1_554 S
C498   H525    1.111   .     S
C498   C503    1.517   .     S
C498   H523    1.109   .     S
C498   H1088   1.109   .     S
C499   C504    1.505   .     S
C499   H528    1.110   .     S
C499   H527    1.110   .     S
C499   H526    1.091   .     S
C500   H530    1.110   .     S
C500   H529    1.095   .     S
C500   C505    1.507   .     S
C500   H532    1.110   .     S
C501   H533    1.081   .     S
C501   H535    1.111   .     S
C501   H534    1.111   .     S
C501   C506    1.507   .     S
C502   H538    1.098   .     S
C502   C507    1.506   .     S
C502   H537    1.108   .     S
C502   H536    1.102   .     S
C503   C505    1.425   .     A
C504   N547    1.381   .     A
C505   N548    1.381   .     A
C506   N547    1.386   .     A
C506   C508    1.433   .     A
C507   N548    1.383   .     A
C508   O553    1.382   .     S
H509   C289    1.088   1_655 S
H515   O562    0.990   .     S
H516   O550    0.990   .     S
H517   O551    0.991   .     S
H518   O552    0.990   .     S
H519   C1061   1.108   .     S
H524   C1062   1.109   1_554 S
H531   C210    1.108   1_565 S
H539   O553    0.988   .     S
H540   O554    0.991   .     S
N547   Zn564   2.033   .     S
N548   Zn563   2.033   .     S
O549   Zn563   1.997   .     S
O555   Zn564   1.997   .     S
O556   Zn564   1.998   .     S
O557   Zn563   1.998   .     S
O558   Zn563   1.971   .     S
O559   Zn564   1.971   .     S
O560   Zn564   1.973   .     S
O561   Zn563   1.973   .     S
C565   O643    1.293   .     A
C565   O650    1.298   .     A
C565   C578    1.440   .     S
C566   O648    1.379   .     S
C566   C568    1.408   .     A
C566   C601    1.428   .     A
C567   C587    1.422   .     A
C567   C602    1.412   .     A
C568   C597    1.420   .     A
C568   C3      1.557   1_556 S
C569   O652    1.289   .     A
C569   O654    1.286   .     A
C569   C571    1.400   .     S
C570   O655    1.289   .     A
C570   C572    1.399   .     S
C570   O653    1.286   .     A
C571   C760    1.326   1_455 S
C571   H791    1.088   1_455 S
C572   C665    1.326   .     S
C572   H708    1.084   .     S
C573   C584    1.412   .     A
C573   C575    1.404   .     A
C573   C586    1.518   .     S
C574   C585    1.413   .     A
C574   C588    1.519   .     S
C574   C577    1.405   .     A
C575   C578    1.414   .     A
C575   C589    1.520   .     S
C576   O649    1.297   .     A
C576   C579    1.437   .     S
C576   O651    1.293   .     A
C577   C590    1.522   .     S
C577   C579    1.413   .     A
C578   C580    1.401   .     A
C579   C581    1.400   .     A
C580   O656    1.382   .     S
C580   C582    1.399   .     A
C581   C583    1.400   .     A
C581   O644    1.382   .     S
C582   O645    1.383   .     S
C582   C584    1.400   .     A
C583   C585    1.402   .     A
C583   O646    1.383   .     S
C584   C867    1.449   1_545 S
C585   C866    1.449   .     S
C586   H636    1.110   .     S
C586   H635    1.110   .     S
C586   H907    1.108   1_545 S
C587   C591    1.518   .     S
C587   C598    1.428   .     A
C588   H639    1.110   .     S
C588   H638    1.110   .     S
C588   H919    1.108   .     S
C589   H605    1.108   .     S
C589   H640    1.111   .     S
C589   H604    1.110   .     S
C590   H608    1.106   .     S
C590   H607    1.110   .     S
C590   H606    1.110   .     S
C591   H615    1.109   .     S
C591   H616    1.110   .     S
C592   H619    1.111   .     S
C592   C597    1.517   .     S
C592   H617    1.109   .     S
C592   H54     1.109   1_556 S
C593   C598    1.505   .     S
C593   H622    1.110   .     S
C593   H621    1.110   .     S
C593   H620    1.091   .     S
C594   H624    1.110   .     S
C594   H623    1.095   .     S
C594   C599    1.507   .     S
C594   H626    1.110   .     S
C595   H627    1.081   .     S
C595   H629    1.111   .     S
C595   H628    1.111   .     S
C595   C600    1.507   .     S
C596   H632    1.098   .     S
C596   C601    1.506   .     S
C596   H631    1.108   .     S
C596   H630    1.102   .     S
C597   C599    1.425   .     A
C598   N641    1.381   .     A
C599   N642    1.381   .     A
C600   N641    1.386   .     A
C600   C602    1.433   .     A
C601   N642    1.383   .     A
C602   O647    1.382   .     S
H603   C665    1.088   .     S
H609   O656    0.990   .     S
H610   O644    0.990   .     S
H611   O645    0.991   .     S
H612   O646    0.990   .     S
H613   C27     1.108   1_556 S
H614   C760    1.084   1_455 S
H625   C868    1.108   .     S
H633   O647    0.988   .     S
H634   O648    0.991   .     S
H637   C870    1.108   1_545 S
N641   Zn658   2.033   .     S
N642   Zn657   2.033   .     S
O643   Zn657   1.997   .     S
O649   Zn658   1.997   .     S
O650   Zn658   1.998   .     S
O651   Zn657   1.998   .     S
O652   Zn657   1.971   .     S
O653   Zn658   1.971   .     S
O654   Zn658   1.973   .     S
O655   Zn657   1.973   .     S
C659   O737    1.293   .     A
C659   O744    1.298   .     A
C659   C672    1.440   .     S
C660   O742    1.379   .     S
C660   C662    1.408   .     A
C660   C695    1.428   .     A
C661   C681    1.422   .     A
C661   C696    1.412   .     A
C662   C691    1.420   .     A
C662   C97     1.557   1_556 S
C663   O746    1.289   .     A
C663   O748    1.286   .     A
C663   C665    1.400   .     S
C664   O749    1.289   .     A
C664   C666    1.399   .     S
C664   O747    1.286   .     A
C666   C759    1.326   .     S
C666   H802    1.084   .     S
C667   C678    1.412   .     A
C667   C669    1.404   .     A
C667   C680    1.518   .     S
C668   C679    1.413   .     A
C668   C682    1.519   .     S
C668   C671    1.405   .     A
C669   C672    1.414   .     A
C669   C683    1.520   .     S
C670   O743    1.297   .     A
C670   C673    1.437   .     S
C670   O745    1.293   .     A
C671   C684    1.522   .     S
C671   C673    1.413   .     A
C672   C674    1.401   .     A
C673   C675    1.400   .     A
C674   O750    1.382   .     S
C674   C676    1.399   .     A
C675   C677    1.400   .     A
C675   O738    1.382   .     S
C676   O739    1.383   .     S
C676   C678    1.400   .     A
C677   C679    1.402   .     A
C677   O740    1.383   .     S
C678   C961    1.449   1_545 S
C679   C960    1.449   .     S
C680   H730    1.110   .     S
C680   H729    1.110   .     S
C680   H1001   1.108   1_545 S
C681   C685    1.518   .     S
C681   C692    1.428   .     A
C682   H733    1.110   .     S
C682   H732    1.110   .     S
C682   H1013   1.108   .     S
C683   H699    1.108   .     S
C683   H734    1.111   .     S
C683   H698    1.110   .     S
C684   H702    1.106   .     S
C684   H701    1.110   .     S
C684   H700    1.110   .     S
C685   H709    1.109   .     S
C685   H710    1.110   .     S
C686   H713    1.111   .     S
C686   C691    1.517   .     S
C686   H711    1.109   .     S
C686   H148    1.109   1_556 S
C687   C692    1.505   .     S
C687   H716    1.110   .     S
C687   H715    1.110   .     S
C687   H714    1.091   .     S
C688   H718    1.110   .     S
C688   H717    1.095   .     S
C688   C693    1.507   .     S
C688   H720    1.110   .     S
C689   H721    1.081   .     S
C689   H723    1.111   .     S
C689   H722    1.111   .     S
C689   C694    1.507   .     S
C690   H726    1.098   .     S
C690   C695    1.506   .     S
C690   H725    1.108   .     S
C690   H724    1.102   .     S
C691   C693    1.425   .     A
C692   N735    1.381   .     A
C693   N736    1.381   .     A
C694   N735    1.386   .     A
C694   C696    1.433   .     A
C695   N736    1.383   .     A
C696   O741    1.382   .     S
H697   C759    1.088   .     S
H703   O750    0.990   .     S
H704   O738    0.990   .     S
H705   O739    0.991   .     S
H706   O740    0.990   .     S
H707   C121    1.108   1_556 S
H719   C962    1.108   .     S
H727   O741    0.988   .     S
H728   O742    0.991   .     S
H731   C964    1.108   1_545 S
N735   Zn752   2.033   .     S
N736   Zn751   2.033   .     S
O737   Zn751   1.997   .     S
O743   Zn752   1.997   .     S
O744   Zn752   1.998   .     S
O745   Zn751   1.998   .     S
O746   Zn751   1.971   .     S
O747   Zn752   1.971   .     S
O748   Zn752   1.973   .     S
O749   Zn751   1.973   .     S
C753   O831    1.293   .     A
C753   O838    1.298   .     A
C753   C766    1.440   .     S
C754   O836    1.379   .     S
C754   C756    1.408   .     A
C754   C789    1.428   .     A
C755   C775    1.422   .     A
C755   C790    1.412   .     A
C756   C785    1.420   .     A
C756   C191    1.557   1_556 S
C757   O840    1.289   .     A
C757   O842    1.286   .     A
C757   C759    1.400   .     S
C758   O843    1.289   .     A
C758   C760    1.399   .     S
C758   O841    1.286   .     A
C760   C571    1.326   1_655 S
C760   H614    1.084   1_655 S
C761   C772    1.412   .     A
C761   C763    1.404   .     A
C761   C774    1.518   .     S
C762   C773    1.413   .     A
C762   C776    1.519   .     S
C762   C765    1.405   .     A
C763   C766    1.414   .     A
C763   C777    1.520   .     S
C764   O837    1.297   .     A
C764   C767    1.437   .     S
C764   O839    1.293   .     A
C765   C778    1.522   .     S
C765   C767    1.413   .     A
C766   C768    1.401   .     A
C767   C769    1.400   .     A
C768   O844    1.382   .     S
C768   C770    1.399   .     A
C769   C771    1.400   .     A
C769   O832    1.382   .     S
C770   O833    1.383   .     S
C770   C772    1.400   .     A
C771   C773    1.402   .     A
C771   O834    1.383   .     S
C772   C1055   1.449   1_545 S
C773   C1054   1.449   .     S
C774   H824    1.110   .     S
C774   H823    1.110   .     S
C774   H1095   1.108   1_545 S
C775   C779    1.518   .     S
C775   C786    1.428   .     A
C776   H827    1.110   .     S
C776   H826    1.110   .     S
C776   H1107   1.108   .     S
C777   H793    1.108   .     S
C777   H828    1.111   .     S
C777   H792    1.110   .     S
C778   H796    1.106   .     S
C778   H795    1.110   .     S
C778   H794    1.110   .     S
C779   H803    1.109   .     S
C779   H804    1.110   .     S
C780   H807    1.111   .     S
C780   C785    1.517   .     S
C780   H805    1.109   .     S
C780   H242    1.109   1_556 S
C781   C786    1.505   .     S
C781   H810    1.110   .     S
C781   H809    1.110   .     S
C781   H808    1.091   .     S
C782   H812    1.110   .     S
C782   H811    1.095   .     S
C782   C787    1.507   .     S
C782   H814    1.110   .     S
C783   H815    1.081   .     S
C783   H817    1.111   .     S
C783   H816    1.111   .     S
C783   C788    1.507   .     S
C784   H820    1.098   .     S
C784   C789    1.506   .     S
C784   H819    1.108   .     S
C784   H818    1.102   .     S
C785   C787    1.425   .     A
C786   N829    1.381   .     A
C787   N830    1.381   .     A
C788   N829    1.386   .     A
C788   C790    1.433   .     A
C789   N830    1.383   .     A
C790   O835    1.382   .     S
H791   C571    1.088   1_655 S
H797   O844    0.990   .     S
H798   O832    0.990   .     S
H799   O833    0.991   .     S
H800   O834    0.990   .     S
H801   C215    1.108   1_556 S
H813   C1056   1.108   .     S
H821   O835    0.988   .     S
H822   O836    0.991   .     S
H825   C1058   1.108   1_545 S
N829   Zn846   2.033   .     S
N830   Zn845   2.033   .     S
O831   Zn845   1.997   .     S
O837   Zn846   1.997   .     S
O838   Zn846   1.998   .     S
O839   Zn845   1.998   .     S
O840   Zn845   1.971   .     S
O841   Zn846   1.971   .     S
O842   Zn846   1.973   .     S
O843   Zn845   1.973   .     S
C847   O925    1.293   .     A
C847   O932    1.298   .     A
C847   C860    1.440   .     S
C848   O930    1.379   .     S
C848   C850    1.408   .     A
C848   C883    1.428   .     A
C849   C869    1.422   .     A
C849   C884    1.412   .     A
C850   C879    1.420   .     A
C850   C285    1.557   1_556 S
C851   O934    1.289   .     A
C851   O936    1.286   .     A
C851   C853    1.400   .     S
C852   O937    1.289   .     A
C852   C854    1.399   .     S
C852   O935    1.286   .     A
C853   C1042   1.326   1_455 S
C853   H1073   1.088   1_455 S
C854   C947    1.326   .     S
C854   H990    1.084   .     S
C855   C866    1.412   .     A
C855   C857    1.404   .     A
C855   C868    1.518   .     S
C856   C867    1.413   .     A
C856   C870    1.519   .     S
C856   C859    1.405   .     A
C857   C860    1.414   .     A
C857   C871    1.520   .     S
C858   O931    1.297   .     A
C858   C861    1.437   .     S
C858   O933    1.293   .     A
C859   C872    1.522   .     S
C859   C861    1.413   .     A
C860   C862    1.401   .     A
C861   C863    1.400   .     A
C862   O938    1.382   .     S
C862   C864    1.399   .     A
C863   C865    1.400   .     A
C863   O926    1.382   .     S
C864   O927    1.383   .     S
C864   C866    1.400   .     A
C865   C867    1.402   .     A
C865   O928    1.383   .     S
C867   C584    1.449   1_565 S
C868   H918    1.110   .     S
C868   H917    1.110   .     S
C869   C873    1.518   .     S
C869   C880    1.428   .     A
C870   H921    1.110   .     S
C870   H920    1.110   .     S
C870   H637    1.108   1_565 S
C871   H887    1.108   .     S
C871   H922    1.111   .     S
C871   H886    1.110   .     S
C872   H890    1.106   .     S
C872   H889    1.110   .     S
C872   H888    1.110   .     S
C873   H897    1.109   .     S
C873   H898    1.110   .     S
C874   H901    1.111   .     S
C874   C879    1.517   .     S
C874   H899    1.109   .     S
C874   H336    1.109   1_556 S
C875   C880    1.505   .     S
C875   H904    1.110   .     S
C875   H903    1.110   .     S
C875   H902    1.091   .     S
C876   H906    1.110   .     S
C876   H905    1.095   .     S
C876   C881    1.507   .     S
C876   H908    1.110   .     S
C877   H909    1.081   .     S
C877   H911    1.111   .     S
C877   H910    1.111   .     S
C877   C882    1.507   .     S
C878   H914    1.098   .     S
C878   C883    1.506   .     S
C878   H913    1.108   .     S
C878   H912    1.102   .     S
C879   C881    1.425   .     A
C880   N923    1.381   .     A
C881   N924    1.381   .     A
C882   N923    1.386   .     A
C882   C884    1.433   .     A
C883   N924    1.383   .     A
C884   O929    1.382   .     S
H885   C947    1.088   .     S
H891   O938    0.990   .     S
H892   O926    0.990   .     S
H893   O927    0.991   .     S
H894   O928    0.990   .     S
H895   C309    1.108   1_556 S
H896   C1042   1.084   1_455 S
H907   C586    1.108   1_565 S
H915   O929    0.988   .     S
H916   O930    0.991   .     S
N923   Zn940   2.033   .     S
N924   Zn939   2.033   .     S
O925   Zn939   1.997   .     S
O931   Zn940   1.997   .     S
O932   Zn940   1.998   .     S
O933   Zn939   1.998   .     S
O934   Zn939   1.971   .     S
O935   Zn940   1.971   .     S
O936   Zn940   1.973   .     S
O937   Zn939   1.973   .     S
C941   O1019   1.293   .     A
C941   O1026   1.298   .     A
C941   C954    1.440   .     S
C942   O1024   1.379   .     S
C942   C944    1.408   .     A
C942   C977    1.428   .     A
C943   C963    1.422   .     A
C943   C978    1.412   .     A
C944   C973    1.420   .     A
C944   C379    1.557   1_556 S
C945   O1028   1.289   .     A
C945   O1030   1.286   .     A
C945   C947    1.400   .     S
C946   O1031   1.289   .     A
C946   C948    1.399   .     S
C946   O1029   1.286   .     A
C948   C1041   1.326   .     S
C948   H1084   1.084   .     S
C949   C960    1.412   .     A
C949   C951    1.404   .     A
C949   C962    1.518   .     S
C950   C961    1.413   .     A
C950   C964    1.519   .     S
C950   C953    1.405   .     A
C951   C954    1.414   .     A
C951   C965    1.520   .     S
C952   O1025   1.297   .     A
C952   C955    1.437   .     S
C952   O1027   1.293   .     A
C953   C966    1.522   .     S
C953   C955    1.413   .     A
C954   C956    1.401   .     A
C955   C957    1.400   .     A
C956   O1032   1.382   .     S
C956   C958    1.399   .     A
C957   C959    1.400   .     A
C957   O1020   1.382   .     S
C958   O1021   1.383   .     S
C958   C960    1.400   .     A
C959   C961    1.402   .     A
C959   O1022   1.383   .     S
C961   C678    1.449   1_565 S
C962   H1012   1.110   .     S
C962   H1011   1.110   .     S
C963   C967    1.518   .     S
C963   C974    1.428   .     A
C964   H1015   1.110   .     S
C964   H1014   1.110   .     S
C964   H731    1.108   1_565 S
C965   H981    1.108   .     S
C965   H1016   1.111   .     S
C965   H980    1.110   .     S
C966   H984    1.106   .     S
C966   H983    1.110   .     S
C966   H982    1.110   .     S
C967   H991    1.109   .     S
C967   H992    1.110   .     S
C968   H995    1.111   .     S
C968   C973    1.517   .     S
C968   H993    1.109   .     S
C968   H430    1.109   1_556 S
C969   C974    1.505   .     S
C969   H998    1.110   .     S
C969   H997    1.110   .     S
C969   H996    1.091   .     S
C970   H1000   1.110   .     S
C970   H999    1.095   .     S
C970   C975    1.507   .     S
C970   H1002   1.110   .     S
C971   H1003   1.081   .     S
C971   H1005   1.111   .     S
C971   H1004   1.111   .     S
C971   C976    1.507   .     S
C972   H1008   1.098   .     S
C972   C977    1.506   .     S
C972   H1007   1.108   .     S
C972   H1006   1.102   .     S
C973   C975    1.425   .     A
C974   N1017   1.381   .     A
C975   N1018   1.381   .     A
C976   N1017   1.386   .     A
C976   C978    1.433   .     A
C977   N1018   1.383   .     A
C978   O1023   1.382   .     S
H979   C1041   1.088   .     S
H985   O1032   0.990   .     S
H986   O1020   0.990   .     S
H987   O1021   0.991   .     S
H988   O1022   0.990   .     S
H989   C403    1.108   1_556 S
H1001  C680    1.108   1_565 S
H1009  O1023   0.988   .     S
H1010  O1024   0.991   .     S
N1017  Zn1034  2.033   .     S
N1018  Zn1033  2.033   .     S
O1019  Zn1033  1.997   .     S
O1025  Zn1034  1.997   .     S
O1026  Zn1034  1.998   .     S
O1027  Zn1033  1.998   .     S
O1028  Zn1033  1.971   .     S
O1029  Zn1034  1.971   .     S
O1030  Zn1034  1.973   .     S
O1031  Zn1033  1.973   .     S
C1035  O1113   1.293   .     A
C1035  O1120   1.298   .     A
C1035  C1048   1.440   .     S
C1036  O1118   1.379   .     S
C1036  C1038   1.408   .     A
C1036  C1071   1.428   .     A
C1037  C1057   1.422   .     A
C1037  C1072   1.412   .     A
C1038  C1067   1.420   .     A
C1038  C473    1.557   1_556 S
C1039  O1122   1.289   .     A
C1039  O1124   1.286   .     A
C1039  C1041   1.400   .     S
C1040  O1125   1.289   .     A
C1040  C1042   1.399   .     S
C1040  O1123   1.286   .     A
C1042  C853    1.326   1_655 S
C1042  H896    1.084   1_655 S
C1043  C1054   1.412   .     A
C1043  C1045   1.404   .     A
C1043  C1056   1.518   .     S
C1044  C1055   1.413   .     A
C1044  C1058   1.519   .     S
C1044  C1047   1.405   .     A
C1045  C1048   1.414   .     A
C1045  C1059   1.520   .     S
C1046  O1119   1.297   .     A
C1046  C1049   1.437   .     S
C1046  O1121   1.293   .     A
C1047  C1060   1.522   .     S
C1047  C1049   1.413   .     A
C1048  C1050   1.401   .     A
C1049  C1051   1.400   .     A
C1050  O1126   1.382   .     S
C1050  C1052   1.399   .     A
C1051  C1053   1.400   .     A
C1051  O1114   1.382   .     S
C1052  O1115   1.383   .     S
C1052  C1054   1.400   .     A
C1053  C1055   1.402   .     A
C1053  O1116   1.383   .     S
C1055  C772    1.449   1_565 S
C1056  H1106   1.110   .     S
C1056  H1105   1.110   .     S
C1057  C1061   1.518   .     S
C1057  C1068   1.428   .     A
C1058  H1109   1.110   .     S
C1058  H1108   1.110   .     S
C1058  H825    1.108   1_565 S
C1059  H1075   1.108   .     S
C1059  H1110   1.111   .     S
C1059  H1074   1.110   .     S
C1060  H1078   1.106   .     S
C1060  H1077   1.110   .     S
C1060  H1076   1.110   .     S
C1061  H1085   1.109   .     S
C1061  H1086   1.110   .     S
C1062  H1089   1.111   .     S
C1062  C1067   1.517   .     S
C1062  H1087   1.109   .     S
C1062  H524    1.109   1_556 S
C1063  C1068   1.505   .     S
C1063  H1092   1.110   .     S
C1063  H1091   1.110   .     S
C1063  H1090   1.091   .     S
C1064  H1094   1.110   .     S
C1064  H1093   1.095   .     S
C1064  C1069   1.507   .     S
C1064  H1096   1.110   .     S
C1065  H1097   1.081   .     S
C1065  H1099   1.111   .     S
C1065  H1098   1.111   .     S
C1065  C1070   1.507   .     S
C1066  H1102   1.098   .     S
C1066  C1071   1.506   .     S
C1066  H1101   1.108   .     S
C1066  H1100   1.102   .     S
C1067  C1069   1.425   .     A
C1068  N1111   1.381   .     A
C1069  N1112   1.381   .     A
C1070  N1111   1.386   .     A
C1070  C1072   1.433   .     A
C1071  N1112   1.383   .     A
C1072  O1117   1.382   .     S
H1073  C853    1.088   1_655 S
H1079  O1126   0.990   .     S
H1080  O1114   0.990   .     S
H1081  O1115   0.991   .     S
H1082  O1116   0.990   .     S
H1083  C497    1.108   1_556 S
H1095  C774    1.108   1_565 S
H1103  O1117   0.988   .     S
H1104  O1118   0.991   .     S
N1111  Zn1128  2.033   .     S
N1112  Zn1127  2.033   .     S
O1113  Zn1127  1.997   .     S
O1119  Zn1128  1.997   .     S
O1120  Zn1128  1.998   .     S
O1121  Zn1127  1.998   .     S
O1122  Zn1127  1.971   .     S
O1123  Zn1128  1.971   .     S
O1124  Zn1128  1.973   .     S
O1125  Zn1127  1.973   .     S
