data_str_m2_o1_o1_pcu_sym.13
_audit_creation_date              2020-01-03
_audit_creation_method            'Materials Studio'
_symmetry_space_group_name_H-M    'P1'
_symmetry_Int_Tables_number       1
_symmetry_cell_setting            triclinic
loop_
_symmetry_equiv_pos_as_xyz
  x,y,z
_cell_length_a                    33.5400
_cell_length_b                    27.4967
_cell_length_c                    29.1080
_cell_angle_alpha                 90.0000
_cell_angle_beta                  90.0000
_cell_angle_gamma                 90.0000
loop_
_atom_site_label
_atom_site_type_symbol
_atom_site_fract_x
_atom_site_fract_y
_atom_site_fract_z
_atom_site_U_iso_or_equiv
_atom_site_adp_type
_atom_site_occupancy
C1     C     0.05987   0.19134   0.16675   0.00000  Uiso   1.00
C2     C     0.00027   0.29392   0.30817   0.00000  Uiso   1.00
C3     C     0.49973   0.29392   0.02516   0.00000  Uiso   1.00
C4     C     0.49973   0.20608   0.30817   0.00000  Uiso   1.00
C5     C     0.25027   0.45608   0.02516   0.00000  Uiso   1.00
C6     C     0.25027   0.04392   0.30817   0.00000  Uiso   1.00
C7     C     0.24973   0.04392   0.02516   0.00000  Uiso   1.00
C8     C     0.24973   0.45608   0.30817   0.00000  Uiso   1.00
C9     C     0.39082   0.14124   0.12444   0.00000  Uiso   1.00
C10    C     0.10991   0.35790   0.20774   0.00000  Uiso   1.00
C11    C     0.10918   0.35876   0.12444   0.00000  Uiso   1.00
C12    C     0.44013   0.30866   0.16675   0.00000  Uiso   1.00
C13    C     0.39009   0.14209   0.20774   0.00000  Uiso   1.00
C14    C     0.10918   0.14124   0.20890   0.00000  Uiso   1.00
C15    C     0.39009   0.35791   0.12559   0.00000  Uiso   1.00
C16    C     0.39082   0.35876   0.20890   0.00000  Uiso   1.00
C17    C     0.10991   0.14209   0.12559   0.00000  Uiso   1.00
C18    C     0.14082   0.39124   0.12444   0.00000  Uiso   1.00
C19    C     0.35991   0.10790   0.20774   0.00000  Uiso   1.00
C20    C     0.35918   0.10876   0.12444   0.00000  Uiso   1.00
C21    C     0.14009   0.39209   0.20774   0.00000  Uiso   1.00
C22    C     0.35918   0.39124   0.20890   0.00000  Uiso   1.00
C23    C     0.44013   0.19134   0.16658   0.00000  Uiso   1.00
C24    C     0.14009   0.10791   0.12559   0.00000  Uiso   1.00
C25    C     0.14082   0.10876   0.20890   0.00000  Uiso   1.00
C26    C     0.35991   0.39209   0.12559   0.00000  Uiso   1.00
C27    C     0.09355   0.34195   0.16622   0.00000  Uiso   1.00
C28    C     0.40645   0.15804   0.16622   0.00000  Uiso   1.00
C29    C     0.40645   0.34196   0.16711   0.00000  Uiso   1.00
C30    C     0.09355   0.15804   0.16711   0.00000  Uiso   1.00
C31    C     0.34355   0.09196   0.16622   0.00000  Uiso   1.00
C32    C     0.15645   0.40804   0.16622   0.00000  Uiso   1.00
C33    C     0.15645   0.09196   0.16711   0.00000  Uiso   1.00
C34    C     0.05987   0.30866   0.16658   0.00000  Uiso   1.00
C35    C     0.34355   0.40805   0.16711   0.00000  Uiso   1.00
C36    C     0.30987   0.44134   0.16675   0.00000  Uiso   1.00
C37    C     0.19013   0.05866   0.16675   0.00000  Uiso   1.00
C38    C     0.19013   0.44134   0.16658   0.00000  Uiso   1.00
C39    C     0.30987   0.05866   0.16658   0.00000  Uiso   1.00
C40    C     0.00027   0.20608   0.02516   0.00000  Uiso   1.00
Cu41   Cu    0.00000   0.25000   0.21355   0.00000  Uiso   1.00
Cu42   Cu    0.00000   0.25000   0.11978   0.00000  Uiso   1.00
Cu43   Cu    0.25000   0.00000   0.21355   0.00000  Uiso   1.00
Cu44   Cu    0.25000   0.00000   0.11978   0.00000  Uiso   1.00
H45    H     0.00733   0.10550   0.11786   0.00000  Uiso   1.00
H46    H     0.09950   0.34404   0.24026   0.00000  Uiso   1.00
H47    H     0.09717   0.34677   0.09180   0.00000  Uiso   1.00
H48    H     0.40051   0.15595   0.24026   0.00000  Uiso   1.00
H49    H     0.09717   0.15323   0.24153   0.00000  Uiso   1.00
H50    H     0.40051   0.34405   0.09308   0.00000  Uiso   1.00
H51    H     0.40282   0.34677   0.24153   0.00000  Uiso   1.00
H52    H     0.09950   0.15596   0.09308   0.00000  Uiso   1.00
H53    H     0.15282   0.40323   0.09180   0.00000  Uiso   1.00
H54    H     0.34950   0.09404   0.24026   0.00000  Uiso   1.00
H55    H     0.34717   0.09677   0.09180   0.00000  Uiso   1.00
H56    H     0.00739   0.39448   0.21546   0.00000  Uiso   1.00
H57    H     0.15051   0.40595   0.24026   0.00000  Uiso   1.00
H58    H     0.34717   0.40323   0.24153   0.00000  Uiso   1.00
H59    H     0.15051   0.09405   0.09308   0.00000  Uiso   1.00
H60    H     0.15282   0.09677   0.24153   0.00000  Uiso   1.00
H61    H     0.34950   0.40596   0.09308   0.00000  Uiso   1.00
H62    H     0.49267   0.39450   0.11786   0.00000  Uiso   1.00
H63    H     0.49266   0.10550   0.21547   0.00000  Uiso   1.00
H64    H     0.25733   0.35550   0.11786   0.00000  Uiso   1.00
H65    H     0.25739   0.14448   0.21546   0.00000  Uiso   1.00
H66    H     0.24267   0.14450   0.11786   0.00000  Uiso   1.00
H67    H     0.24266   0.35550   0.21547   0.00000  Uiso   1.00
H68    H     0.40282   0.15323   0.09180   0.00000  Uiso   1.00
N69    N     0.00000   0.25000   0.28402   0.00000  Uiso   1.00
N70    N    -0.00000   0.25000   0.04931   0.00000  Uiso   1.00
N71    N     0.25000   0.00000   0.28402   0.00000  Uiso   1.00
N72    N     0.25000   0.00000   0.04931   0.00000  Uiso   1.00
O73    O     0.04508   0.20491   0.20625   0.00000  Uiso   1.00
O74    O     0.20491   0.04509   0.12709   0.00000  Uiso   1.00
O75    O     0.20491   0.04509   0.20625   0.00000  Uiso   1.00
O76    O     0.29508   0.45491   0.12709   0.00000  Uiso   1.00
O77    O     0.20491   0.45491   0.12709   0.00000  Uiso   1.00
O78    O     0.29508   0.04509   0.20625   0.00000  Uiso   1.00
O79    O     0.29508   0.04509   0.12709   0.00000  Uiso   1.00
O80    O     0.20491   0.45491   0.20625   0.00000  Uiso   1.00
O81    O     0.47449   0.11187   0.03631   0.00000  Uiso   1.00
O82    O     0.04566   0.12810   0.04419   0.00000  Uiso   1.00
O83    O     0.49963   0.13966   0.11157   0.00000  Uiso   1.00
O84    O     0.45491   0.29509   0.12709   0.00000  Uiso   1.00
O85    O     0.47449   0.38814   0.29703   0.00000  Uiso   1.00
O86    O     0.04566   0.37190   0.28914   0.00000  Uiso   1.00
O87    O     0.49963   0.36035   0.22176   0.00000  Uiso   1.00
O88    O     0.02551   0.38813   0.03631   0.00000  Uiso   1.00
O89    O     0.45434   0.37191   0.04419   0.00000  Uiso   1.00
O90    O     0.00037   0.36034   0.11157   0.00000  Uiso   1.00
O91    O     0.02551   0.11187   0.29703   0.00000  Uiso   1.00
O92    O     0.45434   0.12810   0.28914   0.00000  Uiso   1.00
O93    O     0.00037   0.13966   0.22176   0.00000  Uiso   1.00
O94    O     0.22449   0.36187   0.03631   0.00000  Uiso   1.00
O95    O     0.45491   0.29509   0.20625   0.00000  Uiso   1.00
O96    O     0.29566   0.37810   0.04419   0.00000  Uiso   1.00
O97    O     0.24963   0.38966   0.11157   0.00000  Uiso   1.00
O98    O     0.22449   0.13814   0.29703   0.00000  Uiso   1.00
O99    O     0.29566   0.12190   0.28914   0.00000  Uiso   1.00
O100   O     0.24963   0.11035   0.22176   0.00000  Uiso   1.00
O101   O     0.27551   0.13813   0.03631   0.00000  Uiso   1.00
O102   O     0.20434   0.12191   0.04419   0.00000  Uiso   1.00
O103   O     0.25037   0.11034   0.11157   0.00000  Uiso   1.00
O104   O     0.27551   0.36187   0.29703   0.00000  Uiso   1.00
O105   O     0.20434   0.37810   0.28914   0.00000  Uiso   1.00
O106   O     0.04508   0.20491   0.12709   0.00000  Uiso   1.00
O107   O     0.25037   0.38966   0.22176   0.00000  Uiso   1.00
O108   O     0.45491   0.20491   0.12709   0.00000  Uiso   1.00
O109   O     0.04508   0.29509   0.20625   0.00000  Uiso   1.00
O110   O     0.04508   0.29509   0.12709   0.00000  Uiso   1.00
O111   O     0.45491   0.20491   0.20625   0.00000  Uiso   1.00
O112   O     0.29508   0.45491   0.20625   0.00000  Uiso   1.00
S113   S     0.00468   0.14696   0.05480   0.00000  Uiso   1.00
S114   S     0.00468   0.35304   0.27853   0.00000  Uiso   1.00
S115   S     0.49533   0.35305   0.05480   0.00000  Uiso   1.00
S116   S     0.49532   0.14696   0.27853   0.00000  Uiso   1.00
S117   S     0.25468   0.39696   0.05480   0.00000  Uiso   1.00
S118   S     0.25468   0.10305   0.27853   0.00000  Uiso   1.00
S119   S     0.24533   0.10305   0.05480   0.00000  Uiso   1.00
S120   S     0.24532   0.39696   0.27853   0.00000  Uiso   1.00
C121   C     0.55987   0.19134   0.16675   0.00000  Uiso   1.00
C122   C     0.50027   0.29392   0.30817   0.00000  Uiso   1.00
C123   C     0.99973   0.29392   0.02516   0.00000  Uiso   1.00
C124   C     0.99973   0.20608   0.30817   0.00000  Uiso   1.00
C125   C     0.75027   0.45608   0.02516   0.00000  Uiso   1.00
C126   C     0.75027   0.04392   0.30817   0.00000  Uiso   1.00
C127   C     0.74973   0.04392   0.02516   0.00000  Uiso   1.00
C128   C     0.74973   0.45608   0.30817   0.00000  Uiso   1.00
C129   C     0.89082   0.14124   0.12444   0.00000  Uiso   1.00
C130   C     0.60991   0.35790   0.20774   0.00000  Uiso   1.00
C131   C     0.60918   0.35876   0.12444   0.00000  Uiso   1.00
C132   C     0.94013   0.30866   0.16675   0.00000  Uiso   1.00
C133   C     0.89009   0.14209   0.20774   0.00000  Uiso   1.00
C134   C     0.60918   0.14124   0.20890   0.00000  Uiso   1.00
C135   C     0.89009   0.35791   0.12559   0.00000  Uiso   1.00
C136   C     0.89082   0.35876   0.20890   0.00000  Uiso   1.00
C137   C     0.60991   0.14209   0.12559   0.00000  Uiso   1.00
C138   C     0.64082   0.39124   0.12444   0.00000  Uiso   1.00
C139   C     0.85991   0.10790   0.20774   0.00000  Uiso   1.00
C140   C     0.85918   0.10876   0.12444   0.00000  Uiso   1.00
C141   C     0.64009   0.39209   0.20774   0.00000  Uiso   1.00
C142   C     0.85918   0.39124   0.20890   0.00000  Uiso   1.00
C143   C     0.94013   0.19134   0.16658   0.00000  Uiso   1.00
C144   C     0.64009   0.10791   0.12559   0.00000  Uiso   1.00
C145   C     0.64082   0.10876   0.20890   0.00000  Uiso   1.00
C146   C     0.85991   0.39209   0.12559   0.00000  Uiso   1.00
C147   C     0.59355   0.34195   0.16622   0.00000  Uiso   1.00
C148   C     0.90645   0.15804   0.16622   0.00000  Uiso   1.00
C149   C     0.90645   0.34196   0.16711   0.00000  Uiso   1.00
C150   C     0.59355   0.15804   0.16711   0.00000  Uiso   1.00
C151   C     0.84355   0.09196   0.16622   0.00000  Uiso   1.00
C152   C     0.65645   0.40804   0.16622   0.00000  Uiso   1.00
C153   C     0.65645   0.09196   0.16711   0.00000  Uiso   1.00
C154   C     0.55987   0.30866   0.16658   0.00000  Uiso   1.00
C155   C     0.84355   0.40805   0.16711   0.00000  Uiso   1.00
C156   C     0.80987   0.44134   0.16675   0.00000  Uiso   1.00
C157   C     0.69013   0.05866   0.16675   0.00000  Uiso   1.00
C158   C     0.69013   0.44134   0.16658   0.00000  Uiso   1.00
C159   C     0.80987   0.05866   0.16658   0.00000  Uiso   1.00
C160   C     0.50027   0.20608   0.02516   0.00000  Uiso   1.00
Cu161  Cu    0.50000   0.25000   0.21355   0.00000  Uiso   1.00
Cu162  Cu    0.50000   0.25000   0.11978   0.00000  Uiso   1.00
Cu163  Cu    0.75000   0.00000   0.21355   0.00000  Uiso   1.00
Cu164  Cu    0.75000   0.00000   0.11978   0.00000  Uiso   1.00
H165   H     0.50733   0.10550   0.11786   0.00000  Uiso   1.00
H166   H     0.59950   0.34404   0.24026   0.00000  Uiso   1.00
H167   H     0.59717   0.34677   0.09180   0.00000  Uiso   1.00
H168   H     0.90051   0.15595   0.24026   0.00000  Uiso   1.00
H169   H     0.59717   0.15323   0.24153   0.00000  Uiso   1.00
H170   H     0.90051   0.34405   0.09308   0.00000  Uiso   1.00
H171   H     0.90282   0.34677   0.24153   0.00000  Uiso   1.00
H172   H     0.59950   0.15596   0.09308   0.00000  Uiso   1.00
H173   H     0.65282   0.40323   0.09180   0.00000  Uiso   1.00
H174   H     0.84950   0.09404   0.24026   0.00000  Uiso   1.00
H175   H     0.84717   0.09677   0.09180   0.00000  Uiso   1.00
H176   H     0.50739   0.39448   0.21546   0.00000  Uiso   1.00
H177   H     0.65051   0.40595   0.24026   0.00000  Uiso   1.00
H178   H     0.84717   0.40323   0.24153   0.00000  Uiso   1.00
H179   H     0.65051   0.09405   0.09308   0.00000  Uiso   1.00
H180   H     0.65282   0.09677   0.24153   0.00000  Uiso   1.00
H181   H     0.84950   0.40596   0.09308   0.00000  Uiso   1.00
H182   H     0.99267   0.39450   0.11786   0.00000  Uiso   1.00
H183   H     0.99266   0.10550   0.21547   0.00000  Uiso   1.00
H184   H     0.75733   0.35550   0.11786   0.00000  Uiso   1.00
H185   H     0.75739   0.14448   0.21546   0.00000  Uiso   1.00
H186   H     0.74267   0.14450   0.11786   0.00000  Uiso   1.00
H187   H     0.74266   0.35550   0.21547   0.00000  Uiso   1.00
H188   H     0.90282   0.15323   0.09180   0.00000  Uiso   1.00
N189   N     0.50000   0.25000   0.28402   0.00000  Uiso   1.00
N190   N     0.50000   0.25000   0.04931   0.00000  Uiso   1.00
N191   N     0.75000   0.00000   0.28402   0.00000  Uiso   1.00
N192   N     0.75000   0.00000   0.04931   0.00000  Uiso   1.00
O193   O     0.54508   0.20491   0.20625   0.00000  Uiso   1.00
O194   O     0.70491   0.04509   0.12709   0.00000  Uiso   1.00
O195   O     0.70491   0.04509   0.20625   0.00000  Uiso   1.00
O196   O     0.79508   0.45491   0.12709   0.00000  Uiso   1.00
O197   O     0.70491   0.45491   0.12709   0.00000  Uiso   1.00
O198   O     0.79508   0.04509   0.20625   0.00000  Uiso   1.00
O199   O     0.79508   0.04509   0.12709   0.00000  Uiso   1.00
O200   O     0.70491   0.45491   0.20625   0.00000  Uiso   1.00
O201   O     0.97449   0.11187   0.03631   0.00000  Uiso   1.00
O202   O     0.54566   0.12810   0.04419   0.00000  Uiso   1.00
O203   O     0.99963   0.13966   0.11157   0.00000  Uiso   1.00
O204   O     0.95491   0.29509   0.12709   0.00000  Uiso   1.00
O205   O     0.97449   0.38814   0.29703   0.00000  Uiso   1.00
O206   O     0.54566   0.37190   0.28914   0.00000  Uiso   1.00
O207   O     0.99963   0.36035   0.22176   0.00000  Uiso   1.00
O208   O     0.52551   0.38813   0.03631   0.00000  Uiso   1.00
O209   O     0.95434   0.37191   0.04419   0.00000  Uiso   1.00
O210   O     0.50037   0.36034   0.11157   0.00000  Uiso   1.00
O211   O     0.52551   0.11187   0.29703   0.00000  Uiso   1.00
O212   O     0.95434   0.12810   0.28914   0.00000  Uiso   1.00
O213   O     0.50037   0.13966   0.22176   0.00000  Uiso   1.00
O214   O     0.72449   0.36187   0.03631   0.00000  Uiso   1.00
O215   O     0.95491   0.29509   0.20625   0.00000  Uiso   1.00
O216   O     0.79566   0.37810   0.04419   0.00000  Uiso   1.00
O217   O     0.74963   0.38966   0.11157   0.00000  Uiso   1.00
O218   O     0.72449   0.13814   0.29703   0.00000  Uiso   1.00
O219   O     0.79566   0.12190   0.28914   0.00000  Uiso   1.00
O220   O     0.74963   0.11035   0.22176   0.00000  Uiso   1.00
O221   O     0.77551   0.13813   0.03631   0.00000  Uiso   1.00
O222   O     0.70434   0.12191   0.04419   0.00000  Uiso   1.00
O223   O     0.75037   0.11034   0.11157   0.00000  Uiso   1.00
O224   O     0.77551   0.36187   0.29703   0.00000  Uiso   1.00
O225   O     0.70434   0.37810   0.28914   0.00000  Uiso   1.00
O226   O     0.54508   0.20491   0.12709   0.00000  Uiso   1.00
O227   O     0.75037   0.38966   0.22176   0.00000  Uiso   1.00
O228   O     0.95491   0.20491   0.12709   0.00000  Uiso   1.00
O229   O     0.54508   0.29509   0.20625   0.00000  Uiso   1.00
O230   O     0.54508   0.29509   0.12709   0.00000  Uiso   1.00
O231   O     0.95491   0.20491   0.20625   0.00000  Uiso   1.00
O232   O     0.79508   0.45491   0.20625   0.00000  Uiso   1.00
S233   S     0.50468   0.14696   0.05480   0.00000  Uiso   1.00
S234   S     0.50468   0.35304   0.27853   0.00000  Uiso   1.00
S235   S     0.99533   0.35305   0.05480   0.00000  Uiso   1.00
S236   S     0.99532   0.14696   0.27853   0.00000  Uiso   1.00
S237   S     0.75468   0.39696   0.05480   0.00000  Uiso   1.00
S238   S     0.75468   0.10305   0.27853   0.00000  Uiso   1.00
S239   S     0.74533   0.10305   0.05480   0.00000  Uiso   1.00
S240   S     0.74532   0.39696   0.27853   0.00000  Uiso   1.00
C241   C     0.05987   0.69134   0.16675   0.00000  Uiso   1.00
C242   C     0.00027   0.79392   0.30817   0.00000  Uiso   1.00
C243   C     0.49973   0.79392   0.02516   0.00000  Uiso   1.00
C244   C     0.49973   0.70608   0.30817   0.00000  Uiso   1.00
C245   C     0.25027   0.95608   0.02516   0.00000  Uiso   1.00
C246   C     0.25027   0.54392   0.30817   0.00000  Uiso   1.00
C247   C     0.24973   0.54392   0.02516   0.00000  Uiso   1.00
C248   C     0.24973   0.95608   0.30817   0.00000  Uiso   1.00
C249   C     0.39082   0.64124   0.12444   0.00000  Uiso   1.00
C250   C     0.10991   0.85790   0.20774   0.00000  Uiso   1.00
C251   C     0.10918   0.85876   0.12444   0.00000  Uiso   1.00
C252   C     0.44013   0.80866   0.16675   0.00000  Uiso   1.00
C253   C     0.39009   0.64209   0.20774   0.00000  Uiso   1.00
C254   C     0.10918   0.64124   0.20890   0.00000  Uiso   1.00
C255   C     0.39009   0.85791   0.12559   0.00000  Uiso   1.00
C256   C     0.39082   0.85876   0.20890   0.00000  Uiso   1.00
C257   C     0.10991   0.64209   0.12559   0.00000  Uiso   1.00
C258   C     0.14082   0.89124   0.12444   0.00000  Uiso   1.00
C259   C     0.35991   0.60790   0.20774   0.00000  Uiso   1.00
C260   C     0.35918   0.60876   0.12444   0.00000  Uiso   1.00
C261   C     0.14009   0.89209   0.20774   0.00000  Uiso   1.00
C262   C     0.35918   0.89124   0.20890   0.00000  Uiso   1.00
C263   C     0.44013   0.69134   0.16658   0.00000  Uiso   1.00
C264   C     0.14009   0.60791   0.12559   0.00000  Uiso   1.00
C265   C     0.14082   0.60876   0.20890   0.00000  Uiso   1.00
C266   C     0.35991   0.89209   0.12559   0.00000  Uiso   1.00
C267   C     0.09355   0.84195   0.16622   0.00000  Uiso   1.00
C268   C     0.40645   0.65804   0.16622   0.00000  Uiso   1.00
C269   C     0.40645   0.84196   0.16711   0.00000  Uiso   1.00
C270   C     0.09355   0.65804   0.16711   0.00000  Uiso   1.00
C271   C     0.34355   0.59196   0.16622   0.00000  Uiso   1.00
C272   C     0.15645   0.90804   0.16622   0.00000  Uiso   1.00
C273   C     0.15645   0.59196   0.16711   0.00000  Uiso   1.00
C274   C     0.05987   0.80866   0.16658   0.00000  Uiso   1.00
C275   C     0.34355   0.90805   0.16711   0.00000  Uiso   1.00
C276   C     0.30987   0.94134   0.16675   0.00000  Uiso   1.00
C277   C     0.19013   0.55866   0.16675   0.00000  Uiso   1.00
C278   C     0.19013   0.94134   0.16658   0.00000  Uiso   1.00
C279   C     0.30987   0.55866   0.16658   0.00000  Uiso   1.00
C280   C     0.00027   0.70608   0.02516   0.00000  Uiso   1.00
Cu281  Cu    0.00000   0.75000   0.21355   0.00000  Uiso   1.00
Cu282  Cu    0.00000   0.75000   0.11978   0.00000  Uiso   1.00
Cu283  Cu    0.25000   0.50000   0.21355   0.00000  Uiso   1.00
Cu284  Cu    0.25000   0.50000   0.11978   0.00000  Uiso   1.00
H285   H     0.00733   0.60550   0.11786   0.00000  Uiso   1.00
H286   H     0.09950   0.84404   0.24026   0.00000  Uiso   1.00
H287   H     0.09717   0.84677   0.09180   0.00000  Uiso   1.00
H288   H     0.40051   0.65595   0.24026   0.00000  Uiso   1.00
H289   H     0.09717   0.65323   0.24153   0.00000  Uiso   1.00
H290   H     0.40051   0.84405   0.09308   0.00000  Uiso   1.00
H291   H     0.40282   0.84677   0.24153   0.00000  Uiso   1.00
H292   H     0.09950   0.65596   0.09308   0.00000  Uiso   1.00
H293   H     0.15282   0.90323   0.09180   0.00000  Uiso   1.00
H294   H     0.34950   0.59404   0.24026   0.00000  Uiso   1.00
H295   H     0.34717   0.59677   0.09180   0.00000  Uiso   1.00
H296   H     0.00739   0.89448   0.21546   0.00000  Uiso   1.00
H297   H     0.15051   0.90595   0.24026   0.00000  Uiso   1.00
H298   H     0.34717   0.90323   0.24153   0.00000  Uiso   1.00
H299   H     0.15051   0.59405   0.09308   0.00000  Uiso   1.00
H300   H     0.15282   0.59677   0.24153   0.00000  Uiso   1.00
H301   H     0.34950   0.90596   0.09308   0.00000  Uiso   1.00
H302   H     0.49267   0.89450   0.11786   0.00000  Uiso   1.00
H303   H     0.49266   0.60550   0.21547   0.00000  Uiso   1.00
H304   H     0.25733   0.85550   0.11786   0.00000  Uiso   1.00
H305   H     0.25739   0.64448   0.21546   0.00000  Uiso   1.00
H306   H     0.24267   0.64450   0.11786   0.00000  Uiso   1.00
H307   H     0.24266   0.85550   0.21547   0.00000  Uiso   1.00
H308   H     0.40282   0.65323   0.09180   0.00000  Uiso   1.00
N309   N     0.00000   0.75000   0.28402   0.00000  Uiso   1.00
N310   N    -0.00000   0.75000   0.04931   0.00000  Uiso   1.00
N311   N     0.25000   0.50000   0.28402   0.00000  Uiso   1.00
N312   N     0.25000   0.50000   0.04931   0.00000  Uiso   1.00
O313   O     0.04508   0.70491   0.20625   0.00000  Uiso   1.00
O314   O     0.20491   0.54509   0.12709   0.00000  Uiso   1.00
O315   O     0.20491   0.54509   0.20625   0.00000  Uiso   1.00
O316   O     0.29508   0.95491   0.12709   0.00000  Uiso   1.00
O317   O     0.20491   0.95491   0.12709   0.00000  Uiso   1.00
O318   O     0.29508   0.54509   0.20625   0.00000  Uiso   1.00
O319   O     0.29508   0.54509   0.12709   0.00000  Uiso   1.00
O320   O     0.20491   0.95491   0.20625   0.00000  Uiso   1.00
O321   O     0.47449   0.61187   0.03631   0.00000  Uiso   1.00
O322   O     0.04566   0.62810   0.04419   0.00000  Uiso   1.00
O323   O     0.49963   0.63966   0.11157   0.00000  Uiso   1.00
O324   O     0.45491   0.79509   0.12709   0.00000  Uiso   1.00
O325   O     0.47449   0.88814   0.29703   0.00000  Uiso   1.00
O326   O     0.04566   0.87190   0.28914   0.00000  Uiso   1.00
O327   O     0.49963   0.86035   0.22176   0.00000  Uiso   1.00
O328   O     0.02551   0.88813   0.03631   0.00000  Uiso   1.00
O329   O     0.45434   0.87191   0.04419   0.00000  Uiso   1.00
O330   O     0.00037   0.86034   0.11157   0.00000  Uiso   1.00
O331   O     0.02551   0.61187   0.29703   0.00000  Uiso   1.00
O332   O     0.45434   0.62810   0.28914   0.00000  Uiso   1.00
O333   O     0.00037   0.63966   0.22176   0.00000  Uiso   1.00
O334   O     0.22449   0.86187   0.03631   0.00000  Uiso   1.00
O335   O     0.45491   0.79509   0.20625   0.00000  Uiso   1.00
O336   O     0.29566   0.87810   0.04419   0.00000  Uiso   1.00
O337   O     0.24963   0.88966   0.11157   0.00000  Uiso   1.00
O338   O     0.22449   0.63814   0.29703   0.00000  Uiso   1.00
O339   O     0.29566   0.62190   0.28914   0.00000  Uiso   1.00
O340   O     0.24963   0.61035   0.22176   0.00000  Uiso   1.00
O341   O     0.27551   0.63813   0.03631   0.00000  Uiso   1.00
O342   O     0.20434   0.62191   0.04419   0.00000  Uiso   1.00
O343   O     0.25037   0.61034   0.11157   0.00000  Uiso   1.00
O344   O     0.27551   0.86187   0.29703   0.00000  Uiso   1.00
O345   O     0.20434   0.87810   0.28914   0.00000  Uiso   1.00
O346   O     0.04508   0.70491   0.12709   0.00000  Uiso   1.00
O347   O     0.25037   0.88966   0.22176   0.00000  Uiso   1.00
O348   O     0.45491   0.70491   0.12709   0.00000  Uiso   1.00
O349   O     0.04508   0.79509   0.20625   0.00000  Uiso   1.00
O350   O     0.04508   0.79509   0.12709   0.00000  Uiso   1.00
O351   O     0.45491   0.70491   0.20625   0.00000  Uiso   1.00
O352   O     0.29508   0.95491   0.20625   0.00000  Uiso   1.00
S353   S     0.00468   0.64696   0.05480   0.00000  Uiso   1.00
S354   S     0.00468   0.85304   0.27853   0.00000  Uiso   1.00
S355   S     0.49533   0.85305   0.05480   0.00000  Uiso   1.00
S356   S     0.49532   0.64696   0.27853   0.00000  Uiso   1.00
S357   S     0.25468   0.89696   0.05480   0.00000  Uiso   1.00
S358   S     0.25468   0.60305   0.27853   0.00000  Uiso   1.00
S359   S     0.24533   0.60305   0.05480   0.00000  Uiso   1.00
S360   S     0.24532   0.89696   0.27853   0.00000  Uiso   1.00
C361   C     0.55987   0.69134   0.16675   0.00000  Uiso   1.00
C362   C     0.50027   0.79392   0.30817   0.00000  Uiso   1.00
C363   C     0.99973   0.79392   0.02516   0.00000  Uiso   1.00
C364   C     0.99973   0.70608   0.30817   0.00000  Uiso   1.00
C365   C     0.75027   0.95608   0.02516   0.00000  Uiso   1.00
C366   C     0.75027   0.54392   0.30817   0.00000  Uiso   1.00
C367   C     0.74973   0.54392   0.02516   0.00000  Uiso   1.00
C368   C     0.74973   0.95608   0.30817   0.00000  Uiso   1.00
C369   C     0.89082   0.64124   0.12444   0.00000  Uiso   1.00
C370   C     0.60991   0.85790   0.20774   0.00000  Uiso   1.00
C371   C     0.60918   0.85876   0.12444   0.00000  Uiso   1.00
C372   C     0.94013   0.80866   0.16675   0.00000  Uiso   1.00
C373   C     0.89009   0.64209   0.20774   0.00000  Uiso   1.00
C374   C     0.60918   0.64124   0.20890   0.00000  Uiso   1.00
C375   C     0.89009   0.85791   0.12559   0.00000  Uiso   1.00
C376   C     0.89082   0.85876   0.20890   0.00000  Uiso   1.00
C377   C     0.60991   0.64209   0.12559   0.00000  Uiso   1.00
C378   C     0.64082   0.89124   0.12444   0.00000  Uiso   1.00
C379   C     0.85991   0.60790   0.20774   0.00000  Uiso   1.00
C380   C     0.85918   0.60876   0.12444   0.00000  Uiso   1.00
C381   C     0.64009   0.89209   0.20774   0.00000  Uiso   1.00
C382   C     0.85918   0.89124   0.20890   0.00000  Uiso   1.00
C383   C     0.94013   0.69134   0.16658   0.00000  Uiso   1.00
C384   C     0.64009   0.60791   0.12559   0.00000  Uiso   1.00
C385   C     0.64082   0.60876   0.20890   0.00000  Uiso   1.00
C386   C     0.85991   0.89209   0.12559   0.00000  Uiso   1.00
C387   C     0.59355   0.84195   0.16622   0.00000  Uiso   1.00
C388   C     0.90645   0.65804   0.16622   0.00000  Uiso   1.00
C389   C     0.90645   0.84196   0.16711   0.00000  Uiso   1.00
C390   C     0.59355   0.65804   0.16711   0.00000  Uiso   1.00
C391   C     0.84355   0.59196   0.16622   0.00000  Uiso   1.00
C392   C     0.65645   0.90804   0.16622   0.00000  Uiso   1.00
C393   C     0.65645   0.59196   0.16711   0.00000  Uiso   1.00
C394   C     0.55987   0.80866   0.16658   0.00000  Uiso   1.00
C395   C     0.84355   0.90805   0.16711   0.00000  Uiso   1.00
C396   C     0.80987   0.94134   0.16675   0.00000  Uiso   1.00
C397   C     0.69013   0.55866   0.16675   0.00000  Uiso   1.00
C398   C     0.69013   0.94134   0.16658   0.00000  Uiso   1.00
C399   C     0.80987   0.55866   0.16658   0.00000  Uiso   1.00
C400   C     0.50027   0.70608   0.02516   0.00000  Uiso   1.00
Cu401  Cu    0.50000   0.75000   0.21355   0.00000  Uiso   1.00
Cu402  Cu    0.50000   0.75000   0.11978   0.00000  Uiso   1.00
Cu403  Cu    0.75000   0.50000   0.21355   0.00000  Uiso   1.00
Cu404  Cu    0.75000   0.50000   0.11978   0.00000  Uiso   1.00
H405   H     0.50733   0.60550   0.11786   0.00000  Uiso   1.00
H406   H     0.59950   0.84404   0.24026   0.00000  Uiso   1.00
H407   H     0.59717   0.84677   0.09180   0.00000  Uiso   1.00
H408   H     0.90051   0.65595   0.24026   0.00000  Uiso   1.00
H409   H     0.59717   0.65323   0.24153   0.00000  Uiso   1.00
H410   H     0.90051   0.84405   0.09308   0.00000  Uiso   1.00
H411   H     0.90282   0.84677   0.24153   0.00000  Uiso   1.00
H412   H     0.59950   0.65596   0.09308   0.00000  Uiso   1.00
H413   H     0.65282   0.90323   0.09180   0.00000  Uiso   1.00
H414   H     0.84950   0.59404   0.24026   0.00000  Uiso   1.00
H415   H     0.84717   0.59677   0.09180   0.00000  Uiso   1.00
H416   H     0.50739   0.89448   0.21546   0.00000  Uiso   1.00
H417   H     0.65051   0.90595   0.24026   0.00000  Uiso   1.00
H418   H     0.84717   0.90323   0.24153   0.00000  Uiso   1.00
H419   H     0.65051   0.59405   0.09308   0.00000  Uiso   1.00
H420   H     0.65282   0.59677   0.24153   0.00000  Uiso   1.00
H421   H     0.84950   0.90596   0.09308   0.00000  Uiso   1.00
H422   H     0.99267   0.89450   0.11786   0.00000  Uiso   1.00
H423   H     0.99266   0.60550   0.21547   0.00000  Uiso   1.00
H424   H     0.75733   0.85550   0.11786   0.00000  Uiso   1.00
H425   H     0.75739   0.64448   0.21546   0.00000  Uiso   1.00
H426   H     0.74267   0.64450   0.11786   0.00000  Uiso   1.00
H427   H     0.74266   0.85550   0.21547   0.00000  Uiso   1.00
H428   H     0.90282   0.65323   0.09180   0.00000  Uiso   1.00
N429   N     0.50000   0.75000   0.28402   0.00000  Uiso   1.00
N430   N     0.50000   0.75000   0.04931   0.00000  Uiso   1.00
N431   N     0.75000   0.50000   0.28402   0.00000  Uiso   1.00
N432   N     0.75000   0.50000   0.04931   0.00000  Uiso   1.00
O433   O     0.54508   0.70491   0.20625   0.00000  Uiso   1.00
O434   O     0.70491   0.54509   0.12709   0.00000  Uiso   1.00
O435   O     0.70491   0.54509   0.20625   0.00000  Uiso   1.00
O436   O     0.79508   0.95491   0.12709   0.00000  Uiso   1.00
O437   O     0.70491   0.95491   0.12709   0.00000  Uiso   1.00
O438   O     0.79508   0.54509   0.20625   0.00000  Uiso   1.00
O439   O     0.79508   0.54509   0.12709   0.00000  Uiso   1.00
O440   O     0.70491   0.95491   0.20625   0.00000  Uiso   1.00
O441   O     0.97449   0.61187   0.03631   0.00000  Uiso   1.00
O442   O     0.54566   0.62810   0.04419   0.00000  Uiso   1.00
O443   O     0.99963   0.63966   0.11157   0.00000  Uiso   1.00
O444   O     0.95491   0.79509   0.12709   0.00000  Uiso   1.00
O445   O     0.97449   0.88814   0.29703   0.00000  Uiso   1.00
O446   O     0.54566   0.87190   0.28914   0.00000  Uiso   1.00
O447   O     0.99963   0.86035   0.22176   0.00000  Uiso   1.00
O448   O     0.52551   0.88813   0.03631   0.00000  Uiso   1.00
O449   O     0.95434   0.87191   0.04419   0.00000  Uiso   1.00
O450   O     0.50037   0.86034   0.11157   0.00000  Uiso   1.00
O451   O     0.52551   0.61187   0.29703   0.00000  Uiso   1.00
O452   O     0.95434   0.62810   0.28914   0.00000  Uiso   1.00
O453   O     0.50037   0.63966   0.22176   0.00000  Uiso   1.00
O454   O     0.72449   0.86187   0.03631   0.00000  Uiso   1.00
O455   O     0.95491   0.79509   0.20625   0.00000  Uiso   1.00
O456   O     0.79566   0.87810   0.04419   0.00000  Uiso   1.00
O457   O     0.74963   0.88966   0.11157   0.00000  Uiso   1.00
O458   O     0.72449   0.63814   0.29703   0.00000  Uiso   1.00
O459   O     0.79566   0.62190   0.28914   0.00000  Uiso   1.00
O460   O     0.74963   0.61035   0.22176   0.00000  Uiso   1.00
O461   O     0.77551   0.63813   0.03631   0.00000  Uiso   1.00
O462   O     0.70434   0.62191   0.04419   0.00000  Uiso   1.00
O463   O     0.75037   0.61034   0.11157   0.00000  Uiso   1.00
O464   O     0.77551   0.86187   0.29703   0.00000  Uiso   1.00
O465   O     0.70434   0.87810   0.28914   0.00000  Uiso   1.00
O466   O     0.54508   0.70491   0.12709   0.00000  Uiso   1.00
O467   O     0.75037   0.88966   0.22176   0.00000  Uiso   1.00
O468   O     0.95491   0.70491   0.12709   0.00000  Uiso   1.00
O469   O     0.54508   0.79509   0.20625   0.00000  Uiso   1.00
O470   O     0.54508   0.79509   0.12709   0.00000  Uiso   1.00
O471   O     0.95491   0.70491   0.20625   0.00000  Uiso   1.00
O472   O     0.79508   0.95491   0.20625   0.00000  Uiso   1.00
S473   S     0.50468   0.64696   0.05480   0.00000  Uiso   1.00
S474   S     0.50468   0.85304   0.27853   0.00000  Uiso   1.00
S475   S     0.99533   0.85305   0.05480   0.00000  Uiso   1.00
S476   S     0.99532   0.64696   0.27853   0.00000  Uiso   1.00
S477   S     0.75468   0.89696   0.05480   0.00000  Uiso   1.00
S478   S     0.75468   0.60305   0.27853   0.00000  Uiso   1.00
S479   S     0.74533   0.60305   0.05480   0.00000  Uiso   1.00
S480   S     0.74532   0.89696   0.27853   0.00000  Uiso   1.00
C481   C     0.05987   0.19134   0.50008   0.00000  Uiso   1.00
C482   C     0.00027   0.29392   0.64151   0.00000  Uiso   1.00
C483   C     0.49973   0.29392   0.35849   0.00000  Uiso   1.00
C484   C     0.49973   0.20608   0.64151   0.00000  Uiso   1.00
C485   C     0.25027   0.45608   0.35849   0.00000  Uiso   1.00
C486   C     0.25027   0.04392   0.64151   0.00000  Uiso   1.00
C487   C     0.24973   0.04392   0.35849   0.00000  Uiso   1.00
C488   C     0.24973   0.45608   0.64151   0.00000  Uiso   1.00
C489   C     0.39082   0.14124   0.45777   0.00000  Uiso   1.00
C490   C     0.10991   0.35790   0.54107   0.00000  Uiso   1.00
C491   C     0.10918   0.35876   0.45777   0.00000  Uiso   1.00
C492   C     0.44013   0.30866   0.50008   0.00000  Uiso   1.00
C493   C     0.39009   0.14209   0.54107   0.00000  Uiso   1.00
C494   C     0.10918   0.14124   0.54223   0.00000  Uiso   1.00
C495   C     0.39009   0.35791   0.45893   0.00000  Uiso   1.00
C496   C     0.39082   0.35876   0.54223   0.00000  Uiso   1.00
C497   C     0.10991   0.14209   0.45893   0.00000  Uiso   1.00
C498   C     0.14082   0.39124   0.45777   0.00000  Uiso   1.00
C499   C     0.35991   0.10790   0.54107   0.00000  Uiso   1.00
C500   C     0.35918   0.10876   0.45777   0.00000  Uiso   1.00
C501   C     0.14009   0.39209   0.54107   0.00000  Uiso   1.00
C502   C     0.35918   0.39124   0.54223   0.00000  Uiso   1.00
C503   C     0.44013   0.19134   0.49992   0.00000  Uiso   1.00
C504   C     0.14009   0.10791   0.45893   0.00000  Uiso   1.00
C505   C     0.14082   0.10876   0.54223   0.00000  Uiso   1.00
C506   C     0.35991   0.39209   0.45893   0.00000  Uiso   1.00
C507   C     0.09355   0.34195   0.49955   0.00000  Uiso   1.00
C508   C     0.40645   0.15804   0.49955   0.00000  Uiso   1.00
C509   C     0.40645   0.34196   0.50045   0.00000  Uiso   1.00
C510   C     0.09355   0.15804   0.50045   0.00000  Uiso   1.00
C511   C     0.34355   0.09196   0.49955   0.00000  Uiso   1.00
C512   C     0.15645   0.40804   0.49955   0.00000  Uiso   1.00
C513   C     0.15645   0.09196   0.50045   0.00000  Uiso   1.00
C514   C     0.05987   0.30866   0.49992   0.00000  Uiso   1.00
C515   C     0.34355   0.40805   0.50045   0.00000  Uiso   1.00
C516   C     0.30987   0.44134   0.50008   0.00000  Uiso   1.00
C517   C     0.19013   0.05866   0.50008   0.00000  Uiso   1.00
C518   C     0.19013   0.44134   0.49992   0.00000  Uiso   1.00
C519   C     0.30987   0.05866   0.49992   0.00000  Uiso   1.00
C520   C     0.00027   0.20608   0.35849   0.00000  Uiso   1.00
Cu521  Cu    0.00000   0.25000   0.54689   0.00000  Uiso   1.00
Cu522  Cu    0.00000   0.25000   0.45311   0.00000  Uiso   1.00
Cu523  Cu    0.25000   0.00000   0.54689   0.00000  Uiso   1.00
Cu524  Cu    0.25000   0.00000   0.45311   0.00000  Uiso   1.00
H525   H     0.00733   0.10550   0.45119   0.00000  Uiso   1.00
H526   H     0.09950   0.34404   0.57359   0.00000  Uiso   1.00
H527   H     0.09717   0.34677   0.42514   0.00000  Uiso   1.00
H528   H     0.40051   0.15595   0.57359   0.00000  Uiso   1.00
H529   H     0.09717   0.15323   0.57486   0.00000  Uiso   1.00
H530   H     0.40051   0.34405   0.42641   0.00000  Uiso   1.00
H531   H     0.40282   0.34677   0.57486   0.00000  Uiso   1.00
H532   H     0.09950   0.15596   0.42641   0.00000  Uiso   1.00
H533   H     0.15282   0.40323   0.42514   0.00000  Uiso   1.00
H534   H     0.34950   0.09404   0.57359   0.00000  Uiso   1.00
H535   H     0.34717   0.09677   0.42514   0.00000  Uiso   1.00
H536   H     0.00739   0.39448   0.54880   0.00000  Uiso   1.00
H537   H     0.15051   0.40595   0.57359   0.00000  Uiso   1.00
H538   H     0.34717   0.40323   0.57486   0.00000  Uiso   1.00
H539   H     0.15051   0.09405   0.42641   0.00000  Uiso   1.00
H540   H     0.15282   0.09677   0.57486   0.00000  Uiso   1.00
H541   H     0.34950   0.40596   0.42641   0.00000  Uiso   1.00
H542   H     0.49267   0.39450   0.45119   0.00000  Uiso   1.00
H543   H     0.49266   0.10550   0.54880   0.00000  Uiso   1.00
H544   H     0.25733   0.35550   0.45119   0.00000  Uiso   1.00
H545   H     0.25739   0.14448   0.54880   0.00000  Uiso   1.00
H546   H     0.24267   0.14450   0.45119   0.00000  Uiso   1.00
H547   H     0.24266   0.35550   0.54880   0.00000  Uiso   1.00
H548   H     0.40282   0.15323   0.42514   0.00000  Uiso   1.00
N549   N     0.00000   0.25000   0.61736   0.00000  Uiso   1.00
N550   N    -0.00000   0.25000   0.38264   0.00000  Uiso   1.00
N551   N     0.25000   0.00000   0.61736   0.00000  Uiso   1.00
N552   N     0.25000   0.00000   0.38264   0.00000  Uiso   1.00
O553   O     0.04508   0.20491   0.53958   0.00000  Uiso   1.00
O554   O     0.20491   0.04509   0.46042   0.00000  Uiso   1.00
O555   O     0.20491   0.04509   0.53958   0.00000  Uiso   1.00
O556   O     0.29508   0.45491   0.46042   0.00000  Uiso   1.00
O557   O     0.20491   0.45491   0.46042   0.00000  Uiso   1.00
O558   O     0.29508   0.04509   0.53958   0.00000  Uiso   1.00
O559   O     0.29508   0.04509   0.46042   0.00000  Uiso   1.00
O560   O     0.20491   0.45491   0.53958   0.00000  Uiso   1.00
O561   O     0.47449   0.11187   0.36964   0.00000  Uiso   1.00
O562   O     0.04566   0.12810   0.37752   0.00000  Uiso   1.00
O563   O     0.49963   0.13966   0.44490   0.00000  Uiso   1.00
O564   O     0.45491   0.29509   0.46042   0.00000  Uiso   1.00
O565   O     0.47449   0.38814   0.63036   0.00000  Uiso   1.00
O566   O     0.04566   0.37190   0.62248   0.00000  Uiso   1.00
O567   O     0.49963   0.36035   0.55510   0.00000  Uiso   1.00
O568   O     0.02551   0.38813   0.36964   0.00000  Uiso   1.00
O569   O     0.45434   0.37191   0.37752   0.00000  Uiso   1.00
O570   O     0.00037   0.36034   0.44490   0.00000  Uiso   1.00
O571   O     0.02551   0.11187   0.63036   0.00000  Uiso   1.00
O572   O     0.45434   0.12810   0.62248   0.00000  Uiso   1.00
O573   O     0.00037   0.13966   0.55510   0.00000  Uiso   1.00
O574   O     0.22449   0.36187   0.36964   0.00000  Uiso   1.00
O575   O     0.45491   0.29509   0.53958   0.00000  Uiso   1.00
O576   O     0.29566   0.37810   0.37752   0.00000  Uiso   1.00
O577   O     0.24963   0.38966   0.44490   0.00000  Uiso   1.00
O578   O     0.22449   0.13814   0.63036   0.00000  Uiso   1.00
O579   O     0.29566   0.12190   0.62248   0.00000  Uiso   1.00
O580   O     0.24963   0.11035   0.55510   0.00000  Uiso   1.00
O581   O     0.27551   0.13813   0.36964   0.00000  Uiso   1.00
O582   O     0.20434   0.12191   0.37752   0.00000  Uiso   1.00
O583   O     0.25037   0.11034   0.44490   0.00000  Uiso   1.00
O584   O     0.27551   0.36187   0.63036   0.00000  Uiso   1.00
O585   O     0.20434   0.37810   0.62248   0.00000  Uiso   1.00
O586   O     0.04508   0.20491   0.46042   0.00000  Uiso   1.00
O587   O     0.25037   0.38966   0.55510   0.00000  Uiso   1.00
O588   O     0.45491   0.20491   0.46042   0.00000  Uiso   1.00
O589   O     0.04508   0.29509   0.53958   0.00000  Uiso   1.00
O590   O     0.04508   0.29509   0.46042   0.00000  Uiso   1.00
O591   O     0.45491   0.20491   0.53958   0.00000  Uiso   1.00
O592   O     0.29508   0.45491   0.53958   0.00000  Uiso   1.00
S593   S     0.00468   0.14696   0.38814   0.00000  Uiso   1.00
S594   S     0.00468   0.35304   0.61186   0.00000  Uiso   1.00
S595   S     0.49533   0.35305   0.38814   0.00000  Uiso   1.00
S596   S     0.49532   0.14696   0.61186   0.00000  Uiso   1.00
S597   S     0.25468   0.39696   0.38814   0.00000  Uiso   1.00
S598   S     0.25468   0.10305   0.61186   0.00000  Uiso   1.00
S599   S     0.24533   0.10305   0.38814   0.00000  Uiso   1.00
S600   S     0.24532   0.39696   0.61186   0.00000  Uiso   1.00
C601   C     0.55987   0.19134   0.50008   0.00000  Uiso   1.00
C602   C     0.50027   0.29392   0.64151   0.00000  Uiso   1.00
C603   C     0.99973   0.29392   0.35849   0.00000  Uiso   1.00
C604   C     0.99973   0.20608   0.64151   0.00000  Uiso   1.00
C605   C     0.75027   0.45608   0.35849   0.00000  Uiso   1.00
C606   C     0.75027   0.04392   0.64151   0.00000  Uiso   1.00
C607   C     0.74973   0.04392   0.35849   0.00000  Uiso   1.00
C608   C     0.74973   0.45608   0.64151   0.00000  Uiso   1.00
C609   C     0.89082   0.14124   0.45777   0.00000  Uiso   1.00
C610   C     0.60991   0.35790   0.54107   0.00000  Uiso   1.00
C611   C     0.60918   0.35876   0.45777   0.00000  Uiso   1.00
C612   C     0.94013   0.30866   0.50008   0.00000  Uiso   1.00
C613   C     0.89009   0.14209   0.54107   0.00000  Uiso   1.00
C614   C     0.60918   0.14124   0.54223   0.00000  Uiso   1.00
C615   C     0.89009   0.35791   0.45893   0.00000  Uiso   1.00
C616   C     0.89082   0.35876   0.54223   0.00000  Uiso   1.00
C617   C     0.60991   0.14209   0.45893   0.00000  Uiso   1.00
C618   C     0.64082   0.39124   0.45777   0.00000  Uiso   1.00
C619   C     0.85991   0.10790   0.54107   0.00000  Uiso   1.00
C620   C     0.85918   0.10876   0.45777   0.00000  Uiso   1.00
C621   C     0.64009   0.39209   0.54107   0.00000  Uiso   1.00
C622   C     0.85918   0.39124   0.54223   0.00000  Uiso   1.00
C623   C     0.94013   0.19134   0.49992   0.00000  Uiso   1.00
C624   C     0.64009   0.10791   0.45893   0.00000  Uiso   1.00
C625   C     0.64082   0.10876   0.54223   0.00000  Uiso   1.00
C626   C     0.85991   0.39209   0.45893   0.00000  Uiso   1.00
C627   C     0.59355   0.34195   0.49955   0.00000  Uiso   1.00
C628   C     0.90645   0.15804   0.49955   0.00000  Uiso   1.00
C629   C     0.90645   0.34196   0.50045   0.00000  Uiso   1.00
C630   C     0.59355   0.15804   0.50045   0.00000  Uiso   1.00
C631   C     0.84355   0.09196   0.49955   0.00000  Uiso   1.00
C632   C     0.65645   0.40804   0.49955   0.00000  Uiso   1.00
C633   C     0.65645   0.09196   0.50045   0.00000  Uiso   1.00
C634   C     0.55987   0.30866   0.49992   0.00000  Uiso   1.00
C635   C     0.84355   0.40805   0.50045   0.00000  Uiso   1.00
C636   C     0.80987   0.44134   0.50008   0.00000  Uiso   1.00
C637   C     0.69013   0.05866   0.50008   0.00000  Uiso   1.00
C638   C     0.69013   0.44134   0.49992   0.00000  Uiso   1.00
C639   C     0.80987   0.05866   0.49992   0.00000  Uiso   1.00
C640   C     0.50027   0.20608   0.35849   0.00000  Uiso   1.00
Cu641  Cu    0.50000   0.25000   0.54689   0.00000  Uiso   1.00
Cu642  Cu    0.50000   0.25000   0.45311   0.00000  Uiso   1.00
Cu643  Cu    0.75000   0.00000   0.54689   0.00000  Uiso   1.00
Cu644  Cu    0.75000   0.00000   0.45311   0.00000  Uiso   1.00
H645   H     0.50733   0.10550   0.45119   0.00000  Uiso   1.00
H646   H     0.59950   0.34404   0.57359   0.00000  Uiso   1.00
H647   H     0.59717   0.34677   0.42514   0.00000  Uiso   1.00
H648   H     0.90051   0.15595   0.57359   0.00000  Uiso   1.00
H649   H     0.59717   0.15323   0.57486   0.00000  Uiso   1.00
H650   H     0.90051   0.34405   0.42641   0.00000  Uiso   1.00
H651   H     0.90282   0.34677   0.57486   0.00000  Uiso   1.00
H652   H     0.59950   0.15596   0.42641   0.00000  Uiso   1.00
H653   H     0.65282   0.40323   0.42514   0.00000  Uiso   1.00
H654   H     0.84950   0.09404   0.57359   0.00000  Uiso   1.00
H655   H     0.84717   0.09677   0.42514   0.00000  Uiso   1.00
H656   H     0.50739   0.39448   0.54880   0.00000  Uiso   1.00
H657   H     0.65051   0.40595   0.57359   0.00000  Uiso   1.00
H658   H     0.84717   0.40323   0.57486   0.00000  Uiso   1.00
H659   H     0.65051   0.09405   0.42641   0.00000  Uiso   1.00
H660   H     0.65282   0.09677   0.57486   0.00000  Uiso   1.00
H661   H     0.84950   0.40596   0.42641   0.00000  Uiso   1.00
H662   H     0.99267   0.39450   0.45119   0.00000  Uiso   1.00
H663   H     0.99266   0.10550   0.54880   0.00000  Uiso   1.00
H664   H     0.75733   0.35550   0.45119   0.00000  Uiso   1.00
H665   H     0.75739   0.14448   0.54880   0.00000  Uiso   1.00
H666   H     0.74267   0.14450   0.45119   0.00000  Uiso   1.00
H667   H     0.74266   0.35550   0.54880   0.00000  Uiso   1.00
H668   H     0.90282   0.15323   0.42514   0.00000  Uiso   1.00
N669   N     0.50000   0.25000   0.61736   0.00000  Uiso   1.00
N670   N     0.50000   0.25000   0.38264   0.00000  Uiso   1.00
N671   N     0.75000   0.00000   0.61736   0.00000  Uiso   1.00
N672   N     0.75000   0.00000   0.38264   0.00000  Uiso   1.00
O673   O     0.54508   0.20491   0.53958   0.00000  Uiso   1.00
O674   O     0.70491   0.04509   0.46042   0.00000  Uiso   1.00
O675   O     0.70491   0.04509   0.53958   0.00000  Uiso   1.00
O676   O     0.79508   0.45491   0.46042   0.00000  Uiso   1.00
O677   O     0.70491   0.45491   0.46042   0.00000  Uiso   1.00
O678   O     0.79508   0.04509   0.53958   0.00000  Uiso   1.00
O679   O     0.79508   0.04509   0.46042   0.00000  Uiso   1.00
O680   O     0.70491   0.45491   0.53958   0.00000  Uiso   1.00
O681   O     0.97449   0.11187   0.36964   0.00000  Uiso   1.00
O682   O     0.54566   0.12810   0.37752   0.00000  Uiso   1.00
O683   O     0.99963   0.13966   0.44490   0.00000  Uiso   1.00
O684   O     0.95491   0.29509   0.46042   0.00000  Uiso   1.00
O685   O     0.97449   0.38814   0.63036   0.00000  Uiso   1.00
O686   O     0.54566   0.37190   0.62248   0.00000  Uiso   1.00
O687   O     0.99963   0.36035   0.55510   0.00000  Uiso   1.00
O688   O     0.52551   0.38813   0.36964   0.00000  Uiso   1.00
O689   O     0.95434   0.37191   0.37752   0.00000  Uiso   1.00
O690   O     0.50037   0.36034   0.44490   0.00000  Uiso   1.00
O691   O     0.52551   0.11187   0.63036   0.00000  Uiso   1.00
O692   O     0.95434   0.12810   0.62248   0.00000  Uiso   1.00
O693   O     0.50037   0.13966   0.55510   0.00000  Uiso   1.00
O694   O     0.72449   0.36187   0.36964   0.00000  Uiso   1.00
O695   O     0.95491   0.29509   0.53958   0.00000  Uiso   1.00
O696   O     0.79566   0.37810   0.37752   0.00000  Uiso   1.00
O697   O     0.74963   0.38966   0.44490   0.00000  Uiso   1.00
O698   O     0.72449   0.13814   0.63036   0.00000  Uiso   1.00
O699   O     0.79566   0.12190   0.62248   0.00000  Uiso   1.00
O700   O     0.74963   0.11035   0.55510   0.00000  Uiso   1.00
O701   O     0.77551   0.13813   0.36964   0.00000  Uiso   1.00
O702   O     0.70434   0.12191   0.37752   0.00000  Uiso   1.00
O703   O     0.75037   0.11034   0.44490   0.00000  Uiso   1.00
O704   O     0.77551   0.36187   0.63036   0.00000  Uiso   1.00
O705   O     0.70434   0.37810   0.62248   0.00000  Uiso   1.00
O706   O     0.54508   0.20491   0.46042   0.00000  Uiso   1.00
O707   O     0.75037   0.38966   0.55510   0.00000  Uiso   1.00
O708   O     0.95491   0.20491   0.46042   0.00000  Uiso   1.00
O709   O     0.54508   0.29509   0.53958   0.00000  Uiso   1.00
O710   O     0.54508   0.29509   0.46042   0.00000  Uiso   1.00
O711   O     0.95491   0.20491   0.53958   0.00000  Uiso   1.00
O712   O     0.79508   0.45491   0.53958   0.00000  Uiso   1.00
S713   S     0.50468   0.14696   0.38814   0.00000  Uiso   1.00
S714   S     0.50468   0.35304   0.61186   0.00000  Uiso   1.00
S715   S     0.99533   0.35305   0.38814   0.00000  Uiso   1.00
S716   S     0.99532   0.14696   0.61186   0.00000  Uiso   1.00
S717   S     0.75468   0.39696   0.38814   0.00000  Uiso   1.00
S718   S     0.75468   0.10305   0.61186   0.00000  Uiso   1.00
S719   S     0.74533   0.10305   0.38814   0.00000  Uiso   1.00
S720   S     0.74532   0.39696   0.61186   0.00000  Uiso   1.00
C721   C     0.05987   0.69134   0.50008   0.00000  Uiso   1.00
C722   C     0.00027   0.79392   0.64151   0.00000  Uiso   1.00
C723   C     0.49973   0.79392   0.35849   0.00000  Uiso   1.00
C724   C     0.49973   0.70608   0.64151   0.00000  Uiso   1.00
C725   C     0.25027   0.95608   0.35849   0.00000  Uiso   1.00
C726   C     0.25027   0.54392   0.64151   0.00000  Uiso   1.00
C727   C     0.24973   0.54392   0.35849   0.00000  Uiso   1.00
C728   C     0.24973   0.95608   0.64151   0.00000  Uiso   1.00
C729   C     0.39082   0.64124   0.45777   0.00000  Uiso   1.00
C730   C     0.10991   0.85790   0.54107   0.00000  Uiso   1.00
C731   C     0.10918   0.85876   0.45777   0.00000  Uiso   1.00
C732   C     0.44013   0.80866   0.50008   0.00000  Uiso   1.00
C733   C     0.39009   0.64209   0.54107   0.00000  Uiso   1.00
C734   C     0.10918   0.64124   0.54223   0.00000  Uiso   1.00
C735   C     0.39009   0.85791   0.45893   0.00000  Uiso   1.00
C736   C     0.39082   0.85876   0.54223   0.00000  Uiso   1.00
C737   C     0.10991   0.64209   0.45893   0.00000  Uiso   1.00
C738   C     0.14082   0.89124   0.45777   0.00000  Uiso   1.00
C739   C     0.35991   0.60790   0.54107   0.00000  Uiso   1.00
C740   C     0.35918   0.60876   0.45777   0.00000  Uiso   1.00
C741   C     0.14009   0.89209   0.54107   0.00000  Uiso   1.00
C742   C     0.35918   0.89124   0.54223   0.00000  Uiso   1.00
C743   C     0.44013   0.69134   0.49992   0.00000  Uiso   1.00
C744   C     0.14009   0.60791   0.45893   0.00000  Uiso   1.00
C745   C     0.14082   0.60876   0.54223   0.00000  Uiso   1.00
C746   C     0.35991   0.89209   0.45893   0.00000  Uiso   1.00
C747   C     0.09355   0.84195   0.49955   0.00000  Uiso   1.00
C748   C     0.40645   0.65804   0.49955   0.00000  Uiso   1.00
C749   C     0.40645   0.84196   0.50045   0.00000  Uiso   1.00
C750   C     0.09355   0.65804   0.50045   0.00000  Uiso   1.00
C751   C     0.34355   0.59196   0.49955   0.00000  Uiso   1.00
C752   C     0.15645   0.90804   0.49955   0.00000  Uiso   1.00
C753   C     0.15645   0.59196   0.50045   0.00000  Uiso   1.00
C754   C     0.05987   0.80866   0.49992   0.00000  Uiso   1.00
C755   C     0.34355   0.90805   0.50045   0.00000  Uiso   1.00
C756   C     0.30987   0.94134   0.50008   0.00000  Uiso   1.00
C757   C     0.19013   0.55866   0.50008   0.00000  Uiso   1.00
C758   C     0.19013   0.94134   0.49992   0.00000  Uiso   1.00
C759   C     0.30987   0.55866   0.49992   0.00000  Uiso   1.00
C760   C     0.00027   0.70608   0.35849   0.00000  Uiso   1.00
Cu761  Cu    0.00000   0.75000   0.54689   0.00000  Uiso   1.00
Cu762  Cu    0.00000   0.75000   0.45311   0.00000  Uiso   1.00
Cu763  Cu    0.25000   0.50000   0.54689   0.00000  Uiso   1.00
Cu764  Cu    0.25000   0.50000   0.45311   0.00000  Uiso   1.00
H765   H     0.00733   0.60550   0.45119   0.00000  Uiso   1.00
H766   H     0.09950   0.84404   0.57359   0.00000  Uiso   1.00
H767   H     0.09717   0.84677   0.42514   0.00000  Uiso   1.00
H768   H     0.40051   0.65595   0.57359   0.00000  Uiso   1.00
H769   H     0.09717   0.65323   0.57486   0.00000  Uiso   1.00
H770   H     0.40051   0.84405   0.42641   0.00000  Uiso   1.00
H771   H     0.40282   0.84677   0.57486   0.00000  Uiso   1.00
H772   H     0.09950   0.65596   0.42641   0.00000  Uiso   1.00
H773   H     0.15282   0.90323   0.42514   0.00000  Uiso   1.00
H774   H     0.34950   0.59404   0.57359   0.00000  Uiso   1.00
H775   H     0.34717   0.59677   0.42514   0.00000  Uiso   1.00
H776   H     0.00739   0.89448   0.54880   0.00000  Uiso   1.00
H777   H     0.15051   0.90595   0.57359   0.00000  Uiso   1.00
H778   H     0.34717   0.90323   0.57486   0.00000  Uiso   1.00
H779   H     0.15051   0.59405   0.42641   0.00000  Uiso   1.00
H780   H     0.15282   0.59677   0.57486   0.00000  Uiso   1.00
H781   H     0.34950   0.90596   0.42641   0.00000  Uiso   1.00
H782   H     0.49267   0.89450   0.45119   0.00000  Uiso   1.00
H783   H     0.49266   0.60550   0.54880   0.00000  Uiso   1.00
H784   H     0.25733   0.85550   0.45119   0.00000  Uiso   1.00
H785   H     0.25739   0.64448   0.54880   0.00000  Uiso   1.00
H786   H     0.24267   0.64450   0.45119   0.00000  Uiso   1.00
H787   H     0.24266   0.85550   0.54880   0.00000  Uiso   1.00
H788   H     0.40282   0.65323   0.42514   0.00000  Uiso   1.00
N789   N     0.00000   0.75000   0.61736   0.00000  Uiso   1.00
N790   N    -0.00000   0.75000   0.38264   0.00000  Uiso   1.00
N791   N     0.25000   0.50000   0.61736   0.00000  Uiso   1.00
N792   N     0.25000   0.50000   0.38264   0.00000  Uiso   1.00
O793   O     0.04508   0.70491   0.53958   0.00000  Uiso   1.00
O794   O     0.20491   0.54509   0.46042   0.00000  Uiso   1.00
O795   O     0.20491   0.54509   0.53958   0.00000  Uiso   1.00
O796   O     0.29508   0.95491   0.46042   0.00000  Uiso   1.00
O797   O     0.20491   0.95491   0.46042   0.00000  Uiso   1.00
O798   O     0.29508   0.54509   0.53958   0.00000  Uiso   1.00
O799   O     0.29508   0.54509   0.46042   0.00000  Uiso   1.00
O800   O     0.20491   0.95491   0.53958   0.00000  Uiso   1.00
O801   O     0.47449   0.61187   0.36964   0.00000  Uiso   1.00
O802   O     0.04566   0.62810   0.37752   0.00000  Uiso   1.00
O803   O     0.49963   0.63966   0.44490   0.00000  Uiso   1.00
O804   O     0.45491   0.79509   0.46042   0.00000  Uiso   1.00
O805   O     0.47449   0.88814   0.63036   0.00000  Uiso   1.00
O806   O     0.04566   0.87190   0.62248   0.00000  Uiso   1.00
O807   O     0.49963   0.86035   0.55510   0.00000  Uiso   1.00
O808   O     0.02551   0.88813   0.36964   0.00000  Uiso   1.00
O809   O     0.45434   0.87191   0.37752   0.00000  Uiso   1.00
O810   O     0.00037   0.86034   0.44490   0.00000  Uiso   1.00
O811   O     0.02551   0.61187   0.63036   0.00000  Uiso   1.00
O812   O     0.45434   0.62810   0.62248   0.00000  Uiso   1.00
O813   O     0.00037   0.63966   0.55510   0.00000  Uiso   1.00
O814   O     0.22449   0.86187   0.36964   0.00000  Uiso   1.00
O815   O     0.45491   0.79509   0.53958   0.00000  Uiso   1.00
O816   O     0.29566   0.87810   0.37752   0.00000  Uiso   1.00
O817   O     0.24963   0.88966   0.44490   0.00000  Uiso   1.00
O818   O     0.22449   0.63814   0.63036   0.00000  Uiso   1.00
O819   O     0.29566   0.62190   0.62248   0.00000  Uiso   1.00
O820   O     0.24963   0.61035   0.55510   0.00000  Uiso   1.00
O821   O     0.27551   0.63813   0.36964   0.00000  Uiso   1.00
O822   O     0.20434   0.62191   0.37752   0.00000  Uiso   1.00
O823   O     0.25037   0.61034   0.44490   0.00000  Uiso   1.00
O824   O     0.27551   0.86187   0.63036   0.00000  Uiso   1.00
O825   O     0.20434   0.87810   0.62248   0.00000  Uiso   1.00
O826   O     0.04508   0.70491   0.46042   0.00000  Uiso   1.00
O827   O     0.25037   0.88966   0.55510   0.00000  Uiso   1.00
O828   O     0.45491   0.70491   0.46042   0.00000  Uiso   1.00
O829   O     0.04508   0.79509   0.53958   0.00000  Uiso   1.00
O830   O     0.04508   0.79509   0.46042   0.00000  Uiso   1.00
O831   O     0.45491   0.70491   0.53958   0.00000  Uiso   1.00
O832   O     0.29508   0.95491   0.53958   0.00000  Uiso   1.00
S833   S     0.00468   0.64696   0.38814   0.00000  Uiso   1.00
S834   S     0.00468   0.85304   0.61186   0.00000  Uiso   1.00
S835   S     0.49533   0.85305   0.38814   0.00000  Uiso   1.00
S836   S     0.49532   0.64696   0.61186   0.00000  Uiso   1.00
S837   S     0.25468   0.89696   0.38814   0.00000  Uiso   1.00
S838   S     0.25468   0.60305   0.61186   0.00000  Uiso   1.00
S839   S     0.24533   0.60305   0.38814   0.00000  Uiso   1.00
S840   S     0.24532   0.89696   0.61186   0.00000  Uiso   1.00
C841   C     0.55987   0.69134   0.50008   0.00000  Uiso   1.00
C842   C     0.50027   0.79392   0.64151   0.00000  Uiso   1.00
C843   C     0.99973   0.79392   0.35849   0.00000  Uiso   1.00
C844   C     0.99973   0.70608   0.64151   0.00000  Uiso   1.00
C845   C     0.75027   0.95608   0.35849   0.00000  Uiso   1.00
C846   C     0.75027   0.54392   0.64151   0.00000  Uiso   1.00
C847   C     0.74973   0.54392   0.35849   0.00000  Uiso   1.00
C848   C     0.74973   0.95608   0.64151   0.00000  Uiso   1.00
C849   C     0.89082   0.64124   0.45777   0.00000  Uiso   1.00
C850   C     0.60991   0.85790   0.54107   0.00000  Uiso   1.00
C851   C     0.60918   0.85876   0.45777   0.00000  Uiso   1.00
C852   C     0.94013   0.80866   0.50008   0.00000  Uiso   1.00
C853   C     0.89009   0.64209   0.54107   0.00000  Uiso   1.00
C854   C     0.60918   0.64124   0.54223   0.00000  Uiso   1.00
C855   C     0.89009   0.85791   0.45893   0.00000  Uiso   1.00
C856   C     0.89082   0.85876   0.54223   0.00000  Uiso   1.00
C857   C     0.60991   0.64209   0.45893   0.00000  Uiso   1.00
C858   C     0.64082   0.89124   0.45777   0.00000  Uiso   1.00
C859   C     0.85991   0.60790   0.54107   0.00000  Uiso   1.00
C860   C     0.85918   0.60876   0.45777   0.00000  Uiso   1.00
C861   C     0.64009   0.89209   0.54107   0.00000  Uiso   1.00
C862   C     0.85918   0.89124   0.54223   0.00000  Uiso   1.00
C863   C     0.94013   0.69134   0.49992   0.00000  Uiso   1.00
C864   C     0.64009   0.60791   0.45893   0.00000  Uiso   1.00
C865   C     0.64082   0.60876   0.54223   0.00000  Uiso   1.00
C866   C     0.85991   0.89209   0.45893   0.00000  Uiso   1.00
C867   C     0.59355   0.84195   0.49955   0.00000  Uiso   1.00
C868   C     0.90645   0.65804   0.49955   0.00000  Uiso   1.00
C869   C     0.90645   0.84196   0.50045   0.00000  Uiso   1.00
C870   C     0.59355   0.65804   0.50045   0.00000  Uiso   1.00
C871   C     0.84355   0.59196   0.49955   0.00000  Uiso   1.00
C872   C     0.65645   0.90804   0.49955   0.00000  Uiso   1.00
C873   C     0.65645   0.59196   0.50045   0.00000  Uiso   1.00
C874   C     0.55987   0.80866   0.49992   0.00000  Uiso   1.00
C875   C     0.84355   0.90805   0.50045   0.00000  Uiso   1.00
C876   C     0.80987   0.94134   0.50008   0.00000  Uiso   1.00
C877   C     0.69013   0.55866   0.50008   0.00000  Uiso   1.00
C878   C     0.69013   0.94134   0.49992   0.00000  Uiso   1.00
C879   C     0.80987   0.55866   0.49992   0.00000  Uiso   1.00
C880   C     0.50027   0.70608   0.35849   0.00000  Uiso   1.00
Cu881  Cu    0.50000   0.75000   0.54689   0.00000  Uiso   1.00
Cu882  Cu    0.50000   0.75000   0.45311   0.00000  Uiso   1.00
Cu883  Cu    0.75000   0.50000   0.54689   0.00000  Uiso   1.00
Cu884  Cu    0.75000   0.50000   0.45311   0.00000  Uiso   1.00
H885   H     0.50733   0.60550   0.45119   0.00000  Uiso   1.00
H886   H     0.59950   0.84404   0.57359   0.00000  Uiso   1.00
H887   H     0.59717   0.84677   0.42514   0.00000  Uiso   1.00
H888   H     0.90051   0.65595   0.57359   0.00000  Uiso   1.00
H889   H     0.59717   0.65323   0.57486   0.00000  Uiso   1.00
H890   H     0.90051   0.84405   0.42641   0.00000  Uiso   1.00
H891   H     0.90282   0.84677   0.57486   0.00000  Uiso   1.00
H892   H     0.59950   0.65596   0.42641   0.00000  Uiso   1.00
H893   H     0.65282   0.90323   0.42514   0.00000  Uiso   1.00
H894   H     0.84950   0.59404   0.57359   0.00000  Uiso   1.00
H895   H     0.84717   0.59677   0.42514   0.00000  Uiso   1.00
H896   H     0.50739   0.89448   0.54880   0.00000  Uiso   1.00
H897   H     0.65051   0.90595   0.57359   0.00000  Uiso   1.00
H898   H     0.84717   0.90323   0.57486   0.00000  Uiso   1.00
H899   H     0.65051   0.59405   0.42641   0.00000  Uiso   1.00
H900   H     0.65282   0.59677   0.57486   0.00000  Uiso   1.00
H901   H     0.84950   0.90596   0.42641   0.00000  Uiso   1.00
H902   H     0.99267   0.89450   0.45119   0.00000  Uiso   1.00
H903   H     0.99266   0.60550   0.54880   0.00000  Uiso   1.00
H904   H     0.75733   0.85550   0.45119   0.00000  Uiso   1.00
H905   H     0.75739   0.64448   0.54880   0.00000  Uiso   1.00
H906   H     0.74267   0.64450   0.45119   0.00000  Uiso   1.00
H907   H     0.74266   0.85550   0.54880   0.00000  Uiso   1.00
H908   H     0.90282   0.65323   0.42514   0.00000  Uiso   1.00
N909   N     0.50000   0.75000   0.61736   0.00000  Uiso   1.00
N910   N     0.50000   0.75000   0.38264   0.00000  Uiso   1.00
N911   N     0.75000   0.50000   0.61736   0.00000  Uiso   1.00
N912   N     0.75000   0.50000   0.38264   0.00000  Uiso   1.00
O913   O     0.54508   0.70491   0.53958   0.00000  Uiso   1.00
O914   O     0.70491   0.54509   0.46042   0.00000  Uiso   1.00
O915   O     0.70491   0.54509   0.53958   0.00000  Uiso   1.00
O916   O     0.79508   0.95491   0.46042   0.00000  Uiso   1.00
O917   O     0.70491   0.95491   0.46042   0.00000  Uiso   1.00
O918   O     0.79508   0.54509   0.53958   0.00000  Uiso   1.00
O919   O     0.79508   0.54509   0.46042   0.00000  Uiso   1.00
O920   O     0.70491   0.95491   0.53958   0.00000  Uiso   1.00
O921   O     0.97449   0.61187   0.36964   0.00000  Uiso   1.00
O922   O     0.54566   0.62810   0.37752   0.00000  Uiso   1.00
O923   O     0.99963   0.63966   0.44490   0.00000  Uiso   1.00
O924   O     0.95491   0.79509   0.46042   0.00000  Uiso   1.00
O925   O     0.97449   0.88814   0.63036   0.00000  Uiso   1.00
O926   O     0.54566   0.87190   0.62248   0.00000  Uiso   1.00
O927   O     0.99963   0.86035   0.55510   0.00000  Uiso   1.00
O928   O     0.52551   0.88813   0.36964   0.00000  Uiso   1.00
O929   O     0.95434   0.87191   0.37752   0.00000  Uiso   1.00
O930   O     0.50037   0.86034   0.44490   0.00000  Uiso   1.00
O931   O     0.52551   0.61187   0.63036   0.00000  Uiso   1.00
O932   O     0.95434   0.62810   0.62248   0.00000  Uiso   1.00
O933   O     0.50037   0.63966   0.55510   0.00000  Uiso   1.00
O934   O     0.72449   0.86187   0.36964   0.00000  Uiso   1.00
O935   O     0.95491   0.79509   0.53958   0.00000  Uiso   1.00
O936   O     0.79566   0.87810   0.37752   0.00000  Uiso   1.00
O937   O     0.74963   0.88966   0.44490   0.00000  Uiso   1.00
O938   O     0.72449   0.63814   0.63036   0.00000  Uiso   1.00
O939   O     0.79566   0.62190   0.62248   0.00000  Uiso   1.00
O940   O     0.74963   0.61035   0.55510   0.00000  Uiso   1.00
O941   O     0.77551   0.63813   0.36964   0.00000  Uiso   1.00
O942   O     0.70434   0.62191   0.37752   0.00000  Uiso   1.00
O943   O     0.75037   0.61034   0.44490   0.00000  Uiso   1.00
O944   O     0.77551   0.86187   0.63036   0.00000  Uiso   1.00
O945   O     0.70434   0.87810   0.62248   0.00000  Uiso   1.00
O946   O     0.54508   0.70491   0.46042   0.00000  Uiso   1.00
O947   O     0.75037   0.88966   0.55510   0.00000  Uiso   1.00
O948   O     0.95491   0.70491   0.46042   0.00000  Uiso   1.00
O949   O     0.54508   0.79509   0.53958   0.00000  Uiso   1.00
O950   O     0.54508   0.79509   0.46042   0.00000  Uiso   1.00
O951   O     0.95491   0.70491   0.53958   0.00000  Uiso   1.00
O952   O     0.79508   0.95491   0.53958   0.00000  Uiso   1.00
S953   S     0.50468   0.64696   0.38814   0.00000  Uiso   1.00
S954   S     0.50468   0.85304   0.61186   0.00000  Uiso   1.00
S955   S     0.99533   0.85305   0.38814   0.00000  Uiso   1.00
S956   S     0.99532   0.64696   0.61186   0.00000  Uiso   1.00
S957   S     0.75468   0.89696   0.38814   0.00000  Uiso   1.00
S958   S     0.75468   0.60305   0.61186   0.00000  Uiso   1.00
S959   S     0.74533   0.60305   0.38814   0.00000  Uiso   1.00
S960   S     0.74532   0.89696   0.61186   0.00000  Uiso   1.00
C961   C     0.05987   0.19134   0.83342   0.00000  Uiso   1.00
C962   C     0.00027   0.29392   0.97484   0.00000  Uiso   1.00
C963   C     0.49973   0.29392   0.69183   0.00000  Uiso   1.00
C964   C     0.49973   0.20608   0.97484   0.00000  Uiso   1.00
C965   C     0.25027   0.45608   0.69183   0.00000  Uiso   1.00
C966   C     0.25027   0.04392   0.97484   0.00000  Uiso   1.00
C967   C     0.24973   0.04392   0.69183   0.00000  Uiso   1.00
C968   C     0.24973   0.45608   0.97484   0.00000  Uiso   1.00
C969   C     0.39082   0.14124   0.79110   0.00000  Uiso   1.00
C970   C     0.10991   0.35790   0.87441   0.00000  Uiso   1.00
C971   C     0.10918   0.35876   0.79110   0.00000  Uiso   1.00
C972   C     0.44013   0.30866   0.83342   0.00000  Uiso   1.00
C973   C     0.39009   0.14209   0.87441   0.00000  Uiso   1.00
C974   C     0.10918   0.14124   0.87556   0.00000  Uiso   1.00
C975   C     0.39009   0.35791   0.79226   0.00000  Uiso   1.00
C976   C     0.39082   0.35876   0.87556   0.00000  Uiso   1.00
C977   C     0.10991   0.14209   0.79226   0.00000  Uiso   1.00
C978   C     0.14082   0.39124   0.79110   0.00000  Uiso   1.00
C979   C     0.35991   0.10790   0.87441   0.00000  Uiso   1.00
C980   C     0.35918   0.10876   0.79110   0.00000  Uiso   1.00
C981   C     0.14009   0.39209   0.87441   0.00000  Uiso   1.00
C982   C     0.35918   0.39124   0.87556   0.00000  Uiso   1.00
C983   C     0.44013   0.19134   0.83325   0.00000  Uiso   1.00
C984   C     0.14009   0.10791   0.79226   0.00000  Uiso   1.00
C985   C     0.14082   0.10876   0.87556   0.00000  Uiso   1.00
C986   C     0.35991   0.39209   0.79226   0.00000  Uiso   1.00
C987   C     0.09355   0.34195   0.83289   0.00000  Uiso   1.00
C988   C     0.40645   0.15804   0.83289   0.00000  Uiso   1.00
C989   C     0.40645   0.34196   0.83378   0.00000  Uiso   1.00
C990   C     0.09355   0.15804   0.83378   0.00000  Uiso   1.00
C991   C     0.34355   0.09196   0.83289   0.00000  Uiso   1.00
C992   C     0.15645   0.40804   0.83289   0.00000  Uiso   1.00
C993   C     0.15645   0.09196   0.83378   0.00000  Uiso   1.00
C994   C     0.05987   0.30866   0.83325   0.00000  Uiso   1.00
C995   C     0.34355   0.40805   0.83378   0.00000  Uiso   1.00
C996   C     0.30987   0.44134   0.83342   0.00000  Uiso   1.00
C997   C     0.19013   0.05866   0.83342   0.00000  Uiso   1.00
C998   C     0.19013   0.44134   0.83325   0.00000  Uiso   1.00
C999   C     0.30987   0.05866   0.83325   0.00000  Uiso   1.00
C1000  C     0.00027   0.20608   0.69183   0.00000  Uiso   1.00
Cu1001 Cu    0.00000   0.25000   0.88022   0.00000  Uiso   1.00
Cu1002 Cu    0.00000   0.25000   0.78645   0.00000  Uiso   1.00
Cu1003 Cu    0.25000   0.00000   0.88022   0.00000  Uiso   1.00
Cu1004 Cu    0.25000   0.00000   0.78645   0.00000  Uiso   1.00
H1005  H     0.00733   0.10550   0.78453   0.00000  Uiso   1.00
H1006  H     0.09950   0.34404   0.90692   0.00000  Uiso   1.00
H1007  H     0.09717   0.34677   0.75847   0.00000  Uiso   1.00
H1008  H     0.40051   0.15595   0.90692   0.00000  Uiso   1.00
H1009  H     0.09717   0.15323   0.90820   0.00000  Uiso   1.00
H1010  H     0.40051   0.34405   0.75974   0.00000  Uiso   1.00
H1011  H     0.40282   0.34677   0.90820   0.00000  Uiso   1.00
H1012  H     0.09950   0.15596   0.75974   0.00000  Uiso   1.00
H1013  H     0.15282   0.40323   0.75847   0.00000  Uiso   1.00
H1014  H     0.34950   0.09404   0.90692   0.00000  Uiso   1.00
H1015  H     0.34717   0.09677   0.75847   0.00000  Uiso   1.00
H1016  H     0.00739   0.39448   0.88213   0.00000  Uiso   1.00
H1017  H     0.15051   0.40595   0.90692   0.00000  Uiso   1.00
H1018  H     0.34717   0.40323   0.90820   0.00000  Uiso   1.00
H1019  H     0.15051   0.09405   0.75974   0.00000  Uiso   1.00
H1020  H     0.15282   0.09677   0.90820   0.00000  Uiso   1.00
H1021  H     0.34950   0.40596   0.75974   0.00000  Uiso   1.00
H1022  H     0.49267   0.39450   0.78453   0.00000  Uiso   1.00
H1023  H     0.49266   0.10550   0.88214   0.00000  Uiso   1.00
H1024  H     0.25733   0.35550   0.78453   0.00000  Uiso   1.00
H1025  H     0.25739   0.14448   0.88213   0.00000  Uiso   1.00
H1026  H     0.24267   0.14450   0.78453   0.00000  Uiso   1.00
H1027  H     0.24266   0.35550   0.88214   0.00000  Uiso   1.00
H1028  H     0.40282   0.15323   0.75847   0.00000  Uiso   1.00
N1029  N     0.00000   0.25000   0.95069   0.00000  Uiso   1.00
N1030  N    -0.00000   0.25000   0.71598   0.00000  Uiso   1.00
N1031  N     0.25000   0.00000   0.95069   0.00000  Uiso   1.00
N1032  N     0.25000   0.00000   0.71598   0.00000  Uiso   1.00
O1033  O     0.04508   0.20491   0.87291   0.00000  Uiso   1.00
O1034  O     0.20491   0.04509   0.79375   0.00000  Uiso   1.00
O1035  O     0.20491   0.04509   0.87291   0.00000  Uiso   1.00
O1036  O     0.29508   0.45491   0.79375   0.00000  Uiso   1.00
O1037  O     0.20491   0.45491   0.79375   0.00000  Uiso   1.00
O1038  O     0.29508   0.04509   0.87291   0.00000  Uiso   1.00
O1039  O     0.29508   0.04509   0.79375   0.00000  Uiso   1.00
O1040  O     0.20491   0.45491   0.87291   0.00000  Uiso   1.00
O1041  O     0.47449   0.11187   0.70297   0.00000  Uiso   1.00
O1042  O     0.04566   0.12810   0.71086   0.00000  Uiso   1.00
O1043  O     0.49963   0.13966   0.77824   0.00000  Uiso   1.00
O1044  O     0.45491   0.29509   0.79375   0.00000  Uiso   1.00
O1045  O     0.47449   0.38814   0.96369   0.00000  Uiso   1.00
O1046  O     0.04566   0.37190   0.95581   0.00000  Uiso   1.00
O1047  O     0.49963   0.36035   0.88843   0.00000  Uiso   1.00
O1048  O     0.02551   0.38813   0.70297   0.00000  Uiso   1.00
O1049  O     0.45434   0.37191   0.71086   0.00000  Uiso   1.00
O1050  O     0.00037   0.36034   0.77824   0.00000  Uiso   1.00
O1051  O     0.02551   0.11187   0.96369   0.00000  Uiso   1.00
O1052  O     0.45434   0.12810   0.95581   0.00000  Uiso   1.00
O1053  O     0.00037   0.13966   0.88843   0.00000  Uiso   1.00
O1054  O     0.22449   0.36187   0.70297   0.00000  Uiso   1.00
O1055  O     0.45491   0.29509   0.87291   0.00000  Uiso   1.00
O1056  O     0.29566   0.37810   0.71086   0.00000  Uiso   1.00
O1057  O     0.24963   0.38966   0.77824   0.00000  Uiso   1.00
O1058  O     0.22449   0.13814   0.96369   0.00000  Uiso   1.00
O1059  O     0.29566   0.12190   0.95581   0.00000  Uiso   1.00
O1060  O     0.24963   0.11035   0.88843   0.00000  Uiso   1.00
O1061  O     0.27551   0.13813   0.70297   0.00000  Uiso   1.00
O1062  O     0.20434   0.12191   0.71086   0.00000  Uiso   1.00
O1063  O     0.25037   0.11034   0.77824   0.00000  Uiso   1.00
O1064  O     0.27551   0.36187   0.96369   0.00000  Uiso   1.00
O1065  O     0.20434   0.37810   0.95581   0.00000  Uiso   1.00
O1066  O     0.04508   0.20491   0.79375   0.00000  Uiso   1.00
O1067  O     0.25037   0.38966   0.88843   0.00000  Uiso   1.00
O1068  O     0.45491   0.20491   0.79375   0.00000  Uiso   1.00
O1069  O     0.04508   0.29509   0.87291   0.00000  Uiso   1.00
O1070  O     0.04508   0.29509   0.79375   0.00000  Uiso   1.00
O1071  O     0.45491   0.20491   0.87291   0.00000  Uiso   1.00
O1072  O     0.29508   0.45491   0.87291   0.00000  Uiso   1.00
S1073  S     0.00468   0.14696   0.72147   0.00000  Uiso   1.00
S1074  S     0.00468   0.35304   0.94520   0.00000  Uiso   1.00
S1075  S     0.49533   0.35305   0.72147   0.00000  Uiso   1.00
S1076  S     0.49532   0.14696   0.94520   0.00000  Uiso   1.00
S1077  S     0.25468   0.39696   0.72147   0.00000  Uiso   1.00
S1078  S     0.25468   0.10305   0.94520   0.00000  Uiso   1.00
S1079  S     0.24533   0.10305   0.72147   0.00000  Uiso   1.00
S1080  S     0.24532   0.39696   0.94520   0.00000  Uiso   1.00
C1081  C     0.55987   0.19134   0.83342   0.00000  Uiso   1.00
C1082  C     0.50027   0.29392   0.97484   0.00000  Uiso   1.00
C1083  C     0.99973   0.29392   0.69183   0.00000  Uiso   1.00
C1084  C     0.99973   0.20608   0.97484   0.00000  Uiso   1.00
C1085  C     0.75027   0.45608   0.69183   0.00000  Uiso   1.00
C1086  C     0.75027   0.04392   0.97484   0.00000  Uiso   1.00
C1087  C     0.74973   0.04392   0.69183   0.00000  Uiso   1.00
C1088  C     0.74973   0.45608   0.97484   0.00000  Uiso   1.00
C1089  C     0.89082   0.14124   0.79110   0.00000  Uiso   1.00
C1090  C     0.60991   0.35790   0.87441   0.00000  Uiso   1.00
C1091  C     0.60918   0.35876   0.79110   0.00000  Uiso   1.00
C1092  C     0.94013   0.30866   0.83342   0.00000  Uiso   1.00
C1093  C     0.89009   0.14209   0.87441   0.00000  Uiso   1.00
C1094  C     0.60918   0.14124   0.87556   0.00000  Uiso   1.00
C1095  C     0.89009   0.35791   0.79226   0.00000  Uiso   1.00
C1096  C     0.89082   0.35876   0.87556   0.00000  Uiso   1.00
C1097  C     0.60991   0.14209   0.79226   0.00000  Uiso   1.00
C1098  C     0.64082   0.39124   0.79110   0.00000  Uiso   1.00
C1099  C     0.85991   0.10790   0.87441   0.00000  Uiso   1.00
C1100  C     0.85918   0.10876   0.79110   0.00000  Uiso   1.00
C1101  C     0.64009   0.39209   0.87441   0.00000  Uiso   1.00
C1102  C     0.85918   0.39124   0.87556   0.00000  Uiso   1.00
C1103  C     0.94013   0.19134   0.83325   0.00000  Uiso   1.00
C1104  C     0.64009   0.10791   0.79226   0.00000  Uiso   1.00
C1105  C     0.64082   0.10876   0.87556   0.00000  Uiso   1.00
C1106  C     0.85991   0.39209   0.79226   0.00000  Uiso   1.00
C1107  C     0.59355   0.34195   0.83289   0.00000  Uiso   1.00
C1108  C     0.90645   0.15804   0.83289   0.00000  Uiso   1.00
C1109  C     0.90645   0.34196   0.83378   0.00000  Uiso   1.00
C1110  C     0.59355   0.15804   0.83378   0.00000  Uiso   1.00
C1111  C     0.84355   0.09196   0.83289   0.00000  Uiso   1.00
C1112  C     0.65645   0.40804   0.83289   0.00000  Uiso   1.00
C1113  C     0.65645   0.09196   0.83378   0.00000  Uiso   1.00
C1114  C     0.55987   0.30866   0.83325   0.00000  Uiso   1.00
C1115  C     0.84355   0.40805   0.83378   0.00000  Uiso   1.00
C1116  C     0.80987   0.44134   0.83342   0.00000  Uiso   1.00
C1117  C     0.69013   0.05866   0.83342   0.00000  Uiso   1.00
C1118  C     0.69013   0.44134   0.83325   0.00000  Uiso   1.00
C1119  C     0.80987   0.05866   0.83325   0.00000  Uiso   1.00
C1120  C     0.50027   0.20608   0.69183   0.00000  Uiso   1.00
Cu1121 Cu    0.50000   0.25000   0.88022   0.00000  Uiso   1.00
Cu1122 Cu    0.50000   0.25000   0.78645   0.00000  Uiso   1.00
Cu1123 Cu    0.75000   0.00000   0.88022   0.00000  Uiso   1.00
Cu1124 Cu    0.75000   0.00000   0.78645   0.00000  Uiso   1.00
H1125  H     0.50733   0.10550   0.78453   0.00000  Uiso   1.00
H1126  H     0.59950   0.34404   0.90692   0.00000  Uiso   1.00
H1127  H     0.59717   0.34677   0.75847   0.00000  Uiso   1.00
H1128  H     0.90051   0.15595   0.90692   0.00000  Uiso   1.00
H1129  H     0.59717   0.15323   0.90820   0.00000  Uiso   1.00
H1130  H     0.90051   0.34405   0.75974   0.00000  Uiso   1.00
H1131  H     0.90282   0.34677   0.90820   0.00000  Uiso   1.00
H1132  H     0.59950   0.15596   0.75974   0.00000  Uiso   1.00
H1133  H     0.65282   0.40323   0.75847   0.00000  Uiso   1.00
H1134  H     0.84950   0.09404   0.90692   0.00000  Uiso   1.00
H1135  H     0.84717   0.09677   0.75847   0.00000  Uiso   1.00
H1136  H     0.50739   0.39448   0.88213   0.00000  Uiso   1.00
H1137  H     0.65051   0.40595   0.90692   0.00000  Uiso   1.00
H1138  H     0.84717   0.40323   0.90820   0.00000  Uiso   1.00
H1139  H     0.65051   0.09405   0.75974   0.00000  Uiso   1.00
H1140  H     0.65282   0.09677   0.90820   0.00000  Uiso   1.00
H1141  H     0.84950   0.40596   0.75974   0.00000  Uiso   1.00
H1142  H     0.99267   0.39450   0.78453   0.00000  Uiso   1.00
H1143  H     0.99266   0.10550   0.88214   0.00000  Uiso   1.00
H1144  H     0.75733   0.35550   0.78453   0.00000  Uiso   1.00
H1145  H     0.75739   0.14448   0.88213   0.00000  Uiso   1.00
H1146  H     0.74267   0.14450   0.78453   0.00000  Uiso   1.00
H1147  H     0.74266   0.35550   0.88214   0.00000  Uiso   1.00
H1148  H     0.90282   0.15323   0.75847   0.00000  Uiso   1.00
N1149  N     0.50000   0.25000   0.95069   0.00000  Uiso   1.00
N1150  N     0.50000   0.25000   0.71598   0.00000  Uiso   1.00
N1151  N     0.75000   0.00000   0.95069   0.00000  Uiso   1.00
N1152  N     0.75000   0.00000   0.71598   0.00000  Uiso   1.00
O1153  O     0.54508   0.20491   0.87291   0.00000  Uiso   1.00
O1154  O     0.70491   0.04509   0.79375   0.00000  Uiso   1.00
O1155  O     0.70491   0.04509   0.87291   0.00000  Uiso   1.00
O1156  O     0.79508   0.45491   0.79375   0.00000  Uiso   1.00
O1157  O     0.70491   0.45491   0.79375   0.00000  Uiso   1.00
O1158  O     0.79508   0.04509   0.87291   0.00000  Uiso   1.00
O1159  O     0.79508   0.04509   0.79375   0.00000  Uiso   1.00
O1160  O     0.70491   0.45491   0.87291   0.00000  Uiso   1.00
O1161  O     0.97449   0.11187   0.70297   0.00000  Uiso   1.00
O1162  O     0.54566   0.12810   0.71086   0.00000  Uiso   1.00
O1163  O     0.99963   0.13966   0.77824   0.00000  Uiso   1.00
O1164  O     0.95491   0.29509   0.79375   0.00000  Uiso   1.00
O1165  O     0.97449   0.38814   0.96369   0.00000  Uiso   1.00
O1166  O     0.54566   0.37190   0.95581   0.00000  Uiso   1.00
O1167  O     0.99963   0.36035   0.88843   0.00000  Uiso   1.00
O1168  O     0.52551   0.38813   0.70297   0.00000  Uiso   1.00
O1169  O     0.95434   0.37191   0.71086   0.00000  Uiso   1.00
O1170  O     0.50037   0.36034   0.77824   0.00000  Uiso   1.00
O1171  O     0.52551   0.11187   0.96369   0.00000  Uiso   1.00
O1172  O     0.95434   0.12810   0.95581   0.00000  Uiso   1.00
O1173  O     0.50037   0.13966   0.88843   0.00000  Uiso   1.00
O1174  O     0.72449   0.36187   0.70297   0.00000  Uiso   1.00
O1175  O     0.95491   0.29509   0.87291   0.00000  Uiso   1.00
O1176  O     0.79566   0.37810   0.71086   0.00000  Uiso   1.00
O1177  O     0.74963   0.38966   0.77824   0.00000  Uiso   1.00
O1178  O     0.72449   0.13814   0.96369   0.00000  Uiso   1.00
O1179  O     0.79566   0.12190   0.95581   0.00000  Uiso   1.00
O1180  O     0.74963   0.11035   0.88843   0.00000  Uiso   1.00
O1181  O     0.77551   0.13813   0.70297   0.00000  Uiso   1.00
O1182  O     0.70434   0.12191   0.71086   0.00000  Uiso   1.00
O1183  O     0.75037   0.11034   0.77824   0.00000  Uiso   1.00
O1184  O     0.77551   0.36187   0.96369   0.00000  Uiso   1.00
O1185  O     0.70434   0.37810   0.95581   0.00000  Uiso   1.00
O1186  O     0.54508   0.20491   0.79375   0.00000  Uiso   1.00
O1187  O     0.75037   0.38966   0.88843   0.00000  Uiso   1.00
O1188  O     0.95491   0.20491   0.79375   0.00000  Uiso   1.00
O1189  O     0.54508   0.29509   0.87291   0.00000  Uiso   1.00
O1190  O     0.54508   0.29509   0.79375   0.00000  Uiso   1.00
O1191  O     0.95491   0.20491   0.87291   0.00000  Uiso   1.00
O1192  O     0.79508   0.45491   0.87291   0.00000  Uiso   1.00
S1193  S     0.50468   0.14696   0.72147   0.00000  Uiso   1.00
S1194  S     0.50468   0.35304   0.94520   0.00000  Uiso   1.00
S1195  S     0.99533   0.35305   0.72147   0.00000  Uiso   1.00
S1196  S     0.99532   0.14696   0.94520   0.00000  Uiso   1.00
S1197  S     0.75468   0.39696   0.72147   0.00000  Uiso   1.00
S1198  S     0.75468   0.10305   0.94520   0.00000  Uiso   1.00
S1199  S     0.74533   0.10305   0.72147   0.00000  Uiso   1.00
S1200  S     0.74532   0.39696   0.94520   0.00000  Uiso   1.00
C1201  C     0.05987   0.69134   0.83342   0.00000  Uiso   1.00
C1202  C     0.00027   0.79392   0.97484   0.00000  Uiso   1.00
C1203  C     0.49973   0.79392   0.69183   0.00000  Uiso   1.00
C1204  C     0.49973   0.70608   0.97484   0.00000  Uiso   1.00
C1205  C     0.25027   0.95608   0.69183   0.00000  Uiso   1.00
C1206  C     0.25027   0.54392   0.97484   0.00000  Uiso   1.00
C1207  C     0.24973   0.54392   0.69183   0.00000  Uiso   1.00
C1208  C     0.24973   0.95608   0.97484   0.00000  Uiso   1.00
C1209  C     0.39082   0.64124   0.79110   0.00000  Uiso   1.00
C1210  C     0.10991   0.85790   0.87441   0.00000  Uiso   1.00
C1211  C     0.10918   0.85876   0.79110   0.00000  Uiso   1.00
C1212  C     0.44013   0.80866   0.83342   0.00000  Uiso   1.00
C1213  C     0.39009   0.64209   0.87441   0.00000  Uiso   1.00
C1214  C     0.10918   0.64124   0.87556   0.00000  Uiso   1.00
C1215  C     0.39009   0.85791   0.79226   0.00000  Uiso   1.00
C1216  C     0.39082   0.85876   0.87556   0.00000  Uiso   1.00
C1217  C     0.10991   0.64209   0.79226   0.00000  Uiso   1.00
C1218  C     0.14082   0.89124   0.79110   0.00000  Uiso   1.00
C1219  C     0.35991   0.60790   0.87441   0.00000  Uiso   1.00
C1220  C     0.35918   0.60876   0.79110   0.00000  Uiso   1.00
C1221  C     0.14009   0.89209   0.87441   0.00000  Uiso   1.00
C1222  C     0.35918   0.89124   0.87556   0.00000  Uiso   1.00
C1223  C     0.44013   0.69134   0.83325   0.00000  Uiso   1.00
C1224  C     0.14009   0.60791   0.79226   0.00000  Uiso   1.00
C1225  C     0.14082   0.60876   0.87556   0.00000  Uiso   1.00
C1226  C     0.35991   0.89209   0.79226   0.00000  Uiso   1.00
C1227  C     0.09355   0.84195   0.83289   0.00000  Uiso   1.00
C1228  C     0.40645   0.65804   0.83289   0.00000  Uiso   1.00
C1229  C     0.40645   0.84196   0.83378   0.00000  Uiso   1.00
C1230  C     0.09355   0.65804   0.83378   0.00000  Uiso   1.00
C1231  C     0.34355   0.59196   0.83289   0.00000  Uiso   1.00
C1232  C     0.15645   0.90804   0.83289   0.00000  Uiso   1.00
C1233  C     0.15645   0.59196   0.83378   0.00000  Uiso   1.00
C1234  C     0.05987   0.80866   0.83325   0.00000  Uiso   1.00
C1235  C     0.34355   0.90805   0.83378   0.00000  Uiso   1.00
C1236  C     0.30987   0.94134   0.83342   0.00000  Uiso   1.00
C1237  C     0.19013   0.55866   0.83342   0.00000  Uiso   1.00
C1238  C     0.19013   0.94134   0.83325   0.00000  Uiso   1.00
C1239  C     0.30987   0.55866   0.83325   0.00000  Uiso   1.00
C1240  C     0.00027   0.70608   0.69183   0.00000  Uiso   1.00
Cu1241 Cu    0.00000   0.75000   0.88022   0.00000  Uiso   1.00
Cu1242 Cu    0.00000   0.75000   0.78645   0.00000  Uiso   1.00
Cu1243 Cu    0.25000   0.50000   0.88022   0.00000  Uiso   1.00
Cu1244 Cu    0.25000   0.50000   0.78645   0.00000  Uiso   1.00
H1245  H     0.00733   0.60550   0.78453   0.00000  Uiso   1.00
H1246  H     0.09950   0.84404   0.90692   0.00000  Uiso   1.00
H1247  H     0.09717   0.84677   0.75847   0.00000  Uiso   1.00
H1248  H     0.40051   0.65595   0.90692   0.00000  Uiso   1.00
H1249  H     0.09717   0.65323   0.90820   0.00000  Uiso   1.00
H1250  H     0.40051   0.84405   0.75974   0.00000  Uiso   1.00
H1251  H     0.40282   0.84677   0.90820   0.00000  Uiso   1.00
H1252  H     0.09950   0.65596   0.75974   0.00000  Uiso   1.00
H1253  H     0.15282   0.90323   0.75847   0.00000  Uiso   1.00
H1254  H     0.34950   0.59404   0.90692   0.00000  Uiso   1.00
H1255  H     0.34717   0.59677   0.75847   0.00000  Uiso   1.00
H1256  H     0.00739   0.89448   0.88213   0.00000  Uiso   1.00
H1257  H     0.15051   0.90595   0.90692   0.00000  Uiso   1.00
H1258  H     0.34717   0.90323   0.90820   0.00000  Uiso   1.00
H1259  H     0.15051   0.59405   0.75974   0.00000  Uiso   1.00
H1260  H     0.15282   0.59677   0.90820   0.00000  Uiso   1.00
H1261  H     0.34950   0.90596   0.75974   0.00000  Uiso   1.00
H1262  H     0.49267   0.89450   0.78453   0.00000  Uiso   1.00
H1263  H     0.49266   0.60550   0.88214   0.00000  Uiso   1.00
H1264  H     0.25733   0.85550   0.78453   0.00000  Uiso   1.00
H1265  H     0.25739   0.64448   0.88213   0.00000  Uiso   1.00
H1266  H     0.24267   0.64450   0.78453   0.00000  Uiso   1.00
H1267  H     0.24266   0.85550   0.88214   0.00000  Uiso   1.00
H1268  H     0.40282   0.65323   0.75847   0.00000  Uiso   1.00
N1269  N     0.00000   0.75000   0.95069   0.00000  Uiso   1.00
N1270  N    -0.00000   0.75000   0.71598   0.00000  Uiso   1.00
N1271  N     0.25000   0.50000   0.95069   0.00000  Uiso   1.00
N1272  N     0.25000   0.50000   0.71598   0.00000  Uiso   1.00
O1273  O     0.04508   0.70491   0.87291   0.00000  Uiso   1.00
O1274  O     0.20491   0.54509   0.79375   0.00000  Uiso   1.00
O1275  O     0.20491   0.54509   0.87291   0.00000  Uiso   1.00
O1276  O     0.29508   0.95491   0.79375   0.00000  Uiso   1.00
O1277  O     0.20491   0.95491   0.79375   0.00000  Uiso   1.00
O1278  O     0.29508   0.54509   0.87291   0.00000  Uiso   1.00
O1279  O     0.29508   0.54509   0.79375   0.00000  Uiso   1.00
O1280  O     0.20491   0.95491   0.87291   0.00000  Uiso   1.00
O1281  O     0.47449   0.61187   0.70297   0.00000  Uiso   1.00
O1282  O     0.04566   0.62810   0.71086   0.00000  Uiso   1.00
O1283  O     0.49963   0.63966   0.77824   0.00000  Uiso   1.00
O1284  O     0.45491   0.79509   0.79375   0.00000  Uiso   1.00
O1285  O     0.47449   0.88814   0.96369   0.00000  Uiso   1.00
O1286  O     0.04566   0.87190   0.95581   0.00000  Uiso   1.00
O1287  O     0.49963   0.86035   0.88843   0.00000  Uiso   1.00
O1288  O     0.02551   0.88813   0.70297   0.00000  Uiso   1.00
O1289  O     0.45434   0.87191   0.71086   0.00000  Uiso   1.00
O1290  O     0.00037   0.86034   0.77824   0.00000  Uiso   1.00
O1291  O     0.02551   0.61187   0.96369   0.00000  Uiso   1.00
O1292  O     0.45434   0.62810   0.95581   0.00000  Uiso   1.00
O1293  O     0.00037   0.63966   0.88843   0.00000  Uiso   1.00
O1294  O     0.22449   0.86187   0.70297   0.00000  Uiso   1.00
O1295  O     0.45491   0.79509   0.87291   0.00000  Uiso   1.00
O1296  O     0.29566   0.87810   0.71086   0.00000  Uiso   1.00
O1297  O     0.24963   0.88966   0.77824   0.00000  Uiso   1.00
O1298  O     0.22449   0.63814   0.96369   0.00000  Uiso   1.00
O1299  O     0.29566   0.62190   0.95581   0.00000  Uiso   1.00
O1300  O     0.24963   0.61035   0.88843   0.00000  Uiso   1.00
O1301  O     0.27551   0.63813   0.70297   0.00000  Uiso   1.00
O1302  O     0.20434   0.62191   0.71086   0.00000  Uiso   1.00
O1303  O     0.25037   0.61034   0.77824   0.00000  Uiso   1.00
O1304  O     0.27551   0.86187   0.96369   0.00000  Uiso   1.00
O1305  O     0.20434   0.87810   0.95581   0.00000  Uiso   1.00
O1306  O     0.04508   0.70491   0.79375   0.00000  Uiso   1.00
O1307  O     0.25037   0.88966   0.88843   0.00000  Uiso   1.00
O1308  O     0.45491   0.70491   0.79375   0.00000  Uiso   1.00
O1309  O     0.04508   0.79509   0.87291   0.00000  Uiso   1.00
O1310  O     0.04508   0.79509   0.79375   0.00000  Uiso   1.00
O1311  O     0.45491   0.70491   0.87291   0.00000  Uiso   1.00
O1312  O     0.29508   0.95491   0.87291   0.00000  Uiso   1.00
S1313  S     0.00468   0.64696   0.72147   0.00000  Uiso   1.00
S1314  S     0.00468   0.85304   0.94520   0.00000  Uiso   1.00
S1315  S     0.49533   0.85305   0.72147   0.00000  Uiso   1.00
S1316  S     0.49532   0.64696   0.94520   0.00000  Uiso   1.00
S1317  S     0.25468   0.89696   0.72147   0.00000  Uiso   1.00
S1318  S     0.25468   0.60305   0.94520   0.00000  Uiso   1.00
S1319  S     0.24533   0.60305   0.72147   0.00000  Uiso   1.00
S1320  S     0.24532   0.89696   0.94520   0.00000  Uiso   1.00
C1321  C     0.55987   0.69134   0.83342   0.00000  Uiso   1.00
C1322  C     0.50027   0.79392   0.97484   0.00000  Uiso   1.00
C1323  C     0.99973   0.79392   0.69183   0.00000  Uiso   1.00
C1324  C     0.99973   0.70608   0.97484   0.00000  Uiso   1.00
C1325  C     0.75027   0.95608   0.69183   0.00000  Uiso   1.00
C1326  C     0.75027   0.54392   0.97484   0.00000  Uiso   1.00
C1327  C     0.74973   0.54392   0.69183   0.00000  Uiso   1.00
C1328  C     0.74973   0.95608   0.97484   0.00000  Uiso   1.00
C1329  C     0.89082   0.64124   0.79110   0.00000  Uiso   1.00
C1330  C     0.60991   0.85790   0.87441   0.00000  Uiso   1.00
C1331  C     0.60918   0.85876   0.79110   0.00000  Uiso   1.00
C1332  C     0.94013   0.80866   0.83342   0.00000  Uiso   1.00
C1333  C     0.89009   0.64209   0.87441   0.00000  Uiso   1.00
C1334  C     0.60918   0.64124   0.87556   0.00000  Uiso   1.00
C1335  C     0.89009   0.85791   0.79226   0.00000  Uiso   1.00
C1336  C     0.89082   0.85876   0.87556   0.00000  Uiso   1.00
C1337  C     0.60991   0.64209   0.79226   0.00000  Uiso   1.00
C1338  C     0.64082   0.89124   0.79110   0.00000  Uiso   1.00
C1339  C     0.85991   0.60790   0.87441   0.00000  Uiso   1.00
C1340  C     0.85918   0.60876   0.79110   0.00000  Uiso   1.00
C1341  C     0.64009   0.89209   0.87441   0.00000  Uiso   1.00
C1342  C     0.85918   0.89124   0.87556   0.00000  Uiso   1.00
C1343  C     0.94013   0.69134   0.83325   0.00000  Uiso   1.00
C1344  C     0.64009   0.60791   0.79226   0.00000  Uiso   1.00
C1345  C     0.64082   0.60876   0.87556   0.00000  Uiso   1.00
C1346  C     0.85991   0.89209   0.79226   0.00000  Uiso   1.00
C1347  C     0.59355   0.84195   0.83289   0.00000  Uiso   1.00
C1348  C     0.90645   0.65804   0.83289   0.00000  Uiso   1.00
C1349  C     0.90645   0.84196   0.83378   0.00000  Uiso   1.00
C1350  C     0.59355   0.65804   0.83378   0.00000  Uiso   1.00
C1351  C     0.84355   0.59196   0.83289   0.00000  Uiso   1.00
C1352  C     0.65645   0.90804   0.83289   0.00000  Uiso   1.00
C1353  C     0.65645   0.59196   0.83378   0.00000  Uiso   1.00
C1354  C     0.55987   0.80866   0.83325   0.00000  Uiso   1.00
C1355  C     0.84355   0.90805   0.83378   0.00000  Uiso   1.00
C1356  C     0.80987   0.94134   0.83342   0.00000  Uiso   1.00
C1357  C     0.69013   0.55866   0.83342   0.00000  Uiso   1.00
C1358  C     0.69013   0.94134   0.83325   0.00000  Uiso   1.00
C1359  C     0.80987   0.55866   0.83325   0.00000  Uiso   1.00
C1360  C     0.50027   0.70608   0.69183   0.00000  Uiso   1.00
Cu1361 Cu    0.50000   0.75000   0.88022   0.00000  Uiso   1.00
Cu1362 Cu    0.50000   0.75000   0.78645   0.00000  Uiso   1.00
Cu1363 Cu    0.75000   0.50000   0.88022   0.00000  Uiso   1.00
Cu1364 Cu    0.75000   0.50000   0.78645   0.00000  Uiso   1.00
H1365  H     0.50733   0.60550   0.78453   0.00000  Uiso   1.00
H1366  H     0.59950   0.84404   0.90692   0.00000  Uiso   1.00
H1367  H     0.59717   0.84677   0.75847   0.00000  Uiso   1.00
H1368  H     0.90051   0.65595   0.90692   0.00000  Uiso   1.00
H1369  H     0.59717   0.65323   0.90820   0.00000  Uiso   1.00
H1370  H     0.90051   0.84405   0.75974   0.00000  Uiso   1.00
H1371  H     0.90282   0.84677   0.90820   0.00000  Uiso   1.00
H1372  H     0.59950   0.65596   0.75974   0.00000  Uiso   1.00
H1373  H     0.65282   0.90323   0.75847   0.00000  Uiso   1.00
H1374  H     0.84950   0.59404   0.90692   0.00000  Uiso   1.00
H1375  H     0.84717   0.59677   0.75847   0.00000  Uiso   1.00
H1376  H     0.50739   0.89448   0.88213   0.00000  Uiso   1.00
H1377  H     0.65051   0.90595   0.90692   0.00000  Uiso   1.00
H1378  H     0.84717   0.90323   0.90820   0.00000  Uiso   1.00
H1379  H     0.65051   0.59405   0.75974   0.00000  Uiso   1.00
H1380  H     0.65282   0.59677   0.90820   0.00000  Uiso   1.00
H1381  H     0.84950   0.90596   0.75974   0.00000  Uiso   1.00
H1382  H     0.99267   0.89450   0.78453   0.00000  Uiso   1.00
H1383  H     0.99266   0.60550   0.88214   0.00000  Uiso   1.00
H1384  H     0.75733   0.85550   0.78453   0.00000  Uiso   1.00
H1385  H     0.75739   0.64448   0.88213   0.00000  Uiso   1.00
H1386  H     0.74267   0.64450   0.78453   0.00000  Uiso   1.00
H1387  H     0.74266   0.85550   0.88214   0.00000  Uiso   1.00
H1388  H     0.90282   0.65323   0.75847   0.00000  Uiso   1.00
N1389  N     0.50000   0.75000   0.95069   0.00000  Uiso   1.00
N1390  N     0.50000   0.75000   0.71598   0.00000  Uiso   1.00
N1391  N     0.75000   0.50000   0.95069   0.00000  Uiso   1.00
N1392  N     0.75000   0.50000   0.71598   0.00000  Uiso   1.00
O1393  O     0.54508   0.70491   0.87291   0.00000  Uiso   1.00
O1394  O     0.70491   0.54509   0.79375   0.00000  Uiso   1.00
O1395  O     0.70491   0.54509   0.87291   0.00000  Uiso   1.00
O1396  O     0.79508   0.95491   0.79375   0.00000  Uiso   1.00
O1397  O     0.70491   0.95491   0.79375   0.00000  Uiso   1.00
O1398  O     0.79508   0.54509   0.87291   0.00000  Uiso   1.00
O1399  O     0.79508   0.54509   0.79375   0.00000  Uiso   1.00
O1400  O     0.70491   0.95491   0.87291   0.00000  Uiso   1.00
O1401  O     0.97449   0.61187   0.70297   0.00000  Uiso   1.00
O1402  O     0.54566   0.62810   0.71086   0.00000  Uiso   1.00
O1403  O     0.99963   0.63966   0.77824   0.00000  Uiso   1.00
O1404  O     0.95491   0.79509   0.79375   0.00000  Uiso   1.00
O1405  O     0.97449   0.88814   0.96369   0.00000  Uiso   1.00
O1406  O     0.54566   0.87190   0.95581   0.00000  Uiso   1.00
O1407  O     0.99963   0.86035   0.88843   0.00000  Uiso   1.00
O1408  O     0.52551   0.88813   0.70297   0.00000  Uiso   1.00
O1409  O     0.95434   0.87191   0.71086   0.00000  Uiso   1.00
O1410  O     0.50037   0.86034   0.77824   0.00000  Uiso   1.00
O1411  O     0.52551   0.61187   0.96369   0.00000  Uiso   1.00
O1412  O     0.95434   0.62810   0.95581   0.00000  Uiso   1.00
O1413  O     0.50037   0.63966   0.88843   0.00000  Uiso   1.00
O1414  O     0.72449   0.86187   0.70297   0.00000  Uiso   1.00
O1415  O     0.95491   0.79509   0.87291   0.00000  Uiso   1.00
O1416  O     0.79566   0.87810   0.71086   0.00000  Uiso   1.00
O1417  O     0.74963   0.88966   0.77824   0.00000  Uiso   1.00
O1418  O     0.72449   0.63814   0.96369   0.00000  Uiso   1.00
O1419  O     0.79566   0.62190   0.95581   0.00000  Uiso   1.00
O1420  O     0.74963   0.61035   0.88843   0.00000  Uiso   1.00
O1421  O     0.77551   0.63813   0.70297   0.00000  Uiso   1.00
O1422  O     0.70434   0.62191   0.71086   0.00000  Uiso   1.00
O1423  O     0.75037   0.61034   0.77824   0.00000  Uiso   1.00
O1424  O     0.77551   0.86187   0.96369   0.00000  Uiso   1.00
O1425  O     0.70434   0.87810   0.95581   0.00000  Uiso   1.00
O1426  O     0.54508   0.70491   0.79375   0.00000  Uiso   1.00
O1427  O     0.75037   0.88966   0.88843   0.00000  Uiso   1.00
O1428  O     0.95491   0.70491   0.79375   0.00000  Uiso   1.00
O1429  O     0.54508   0.79509   0.87291   0.00000  Uiso   1.00
O1430  O     0.54508   0.79509   0.79375   0.00000  Uiso   1.00
O1431  O     0.95491   0.70491   0.87291   0.00000  Uiso   1.00
O1432  O     0.79508   0.95491   0.87291   0.00000  Uiso   1.00
S1433  S     0.50468   0.64696   0.72147   0.00000  Uiso   1.00
S1434  S     0.50468   0.85304   0.94520   0.00000  Uiso   1.00
S1435  S     0.99533   0.85305   0.72147   0.00000  Uiso   1.00
S1436  S     0.99532   0.64696   0.94520   0.00000  Uiso   1.00
S1437  S     0.75468   0.89696   0.72147   0.00000  Uiso   1.00
S1438  S     0.75468   0.60305   0.94520   0.00000  Uiso   1.00
S1439  S     0.74533   0.60305   0.72147   0.00000  Uiso   1.00
S1440  S     0.74532   0.89696   0.94520   0.00000  Uiso   1.00
loop_
_geom_bond_atom_site_label_1
_geom_bond_atom_site_label_2
_geom_bond_distance
_geom_bond_site_symmetry_2
_ccdc_geom_bond_type
C1     O106    1.311   .     A
C1     O73     1.307   .     A
C1     C30     1.454   .     S
C2     N69     1.397   .     A
C2     S114    1.846   .     S
C2     C603    1.465   1_455 S
C3     N190    1.397   .     A
C3     S115    1.846   .     S
C3     C1082   1.465   1_554 S
C4     S116    1.846   .     S
C4     C640    1.465   .     S
C4     N189    1.397   .     S
C5     S117    1.846   .     S
C5     C968    1.465   1_554 S
C5     N312    1.397   .     S
C6     N71     1.397   .     A
C6     S118    1.846   .     S
C6     C487    1.465   .     S
C7     S119    1.846   .     S
C7     N72     1.397   .     A
C7     C966    1.465   1_554 S
C8     S120    1.846   .     S
C8     C485    1.465   .     S
C8     N311    1.397   .     S
C9     C20     1.387   .     A
C9     H68     1.083   .     S
C9     C28     1.403   .     A
C10    C27     1.398   .     A
C10    C21     1.381   .     A
C10    H46     1.078   .     S
C11    C18     1.387   .     A
C11    H47     1.083   .     S
C11    C27     1.403   .     A
C12    C29     1.454   .     S
C12    O84     1.311   .     A
C12    O95     1.307   .     A
C13    C28     1.398   .     A
C13    C19     1.381   .     A
C13    H48     1.078   .     S
C14    H49     1.083   .     S
C14    C30     1.403   .     A
C14    C25     1.387   .     A
C15    H50     1.078   .     S
C15    C29     1.398   .     A
C15    C26     1.381   .     A
C16    H51     1.083   .     S
C16    C22     1.387   .     A
C16    C29     1.403   .     A
C17    C30     1.398   .     A
C17    H52     1.078   .     S
C17    C24     1.381   .     A
C18    H53     1.083   .     S
C18    C32     1.403   .     A
C19    C31     1.398   .     A
C19    H54     1.078   .     S
C20    H55     1.083   .     S
C20    C31     1.403   .     A
C21    C32     1.398   .     A
C21    H57     1.078   .     S
C22    C35     1.403   .     A
C22    H58     1.083   .     S
C23    C28     1.454   .     S
C23    O111    1.311   .     A
C23    O108    1.307   .     A
C24    C33     1.398   .     A
C24    H59     1.078   .     S
C25    H60     1.083   .     S
C25    C33     1.403   .     A
C26    H61     1.078   .     S
C26    C35     1.398   .     A
C27    C34     1.454   .     S
C31    C39     1.454   .     S
C32    C38     1.454   .     S
C33    C37     1.454   .     S
C34    O110    1.307   .     A
C34    O109    1.311   .     A
C35    C36     1.454   .     S
C36    O76     1.311   .     A
C36    O112    1.307   .     A
C37    O74     1.311   .     A
C37    O75     1.307   .     A
C38    O77     1.307   .     A
C38    O80     1.311   .     A
C39    O78     1.311   .     A
C39    O79     1.307   .     A
C40    S113    1.846   .     S
C40    C1084   1.465   1_454 S
C40    N70     1.397   .     S
Cu41   Cu42    2.730   .     S
Cu41   O109    1.967   .     S
Cu41   N69     2.051   .     S
Cu41   O73     1.967   .     S
Cu41   O215    1.967   1_455 S
Cu41   O231    1.967   1_455 S
Cu42   O106    1.967   .     S
Cu42   O110    1.967   .     S
Cu42   N70     2.051   .     S
Cu42   O204    1.967   1_455 S
Cu42   O228    1.967   1_455 S
Cu43   O78     1.967   .     S
Cu43   O75     1.967   .     S
Cu43   Cu44    2.730   .     S
Cu43   N71     2.051   .     S
Cu43   O320    1.967   1_545 S
Cu43   O352    1.967   1_545 S
Cu44   O74     1.967   .     S
Cu44   O79     1.967   .     S
Cu44   N72     2.051   .     S
Cu44   O316    1.967   1_545 S
Cu44   O317    1.967   1_545 S
H45    O203    0.991   1_455 S
H56    O207    0.991   1_455 S
H62    O210    0.991   .     S
H63    O213    0.991   .     S
H64    O97     0.991   .     S
H65    O100    0.991   .     S
H66    O103    0.991   .     S
H67    O107    0.991   .     S
N69    C124    1.397   1_455 S
N70    C123    1.397   1_455 A
N71    C248    1.397   1_545 S
N72    C245    1.397   1_545 S
O76    Cu284   1.967   .     S
O77    Cu284   1.967   .     S
O80    Cu283   1.967   .     S
O81    S233    1.499   .     S
O82    S113    1.501   .     D
O83    H165    0.991   .     S
O83    S233    1.673   .     S
O84    Cu162   1.967   .     S
O85    S234    1.499   .     S
O86    S114    1.501   .     D
O87    H176    0.991   .     S
O87    S234    1.673   .     S
O88    S235    1.499   1_455 S
O89    S115    1.501   .     D
O90    H182    0.991   1_455 S
O90    S235    1.673   1_455 S
O91    S236    1.499   1_455 S
O92    S116    1.501   .     D
O93    H183    0.991   1_455 S
O93    S236    1.673   1_455 S
O94    S117    1.499   .     D
O95    Cu161   1.967   .     S
O96    S117    1.501   .     D
O97    S117    1.673   .     S
O98    S118    1.499   .     D
O99    S118    1.501   .     D
O100   S118    1.673   .     S
O101   S119    1.499   .     D
O102   S119    1.501   .     D
O103   S119    1.673   .     S
O104   S120    1.499   .     D
O105   S120    1.501   .     D
O107   S120    1.673   .     S
O108   Cu162   1.967   .     S
O111   Cu161   1.967   .     S
O112   Cu283   1.967   .     S
S113   O201    1.499   1_455 S
S113   O203    1.673   1_455 S
S114   O207    1.673   1_455 S
S114   O205    1.499   1_455 S
S115   O208    1.499   .     S
S115   O210    1.673   .     S
S116   O213    1.673   .     S
S116   O211    1.499   .     S
C121   O226    1.311   .     A
C121   O193    1.307   .     A
C121   C150    1.454   .     S
C122   N189    1.397   .     A
C122   S234    1.846   .     S
C122   C483    1.465   .     S
C123   N70     1.397   1_655 A
C123   S235    1.846   .     S
C123   C962    1.465   1_654 S
C124   S236    1.846   .     S
C124   C520    1.465   1_655 S
C124   N69     1.397   1_655 S
C125   S237    1.846   .     S
C125   C1088   1.465   1_554 S
C125   N432    1.397   .     S
C126   N191    1.397   .     A
C126   S238    1.846   .     S
C126   C607    1.465   .     S
C127   S239    1.846   .     S
C127   N192    1.397   .     A
C127   C1086   1.465   1_554 S
C128   S240    1.846   .     S
C128   C605    1.465   .     S
C128   N431    1.397   .     S
C129   C140    1.387   .     A
C129   H188    1.083   .     S
C129   C148    1.403   .     A
C130   C147    1.398   .     A
C130   C141    1.381   .     A
C130   H166    1.078   .     S
C131   C138    1.387   .     A
C131   H167    1.083   .     S
C131   C147    1.403   .     A
C132   C149    1.454   .     S
C132   O204    1.311   .     A
C132   O215    1.307   .     A
C133   C148    1.398   .     A
C133   C139    1.381   .     A
C133   H168    1.078   .     S
C134   H169    1.083   .     S
C134   C150    1.403   .     A
C134   C145    1.387   .     A
C135   H170    1.078   .     S
C135   C149    1.398   .     A
C135   C146    1.381   .     A
C136   H171    1.083   .     S
C136   C142    1.387   .     A
C136   C149    1.403   .     A
C137   C150    1.398   .     A
C137   H172    1.078   .     S
C137   C144    1.381   .     A
C138   H173    1.083   .     S
C138   C152    1.403   .     A
C139   C151    1.398   .     A
C139   H174    1.078   .     S
C140   H175    1.083   .     S
C140   C151    1.403   .     A
C141   C152    1.398   .     A
C141   H177    1.078   .     S
C142   C155    1.403   .     A
C142   H178    1.083   .     S
C143   C148    1.454   .     S
C143   O231    1.311   .     A
C143   O228    1.307   .     A
C144   C153    1.398   .     A
C144   H179    1.078   .     S
C145   H180    1.083   .     S
C145   C153    1.403   .     A
C146   H181    1.078   .     S
C146   C155    1.398   .     A
C147   C154    1.454   .     S
C151   C159    1.454   .     S
C152   C158    1.454   .     S
C153   C157    1.454   .     S
C154   O230    1.307   .     A
C154   O229    1.311   .     A
C155   C156    1.454   .     S
C156   O196    1.311   .     A
C156   O232    1.307   .     A
C157   O194    1.311   .     A
C157   O195    1.307   .     A
C158   O197    1.307   .     A
C158   O200    1.311   .     A
C159   O198    1.311   .     A
C159   O199    1.307   .     A
C160   S233    1.846   .     S
C160   C964    1.465   1_554 S
C160   N190    1.397   .     S
Cu161  Cu162   2.730   .     S
Cu161  O229    1.967   .     S
Cu161  N189    2.051   .     S
Cu161  O193    1.967   .     S
Cu162  O226    1.967   .     S
Cu162  O230    1.967   .     S
Cu162  N190    2.051   .     S
Cu163  O198    1.967   .     S
Cu163  O195    1.967   .     S
Cu163  Cu164   2.730   .     S
Cu163  N191    2.051   .     S
Cu163  O440    1.967   1_545 S
Cu163  O472    1.967   1_545 S
Cu164  O194    1.967   .     S
Cu164  O199    1.967   .     S
Cu164  N192    2.051   .     S
Cu164  O436    1.967   1_545 S
Cu164  O437    1.967   1_545 S
H182   O90     0.991   1_655 S
H183   O93     0.991   1_655 S
H184   O217    0.991   .     S
H185   O220    0.991   .     S
H186   O223    0.991   .     S
H187   O227    0.991   .     S
N191   C368    1.397   1_545 S
N192   C365    1.397   1_545 S
O196   Cu404   1.967   .     S
O197   Cu404   1.967   .     S
O200   Cu403   1.967   .     S
O201   S113    1.499   1_655 S
O202   S233    1.501   .     D
O203   H45     0.991   1_655 S
O203   S113    1.673   1_655 S
O204   Cu42    1.967   1_655 S
O205   S114    1.499   1_655 S
O206   S234    1.501   .     D
O207   H56     0.991   1_655 S
O207   S114    1.673   1_655 S
O209   S235    1.501   .     D
O212   S236    1.501   .     D
O214   S237    1.499   .     D
O215   Cu41    1.967   1_655 S
O216   S237    1.501   .     D
O217   S237    1.673   .     S
O218   S238    1.499   .     D
O219   S238    1.501   .     D
O220   S238    1.673   .     S
O221   S239    1.499   .     D
O222   S239    1.501   .     D
O223   S239    1.673   .     S
O224   S240    1.499   .     D
O225   S240    1.501   .     D
O227   S240    1.673   .     S
O228   Cu42    1.967   1_655 S
O231   Cu41    1.967   1_655 S
O232   Cu403   1.967   .     S
S235   O88     1.499   1_655 S
S235   O90     1.673   1_655 S
S236   O93     1.673   1_655 S
S236   O91     1.499   1_655 S
C241   O346    1.311   .     A
C241   O313    1.307   .     A
C241   C270    1.454   .     S
C242   N309    1.397   .     A
C242   S354    1.846   .     S
C242   C843    1.465   1_455 S
C243   N430    1.397   .     A
C243   S355    1.846   .     S
C243   C1322   1.465   1_554 S
C244   S356    1.846   .     S
C244   C880    1.465   .     S
C244   N429    1.397   .     S
C245   S357    1.846   .     S
C245   C1208   1.465   1_554 S
C245   N72     1.397   1_565 S
C246   N311    1.397   .     A
C246   S358    1.846   .     S
C246   C727    1.465   .     S
C247   S359    1.846   .     S
C247   N312    1.397   .     A
C247   C1206   1.465   1_554 S
C248   S360    1.846   .     S
C248   C725    1.465   .     S
C248   N71     1.397   1_565 S
C249   C260    1.387   .     A
C249   H308    1.083   .     S
C249   C268    1.403   .     A
C250   C267    1.398   .     A
C250   C261    1.381   .     A
C250   H286    1.078   .     S
C251   C258    1.387   .     A
C251   H287    1.083   .     S
C251   C267    1.403   .     A
C252   C269    1.454   .     S
C252   O324    1.311   .     A
C252   O335    1.307   .     A
C253   C268    1.398   .     A
C253   C259    1.381   .     A
C253   H288    1.078   .     S
C254   H289    1.083   .     S
C254   C270    1.403   .     A
C254   C265    1.387   .     A
C255   H290    1.078   .     S
C255   C269    1.398   .     A
C255   C266    1.381   .     A
C256   H291    1.083   .     S
C256   C262    1.387   .     A
C256   C269    1.403   .     A
C257   C270    1.398   .     A
C257   H292    1.078   .     S
C257   C264    1.381   .     A
C258   H293    1.083   .     S
C258   C272    1.403   .     A
C259   C271    1.398   .     A
C259   H294    1.078   .     S
C260   H295    1.083   .     S
C260   C271    1.403   .     A
C261   C272    1.398   .     A
C261   H297    1.078   .     S
C262   C275    1.403   .     A
C262   H298    1.083   .     S
C263   C268    1.454   .     S
C263   O351    1.311   .     A
C263   O348    1.307   .     A
C264   C273    1.398   .     A
C264   H299    1.078   .     S
C265   H300    1.083   .     S
C265   C273    1.403   .     A
C266   H301    1.078   .     S
C266   C275    1.398   .     A
C267   C274    1.454   .     S
C271   C279    1.454   .     S
C272   C278    1.454   .     S
C273   C277    1.454   .     S
C274   O350    1.307   .     A
C274   O349    1.311   .     A
C275   C276    1.454   .     S
C276   O316    1.311   .     A
C276   O352    1.307   .     A
C277   O314    1.311   .     A
C277   O315    1.307   .     A
C278   O317    1.307   .     A
C278   O320    1.311   .     A
C279   O318    1.311   .     A
C279   O319    1.307   .     A
C280   S353    1.846   .     S
C280   C1324   1.465   1_454 S
C280   N310    1.397   .     S
Cu281  Cu282   2.730   .     S
Cu281  O349    1.967   .     S
Cu281  N309    2.051   .     S
Cu281  O313    1.967   .     S
Cu281  O455    1.967   1_455 S
Cu281  O471    1.967   1_455 S
Cu282  O346    1.967   .     S
Cu282  O350    1.967   .     S
Cu282  N310    2.051   .     S
Cu282  O444    1.967   1_455 S
Cu282  O468    1.967   1_455 S
Cu283  O318    1.967   .     S
Cu283  O315    1.967   .     S
Cu283  Cu284   2.730   .     S
Cu283  N311    2.051   .     S
Cu284  O314    1.967   .     S
Cu284  O319    1.967   .     S
Cu284  N312    2.051   .     S
H285   O443    0.991   1_455 S
H296   O447    0.991   1_455 S
H302   O450    0.991   .     S
H303   O453    0.991   .     S
H304   O337    0.991   .     S
H305   O340    0.991   .     S
H306   O343    0.991   .     S
H307   O347    0.991   .     S
N309   C364    1.397   1_455 S
N310   C363    1.397   1_455 A
O316   Cu44    1.967   1_565 S
O317   Cu44    1.967   1_565 S
O320   Cu43    1.967   1_565 S
O321   S473    1.499   .     S
O322   S353    1.501   .     D
O323   H405    0.991   .     S
O323   S473    1.673   .     S
O324   Cu402   1.967   .     S
O325   S474    1.499   .     S
O326   S354    1.501   .     D
O327   H416    0.991   .     S
O327   S474    1.673   .     S
O328   S475    1.499   1_455 S
O329   S355    1.501   .     D
O330   H422    0.991   1_455 S
O330   S475    1.673   1_455 S
O331   S476    1.499   1_455 S
O332   S356    1.501   .     D
O333   H423    0.991   1_455 S
O333   S476    1.673   1_455 S
O334   S357    1.499   .     D
O335   Cu401   1.967   .     S
O336   S357    1.501   .     D
O337   S357    1.673   .     S
O338   S358    1.499   .     D
O339   S358    1.501   .     D
O340   S358    1.673   .     S
O341   S359    1.499   .     D
O342   S359    1.501   .     D
O343   S359    1.673   .     S
O344   S360    1.499   .     D
O345   S360    1.501   .     D
O347   S360    1.673   .     S
O348   Cu402   1.967   .     S
O351   Cu401   1.967   .     S
O352   Cu43    1.967   1_565 S
S353   O441    1.499   1_455 S
S353   O443    1.673   1_455 S
S354   O447    1.673   1_455 S
S354   O445    1.499   1_455 S
S355   O448    1.499   .     S
S355   O450    1.673   .     S
S356   O453    1.673   .     S
S356   O451    1.499   .     S
C361   O466    1.311   .     A
C361   O433    1.307   .     A
C361   C390    1.454   .     S
C362   N429    1.397   .     A
C362   S474    1.846   .     S
C362   C723    1.465   .     S
C363   N310    1.397   1_655 A
C363   S475    1.846   .     S
C363   C1202   1.465   1_654 S
C364   S476    1.846   .     S
C364   C760    1.465   1_655 S
C364   N309    1.397   1_655 S
C365   S477    1.846   .     S
C365   C1328   1.465   1_554 S
C365   N192    1.397   1_565 S
C366   N431    1.397   .     A
C366   S478    1.846   .     S
C366   C847    1.465   .     S
C367   S479    1.846   .     S
C367   N432    1.397   .     A
C367   C1326   1.465   1_554 S
C368   S480    1.846   .     S
C368   C845    1.465   .     S
C368   N191    1.397   1_565 S
C369   C380    1.387   .     A
C369   H428    1.083   .     S
C369   C388    1.403   .     A
C370   C387    1.398   .     A
C370   C381    1.381   .     A
C370   H406    1.078   .     S
C371   C378    1.387   .     A
C371   H407    1.083   .     S
C371   C387    1.403   .     A
C372   C389    1.454   .     S
C372   O444    1.311   .     A
C372   O455    1.307   .     A
C373   C388    1.398   .     A
C373   C379    1.381   .     A
C373   H408    1.078   .     S
C374   H409    1.083   .     S
C374   C390    1.403   .     A
C374   C385    1.387   .     A
C375   H410    1.078   .     S
C375   C389    1.398   .     A
C375   C386    1.381   .     A
C376   H411    1.083   .     S
C376   C382    1.387   .     A
C376   C389    1.403   .     A
C377   C390    1.398   .     A
C377   H412    1.078   .     S
C377   C384    1.381   .     A
C378   H413    1.083   .     S
C378   C392    1.403   .     A
C379   C391    1.398   .     A
C379   H414    1.078   .     S
C380   H415    1.083   .     S
C380   C391    1.403   .     A
C381   C392    1.398   .     A
C381   H417    1.078   .     S
C382   C395    1.403   .     A
C382   H418    1.083   .     S
C383   C388    1.454   .     S
C383   O471    1.311   .     A
C383   O468    1.307   .     A
C384   C393    1.398   .     A
C384   H419    1.078   .     S
C385   H420    1.083   .     S
C385   C393    1.403   .     A
C386   H421    1.078   .     S
C386   C395    1.398   .     A
C387   C394    1.454   .     S
C391   C399    1.454   .     S
C392   C398    1.454   .     S
C393   C397    1.454   .     S
C394   O470    1.307   .     A
C394   O469    1.311   .     A
C395   C396    1.454   .     S
C396   O436    1.311   .     A
C396   O472    1.307   .     A
C397   O434    1.311   .     A
C397   O435    1.307   .     A
C398   O437    1.307   .     A
C398   O440    1.311   .     A
C399   O438    1.311   .     A
C399   O439    1.307   .     A
C400   S473    1.846   .     S
C400   C1204   1.465   1_554 S
C400   N430    1.397   .     S
Cu401  Cu402   2.730   .     S
Cu401  O469    1.967   .     S
Cu401  N429    2.051   .     S
Cu401  O433    1.967   .     S
Cu402  O466    1.967   .     S
Cu402  O470    1.967   .     S
Cu402  N430    2.051   .     S
Cu403  O438    1.967   .     S
Cu403  O435    1.967   .     S
Cu403  Cu404   2.730   .     S
Cu403  N431    2.051   .     S
Cu404  O434    1.967   .     S
Cu404  O439    1.967   .     S
Cu404  N432    2.051   .     S
H422   O330    0.991   1_655 S
H423   O333    0.991   1_655 S
H424   O457    0.991   .     S
H425   O460    0.991   .     S
H426   O463    0.991   .     S
H427   O467    0.991   .     S
O436   Cu164   1.967   1_565 S
O437   Cu164   1.967   1_565 S
O440   Cu163   1.967   1_565 S
O441   S353    1.499   1_655 S
O442   S473    1.501   .     D
O443   H285    0.991   1_655 S
O443   S353    1.673   1_655 S
O444   Cu282   1.967   1_655 S
O445   S354    1.499   1_655 S
O446   S474    1.501   .     D
O447   H296    0.991   1_655 S
O447   S354    1.673   1_655 S
O449   S475    1.501   .     D
O452   S476    1.501   .     D
O454   S477    1.499   .     D
O455   Cu281   1.967   1_655 S
O456   S477    1.501   .     D
O457   S477    1.673   .     S
O458   S478    1.499   .     D
O459   S478    1.501   .     D
O460   S478    1.673   .     S
O461   S479    1.499   .     D
O462   S479    1.501   .     D
O463   S479    1.673   .     S
O464   S480    1.499   .     D
O465   S480    1.501   .     D
O467   S480    1.673   .     S
O468   Cu282   1.967   1_655 S
O471   Cu281   1.967   1_655 S
O472   Cu163   1.967   1_565 S
S475   O328    1.499   1_655 S
S475   O330    1.673   1_655 S
S476   O333    1.673   1_655 S
S476   O331    1.499   1_655 S
C481   O586    1.311   .     A
C481   O553    1.307   .     A
C481   C510    1.454   .     S
C482   N549    1.397   .     A
C482   S594    1.846   .     S
C482   C1083   1.465   1_455 S
C483   N670    1.397   .     A
C483   S595    1.846   .     S
C484   S596    1.846   .     S
C484   C1120   1.465   .     S
C484   N669    1.397   .     S
C485   S597    1.846   .     S
C485   N792    1.397   .     S
C486   N551    1.397   .     A
C486   S598    1.846   .     S
C486   C967    1.465   .     S
C487   S599    1.846   .     S
C487   N552    1.397   .     A
C488   S600    1.846   .     S
C488   C965    1.465   .     S
C488   N791    1.397   .     S
C489   C500    1.387   .     A
C489   H548    1.083   .     S
C489   C508    1.403   .     A
C490   C507    1.398   .     A
C490   C501    1.381   .     A
C490   H526    1.078   .     S
C491   C498    1.387   .     A
C491   H527    1.083   .     S
C491   C507    1.403   .     A
C492   C509    1.454   .     S
C492   O564    1.311   .     A
C492   O575    1.307   .     A
C493   C508    1.398   .     A
C493   C499    1.381   .     A
C493   H528    1.078   .     S
C494   H529    1.083   .     S
C494   C510    1.403   .     A
C494   C505    1.387   .     A
C495   H530    1.078   .     S
C495   C509    1.398   .     A
C495   C506    1.381   .     A
C496   H531    1.083   .     S
C496   C502    1.387   .     A
C496   C509    1.403   .     A
C497   C510    1.398   .     A
C497   H532    1.078   .     S
C497   C504    1.381   .     A
C498   H533    1.083   .     S
C498   C512    1.403   .     A
C499   C511    1.398   .     A
C499   H534    1.078   .     S
C500   H535    1.083   .     S
C500   C511    1.403   .     A
C501   C512    1.398   .     A
C501   H537    1.078   .     S
C502   C515    1.403   .     A
C502   H538    1.083   .     S
C503   C508    1.454   .     S
C503   O591    1.311   .     A
C503   O588    1.307   .     A
C504   C513    1.398   .     A
C504   H539    1.078   .     S
C505   H540    1.083   .     S
C505   C513    1.403   .     A
C506   H541    1.078   .     S
C506   C515    1.398   .     A
C507   C514    1.454   .     S
C511   C519    1.454   .     S
C512   C518    1.454   .     S
C513   C517    1.454   .     S
C514   O590    1.307   .     A
C514   O589    1.311   .     A
C515   C516    1.454   .     S
C516   O556    1.311   .     A
C516   O592    1.307   .     A
C517   O554    1.311   .     A
C517   O555    1.307   .     A
C518   O557    1.307   .     A
C518   O560    1.311   .     A
C519   O558    1.311   .     A
C519   O559    1.307   .     A
C520   S593    1.846   .     S
C520   C124    1.465   1_455 S
C520   N550    1.397   .     S
Cu521  Cu522   2.730   .     S
Cu521  O589    1.967   .     S
Cu521  N549    2.051   .     S
Cu521  O553    1.967   .     S
Cu521  O695    1.967   1_455 S
Cu521  O711    1.967   1_455 S
Cu522  O586    1.967   .     S
Cu522  O590    1.967   .     S
Cu522  N550    2.051   .     S
Cu522  O684    1.967   1_455 S
Cu522  O708    1.967   1_455 S
Cu523  O558    1.967   .     S
Cu523  O555    1.967   .     S
Cu523  Cu524   2.730   .     S
Cu523  N551    2.051   .     S
Cu523  O800    1.967   1_545 S
Cu523  O832    1.967   1_545 S
Cu524  O554    1.967   .     S
Cu524  O559    1.967   .     S
Cu524  N552    2.051   .     S
Cu524  O796    1.967   1_545 S
Cu524  O797    1.967   1_545 S
H525   O683    0.991   1_455 S
H536   O687    0.991   1_455 S
H542   O690    0.991   .     S
H543   O693    0.991   .     S
H544   O577    0.991   .     S
H545   O580    0.991   .     S
H546   O583    0.991   .     S
H547   O587    0.991   .     S
N549   C604    1.397   1_455 S
N550   C603    1.397   1_455 A
N551   C728    1.397   1_545 S
N552   C725    1.397   1_545 S
O556   Cu764   1.967   .     S
O557   Cu764   1.967   .     S
O560   Cu763   1.967   .     S
O561   S713    1.499   .     S
O562   S593    1.501   .     D
O563   H645    0.991   .     S
O563   S713    1.673   .     S
O564   Cu642   1.967   .     S
O565   S714    1.499   .     S
O566   S594    1.501   .     D
O567   H656    0.991   .     S
O567   S714    1.673   .     S
O568   S715    1.499   1_455 S
O569   S595    1.501   .     D
O570   H662    0.991   1_455 S
O570   S715    1.673   1_455 S
O571   S716    1.499   1_455 S
O572   S596    1.501   .     D
O573   H663    0.991   1_455 S
O573   S716    1.673   1_455 S
O574   S597    1.499   .     D
O575   Cu641   1.967   .     S
O576   S597    1.501   .     D
O577   S597    1.673   .     S
O578   S598    1.499   .     D
O579   S598    1.501   .     D
O580   S598    1.673   .     S
O581   S599    1.499   .     D
O582   S599    1.501   .     D
O583   S599    1.673   .     S
O584   S600    1.499   .     D
O585   S600    1.501   .     D
O587   S600    1.673   .     S
O588   Cu642   1.967   .     S
O591   Cu641   1.967   .     S
O592   Cu763   1.967   .     S
S593   O681    1.499   1_455 S
S593   O683    1.673   1_455 S
S594   O687    1.673   1_455 S
S594   O685    1.499   1_455 S
S595   O688    1.499   .     S
S595   O690    1.673   .     S
S596   O693    1.673   .     S
S596   O691    1.499   .     S
C601   O706    1.311   .     A
C601   O673    1.307   .     A
C601   C630    1.454   .     S
C602   N669    1.397   .     A
C602   S714    1.846   .     S
C602   C963    1.465   .     S
C603   N550    1.397   1_655 A
C603   S715    1.846   .     S
C603   C2      1.465   1_655 S
C604   S716    1.846   .     S
C604   C1000   1.465   1_655 S
C604   N549    1.397   1_655 S
C605   S717    1.846   .     S
C605   N912    1.397   .     S
C606   N671    1.397   .     A
C606   S718    1.846   .     S
C606   C1087   1.465   .     S
C607   S719    1.846   .     S
C607   N672    1.397   .     A
C608   S720    1.846   .     S
C608   C1085   1.465   .     S
C608   N911    1.397   .     S
C609   C620    1.387   .     A
C609   H668    1.083   .     S
C609   C628    1.403   .     A
C610   C627    1.398   .     A
C610   C621    1.381   .     A
C610   H646    1.078   .     S
C611   C618    1.387   .     A
C611   H647    1.083   .     S
C611   C627    1.403   .     A
C612   C629    1.454   .     S
C612   O684    1.311   .     A
C612   O695    1.307   .     A
C613   C628    1.398   .     A
C613   C619    1.381   .     A
C613   H648    1.078   .     S
C614   H649    1.083   .     S
C614   C630    1.403   .     A
C614   C625    1.387   .     A
C615   H650    1.078   .     S
C615   C629    1.398   .     A
C615   C626    1.381   .     A
C616   H651    1.083   .     S
C616   C622    1.387   .     A
C616   C629    1.403   .     A
C617   C630    1.398   .     A
C617   H652    1.078   .     S
C617   C624    1.381   .     A
C618   H653    1.083   .     S
C618   C632    1.403   .     A
C619   C631    1.398   .     A
C619   H654    1.078   .     S
C620   H655    1.083   .     S
C620   C631    1.403   .     A
C621   C632    1.398   .     A
C621   H657    1.078   .     S
C622   C635    1.403   .     A
C622   H658    1.083   .     S
C623   C628    1.454   .     S
C623   O711    1.311   .     A
C623   O708    1.307   .     A
C624   C633    1.398   .     A
C624   H659    1.078   .     S
C625   H660    1.083   .     S
C625   C633    1.403   .     A
C626   H661    1.078   .     S
C626   C635    1.398   .     A
C627   C634    1.454   .     S
C631   C639    1.454   .     S
C632   C638    1.454   .     S
C633   C637    1.454   .     S
C634   O710    1.307   .     A
C634   O709    1.311   .     A
C635   C636    1.454   .     S
C636   O676    1.311   .     A
C636   O712    1.307   .     A
C637   O674    1.311   .     A
C637   O675    1.307   .     A
C638   O677    1.307   .     A
C638   O680    1.311   .     A
C639   O678    1.311   .     A
C639   O679    1.307   .     A
C640   S713    1.846   .     S
C640   N670    1.397   .     S
Cu641  Cu642   2.730   .     S
Cu641  O709    1.967   .     S
Cu641  N669    2.051   .     S
Cu641  O673    1.967   .     S
Cu642  O706    1.967   .     S
Cu642  O710    1.967   .     S
Cu642  N670    2.051   .     S
Cu643  O678    1.967   .     S
Cu643  O675    1.967   .     S
Cu643  Cu644   2.730   .     S
Cu643  N671    2.051   .     S
Cu643  O920    1.967   1_545 S
Cu643  O952    1.967   1_545 S
Cu644  O674    1.967   .     S
Cu644  O679    1.967   .     S
Cu644  N672    2.051   .     S
Cu644  O916    1.967   1_545 S
Cu644  O917    1.967   1_545 S
H662   O570    0.991   1_655 S
H663   O573    0.991   1_655 S
H664   O697    0.991   .     S
H665   O700    0.991   .     S
H666   O703    0.991   .     S
H667   O707    0.991   .     S
N671   C848    1.397   1_545 S
N672   C845    1.397   1_545 S
O676   Cu884   1.967   .     S
O677   Cu884   1.967   .     S
O680   Cu883   1.967   .     S
O681   S593    1.499   1_655 S
O682   S713    1.501   .     D
O683   H525    0.991   1_655 S
O683   S593    1.673   1_655 S
O684   Cu522   1.967   1_655 S
O685   S594    1.499   1_655 S
O686   S714    1.501   .     D
O687   H536    0.991   1_655 S
O687   S594    1.673   1_655 S
O689   S715    1.501   .     D
O692   S716    1.501   .     D
O694   S717    1.499   .     D
O695   Cu521   1.967   1_655 S
O696   S717    1.501   .     D
O697   S717    1.673   .     S
O698   S718    1.499   .     D
O699   S718    1.501   .     D
O700   S718    1.673   .     S
O701   S719    1.499   .     D
O702   S719    1.501   .     D
O703   S719    1.673   .     S
O704   S720    1.499   .     D
O705   S720    1.501   .     D
O707   S720    1.673   .     S
O708   Cu522   1.967   1_655 S
O711   Cu521   1.967   1_655 S
O712   Cu883   1.967   .     S
S715   O568    1.499   1_655 S
S715   O570    1.673   1_655 S
S716   O573    1.673   1_655 S
S716   O571    1.499   1_655 S
C721   O826    1.311   .     A
C721   O793    1.307   .     A
C721   C750    1.454   .     S
C722   N789    1.397   .     A
C722   S834    1.846   .     S
C722   C1323   1.465   1_455 S
C723   N910    1.397   .     A
C723   S835    1.846   .     S
C724   S836    1.846   .     S
C724   C1360   1.465   .     S
C724   N909    1.397   .     S
C725   S837    1.846   .     S
C725   N552    1.397   1_565 S
C726   N791    1.397   .     A
C726   S838    1.846   .     S
C726   C1207   1.465   .     S
C727   S839    1.846   .     S
C727   N792    1.397   .     A
C728   S840    1.846   .     S
C728   C1205   1.465   .     S
C728   N551    1.397   1_565 S
C729   C740    1.387   .     A
C729   H788    1.083   .     S
C729   C748    1.403   .     A
C730   C747    1.398   .     A
C730   C741    1.381   .     A
C730   H766    1.078   .     S
C731   C738    1.387   .     A
C731   H767    1.083   .     S
C731   C747    1.403   .     A
C732   C749    1.454   .     S
C732   O804    1.311   .     A
C732   O815    1.307   .     A
C733   C748    1.398   .     A
C733   C739    1.381   .     A
C733   H768    1.078   .     S
C734   H769    1.083   .     S
C734   C750    1.403   .     A
C734   C745    1.387   .     A
C735   H770    1.078   .     S
C735   C749    1.398   .     A
C735   C746    1.381   .     A
C736   H771    1.083   .     S
C736   C742    1.387   .     A
C736   C749    1.403   .     A
C737   C750    1.398   .     A
C737   H772    1.078   .     S
C737   C744    1.381   .     A
C738   H773    1.083   .     S
C738   C752    1.403   .     A
C739   C751    1.398   .     A
C739   H774    1.078   .     S
C740   H775    1.083   .     S
C740   C751    1.403   .     A
C741   C752    1.398   .     A
C741   H777    1.078   .     S
C742   C755    1.403   .     A
C742   H778    1.083   .     S
C743   C748    1.454   .     S
C743   O831    1.311   .     A
C743   O828    1.307   .     A
C744   C753    1.398   .     A
C744   H779    1.078   .     S
C745   H780    1.083   .     S
C745   C753    1.403   .     A
C746   H781    1.078   .     S
C746   C755    1.398   .     A
C747   C754    1.454   .     S
C751   C759    1.454   .     S
C752   C758    1.454   .     S
C753   C757    1.454   .     S
C754   O830    1.307   .     A
C754   O829    1.311   .     A
C755   C756    1.454   .     S
C756   O796    1.311   .     A
C756   O832    1.307   .     A
C757   O794    1.311   .     A
C757   O795    1.307   .     A
C758   O797    1.307   .     A
C758   O800    1.311   .     A
C759   O798    1.311   .     A
C759   O799    1.307   .     A
C760   S833    1.846   .     S
C760   C364    1.465   1_455 S
C760   N790    1.397   .     S
Cu761  Cu762   2.730   .     S
Cu761  O829    1.967   .     S
Cu761  N789    2.051   .     S
Cu761  O793    1.967   .     S
Cu761  O935    1.967   1_455 S
Cu761  O951    1.967   1_455 S
Cu762  O826    1.967   .     S
Cu762  O830    1.967   .     S
Cu762  N790    2.051   .     S
Cu762  O924    1.967   1_455 S
Cu762  O948    1.967   1_455 S
Cu763  O798    1.967   .     S
Cu763  O795    1.967   .     S
Cu763  Cu764   2.730   .     S
Cu763  N791    2.051   .     S
Cu764  O794    1.967   .     S
Cu764  O799    1.967   .     S
Cu764  N792    2.051   .     S
H765   O923    0.991   1_455 S
H776   O927    0.991   1_455 S
H782   O930    0.991   .     S
H783   O933    0.991   .     S
H784   O817    0.991   .     S
H785   O820    0.991   .     S
H786   O823    0.991   .     S
H787   O827    0.991   .     S
N789   C844    1.397   1_455 S
N790   C843    1.397   1_455 A
O796   Cu524   1.967   1_565 S
O797   Cu524   1.967   1_565 S
O800   Cu523   1.967   1_565 S
O801   S953    1.499   .     S
O802   S833    1.501   .     D
O803   H885    0.991   .     S
O803   S953    1.673   .     S
O804   Cu882   1.967   .     S
O805   S954    1.499   .     S
O806   S834    1.501   .     D
O807   H896    0.991   .     S
O807   S954    1.673   .     S
O808   S955    1.499   1_455 S
O809   S835    1.501   .     D
O810   H902    0.991   1_455 S
O810   S955    1.673   1_455 S
O811   S956    1.499   1_455 S
O812   S836    1.501   .     D
O813   H903    0.991   1_455 S
O813   S956    1.673   1_455 S
O814   S837    1.499   .     D
O815   Cu881   1.967   .     S
O816   S837    1.501   .     D
O817   S837    1.673   .     S
O818   S838    1.499   .     D
O819   S838    1.501   .     D
O820   S838    1.673   .     S
O821   S839    1.499   .     D
O822   S839    1.501   .     D
O823   S839    1.673   .     S
O824   S840    1.499   .     D
O825   S840    1.501   .     D
O827   S840    1.673   .     S
O828   Cu882   1.967   .     S
O831   Cu881   1.967   .     S
O832   Cu523   1.967   1_565 S
S833   O921    1.499   1_455 S
S833   O923    1.673   1_455 S
S834   O927    1.673   1_455 S
S834   O925    1.499   1_455 S
S835   O928    1.499   .     S
S835   O930    1.673   .     S
S836   O933    1.673   .     S
S836   O931    1.499   .     S
C841   O946    1.311   .     A
C841   O913    1.307   .     A
C841   C870    1.454   .     S
C842   N909    1.397   .     A
C842   S954    1.846   .     S
C842   C1203   1.465   .     S
C843   N790    1.397   1_655 A
C843   S955    1.846   .     S
C843   C242    1.465   1_655 S
C844   S956    1.846   .     S
C844   C1240   1.465   1_655 S
C844   N789    1.397   1_655 S
C845   S957    1.846   .     S
C845   N672    1.397   1_565 S
C846   N911    1.397   .     A
C846   S958    1.846   .     S
C846   C1327   1.465   .     S
C847   S959    1.846   .     S
C847   N912    1.397   .     A
C848   S960    1.846   .     S
C848   C1325   1.465   .     S
C848   N671    1.397   1_565 S
C849   C860    1.387   .     A
C849   H908    1.083   .     S
C849   C868    1.403   .     A
C850   C867    1.398   .     A
C850   C861    1.381   .     A
C850   H886    1.078   .     S
C851   C858    1.387   .     A
C851   H887    1.083   .     S
C851   C867    1.403   .     A
C852   C869    1.454   .     S
C852   O924    1.311   .     A
C852   O935    1.307   .     A
C853   C868    1.398   .     A
C853   C859    1.381   .     A
C853   H888    1.078   .     S
C854   H889    1.083   .     S
C854   C870    1.403   .     A
C854   C865    1.387   .     A
C855   H890    1.078   .     S
C855   C869    1.398   .     A
C855   C866    1.381   .     A
C856   H891    1.083   .     S
C856   C862    1.387   .     A
C856   C869    1.403   .     A
C857   C870    1.398   .     A
C857   H892    1.078   .     S
C857   C864    1.381   .     A
C858   H893    1.083   .     S
C858   C872    1.403   .     A
C859   C871    1.398   .     A
C859   H894    1.078   .     S
C860   H895    1.083   .     S
C860   C871    1.403   .     A
C861   C872    1.398   .     A
C861   H897    1.078   .     S
C862   C875    1.403   .     A
C862   H898    1.083   .     S
C863   C868    1.454   .     S
C863   O951    1.311   .     A
C863   O948    1.307   .     A
C864   C873    1.398   .     A
C864   H899    1.078   .     S
C865   H900    1.083   .     S
C865   C873    1.403   .     A
C866   H901    1.078   .     S
C866   C875    1.398   .     A
C867   C874    1.454   .     S
C871   C879    1.454   .     S
C872   C878    1.454   .     S
C873   C877    1.454   .     S
C874   O950    1.307   .     A
C874   O949    1.311   .     A
C875   C876    1.454   .     S
C876   O916    1.311   .     A
C876   O952    1.307   .     A
C877   O914    1.311   .     A
C877   O915    1.307   .     A
C878   O917    1.307   .     A
C878   O920    1.311   .     A
C879   O918    1.311   .     A
C879   O919    1.307   .     A
C880   S953    1.846   .     S
C880   N910    1.397   .     S
Cu881  Cu882   2.730   .     S
Cu881  O949    1.967   .     S
Cu881  N909    2.051   .     S
Cu881  O913    1.967   .     S
Cu882  O946    1.967   .     S
Cu882  O950    1.967   .     S
Cu882  N910    2.051   .     S
Cu883  O918    1.967   .     S
Cu883  O915    1.967   .     S
Cu883  Cu884   2.730   .     S
Cu883  N911    2.051   .     S
Cu884  O914    1.967   .     S
Cu884  O919    1.967   .     S
Cu884  N912    2.051   .     S
H902   O810    0.991   1_655 S
H903   O813    0.991   1_655 S
H904   O937    0.991   .     S
H905   O940    0.991   .     S
H906   O943    0.991   .     S
H907   O947    0.991   .     S
O916   Cu644   1.967   1_565 S
O917   Cu644   1.967   1_565 S
O920   Cu643   1.967   1_565 S
O921   S833    1.499   1_655 S
O922   S953    1.501   .     D
O923   H765    0.991   1_655 S
O923   S833    1.673   1_655 S
O924   Cu762   1.967   1_655 S
O925   S834    1.499   1_655 S
O926   S954    1.501   .     D
O927   H776    0.991   1_655 S
O927   S834    1.673   1_655 S
O929   S955    1.501   .     D
O932   S956    1.501   .     D
O934   S957    1.499   .     D
O935   Cu761   1.967   1_655 S
O936   S957    1.501   .     D
O937   S957    1.673   .     S
O938   S958    1.499   .     D
O939   S958    1.501   .     D
O940   S958    1.673   .     S
O941   S959    1.499   .     D
O942   S959    1.501   .     D
O943   S959    1.673   .     S
O944   S960    1.499   .     D
O945   S960    1.501   .     D
O947   S960    1.673   .     S
O948   Cu762   1.967   1_655 S
O951   Cu761   1.967   1_655 S
O952   Cu643   1.967   1_565 S
S955   O808    1.499   1_655 S
S955   O810    1.673   1_655 S
S956   O813    1.673   1_655 S
S956   O811    1.499   1_655 S
C961   O1066   1.311   .     A
C961   O1033   1.307   .     A
C961   C990    1.454   .     S
C962   N1029   1.397   .     A
C962   S1074   1.846   .     S
C962   C123    1.465   1_456 S
C963   N1150   1.397   .     A
C963   S1075   1.846   .     S
C964   S1076   1.846   .     S
C964   C160    1.465   1_556 S
C964   N1149   1.397   .     S
C965   S1077   1.846   .     S
C965   N1272   1.397   .     S
C966   N1031   1.397   .     A
C966   S1078   1.846   .     S
C966   C7      1.465   1_556 S
C967   S1079   1.846   .     S
C967   N1032   1.397   .     A
C968   S1080   1.846   .     S
C968   C5      1.465   1_556 S
C968   N1271   1.397   .     S
C969   C980    1.387   .     A
C969   H1028   1.083   .     S
C969   C988    1.403   .     A
C970   C987    1.398   .     A
C970   C981    1.381   .     A
C970   H1006   1.078   .     S
C971   C978    1.387   .     A
C971   H1007   1.083   .     S
C971   C987    1.403   .     A
C972   C989    1.454   .     S
C972   O1044   1.311   .     A
C972   O1055   1.307   .     A
C973   C988    1.398   .     A
C973   C979    1.381   .     A
C973   H1008   1.078   .     S
C974   H1009   1.083   .     S
C974   C990    1.403   .     A
C974   C985    1.387   .     A
C975   H1010   1.078   .     S
C975   C989    1.398   .     A
C975   C986    1.381   .     A
C976   H1011   1.083   .     S
C976   C982    1.387   .     A
C976   C989    1.403   .     A
C977   C990    1.398   .     A
C977   H1012   1.078   .     S
C977   C984    1.381   .     A
C978   H1013   1.083   .     S
C978   C992    1.403   .     A
C979   C991    1.398   .     A
C979   H1014   1.078   .     S
C980   H1015   1.083   .     S
C980   C991    1.403   .     A
C981   C992    1.398   .     A
C981   H1017   1.078   .     S
C982   C995    1.403   .     A
C982   H1018   1.083   .     S
C983   C988    1.454   .     S
C983   O1071   1.311   .     A
C983   O1068   1.307   .     A
C984   C993    1.398   .     A
C984   H1019   1.078   .     S
C985   H1020   1.083   .     S
C985   C993    1.403   .     A
C986   H1021   1.078   .     S
C986   C995    1.398   .     A
C987   C994    1.454   .     S
C991   C999    1.454   .     S
C992   C998    1.454   .     S
C993   C997    1.454   .     S
C994   O1070   1.307   .     A
C994   O1069   1.311   .     A
C995   C996    1.454   .     S
C996   O1036   1.311   .     A
C996   O1072   1.307   .     A
C997   O1034   1.311   .     A
C997   O1035   1.307   .     A
C998   O1037   1.307   .     A
C998   O1040   1.311   .     A
C999   O1038   1.311   .     A
C999   O1039   1.307   .     A
C1000  S1073   1.846   .     S
C1000  C604    1.465   1_455 S
C1000  N1030   1.397   .     S
Cu1001 Cu1002  2.730   .     S
Cu1001 O1069   1.967   .     S
Cu1001 N1029   2.051   .     S
Cu1001 O1033   1.967   .     S
Cu1001 O1175   1.967   1_455 S
Cu1001 O1191   1.967   1_455 S
Cu1002 O1066   1.967   .     S
Cu1002 O1070   1.967   .     S
Cu1002 N1030   2.051   .     S
Cu1002 O1164   1.967   1_455 S
Cu1002 O1188   1.967   1_455 S
Cu1003 O1038   1.967   .     S
Cu1003 O1035   1.967   .     S
Cu1003 Cu1004  2.730   .     S
Cu1003 N1031   2.051   .     S
Cu1003 O1280   1.967   1_545 S
Cu1003 O1312   1.967   1_545 S
Cu1004 O1034   1.967   .     S
Cu1004 O1039   1.967   .     S
Cu1004 N1032   2.051   .     S
Cu1004 O1276   1.967   1_545 S
Cu1004 O1277   1.967   1_545 S
H1005  O1163   0.991   1_455 S
H1016  O1167   0.991   1_455 S
H1022  O1170   0.991   .     S
H1023  O1173   0.991   .     S
H1024  O1057   0.991   .     S
H1025  O1060   0.991   .     S
H1026  O1063   0.991   .     S
H1027  O1067   0.991   .     S
N1029  C1084   1.397   1_455 S
N1030  C1083   1.397   1_455 A
N1031  C1208   1.397   1_545 S
N1032  C1205   1.397   1_545 S
O1036  Cu1244  1.967   .     S
O1037  Cu1244  1.967   .     S
O1040  Cu1243  1.967   .     S
O1041  S1193   1.499   .     S
O1042  S1073   1.501   .     D
O1043  H1125   0.991   .     S
O1043  S1193   1.673   .     S
O1044  Cu1122  1.967   .     S
O1045  S1194   1.499   .     S
O1046  S1074   1.501   .     D
O1047  H1136   0.991   .     S
O1047  S1194   1.673   .     S
O1048  S1195   1.499   1_455 S
O1049  S1075   1.501   .     D
O1050  H1142   0.991   1_455 S
O1050  S1195   1.673   1_455 S
O1051  S1196   1.499   1_455 S
O1052  S1076   1.501   .     D
O1053  H1143   0.991   1_455 S
O1053  S1196   1.673   1_455 S
O1054  S1077   1.499   .     D
O1055  Cu1121  1.967   .     S
O1056  S1077   1.501   .     D
O1057  S1077   1.673   .     S
O1058  S1078   1.499   .     D
O1059  S1078   1.501   .     D
O1060  S1078   1.673   .     S
O1061  S1079   1.499   .     D
O1062  S1079   1.501   .     D
O1063  S1079   1.673   .     S
O1064  S1080   1.499   .     D
O1065  S1080   1.501   .     D
O1067  S1080   1.673   .     S
O1068  Cu1122  1.967   .     S
O1071  Cu1121  1.967   .     S
O1072  Cu1243  1.967   .     S
S1073  O1161   1.499   1_455 S
S1073  O1163   1.673   1_455 S
S1074  O1167   1.673   1_455 S
S1074  O1165   1.499   1_455 S
S1075  O1168   1.499   .     S
S1075  O1170   1.673   .     S
S1076  O1173   1.673   .     S
S1076  O1171   1.499   .     S
C1081  O1186   1.311   .     A
C1081  O1153   1.307   .     A
C1081  C1110   1.454   .     S
C1082  N1149   1.397   .     A
C1082  S1194   1.846   .     S
C1082  C3      1.465   1_556 S
C1083  N1030   1.397   1_655 A
C1083  S1195   1.846   .     S
C1083  C482    1.465   1_655 S
C1084  S1196   1.846   .     S
C1084  C40     1.465   1_656 S
C1084  N1029   1.397   1_655 S
C1085  S1197   1.846   .     S
C1085  N1392   1.397   .     S
C1086  N1151   1.397   .     A
C1086  S1198   1.846   .     S
C1086  C127    1.465   1_556 S
C1087  S1199   1.846   .     S
C1087  N1152   1.397   .     A
C1088  S1200   1.846   .     S
C1088  C125    1.465   1_556 S
C1088  N1391   1.397   .     S
C1089  C1100   1.387   .     A
C1089  H1148   1.083   .     S
C1089  C1108   1.403   .     A
C1090  C1107   1.398   .     A
C1090  C1101   1.381   .     A
C1090  H1126   1.078   .     S
C1091  C1098   1.387   .     A
C1091  H1127   1.083   .     S
C1091  C1107   1.403   .     A
C1092  C1109   1.454   .     S
C1092  O1164   1.311   .     A
C1092  O1175   1.307   .     A
C1093  C1108   1.398   .     A
C1093  C1099   1.381   .     A
C1093  H1128   1.078   .     S
C1094  H1129   1.083   .     S
C1094  C1110   1.403   .     A
C1094  C1105   1.387   .     A
C1095  H1130   1.078   .     S
C1095  C1109   1.398   .     A
C1095  C1106   1.381   .     A
C1096  H1131   1.083   .     S
C1096  C1102   1.387   .     A
C1096  C1109   1.403   .     A
C1097  C1110   1.398   .     A
C1097  H1132   1.078   .     S
C1097  C1104   1.381   .     A
C1098  H1133   1.083   .     S
C1098  C1112   1.403   .     A
C1099  C1111   1.398   .     A
C1099  H1134   1.078   .     S
C1100  H1135   1.083   .     S
C1100  C1111   1.403   .     A
C1101  C1112   1.398   .     A
C1101  H1137   1.078   .     S
C1102  C1115   1.403   .     A
C1102  H1138   1.083   .     S
C1103  C1108   1.454   .     S
C1103  O1191   1.311   .     A
C1103  O1188   1.307   .     A
C1104  C1113   1.398   .     A
C1104  H1139   1.078   .     S
C1105  H1140   1.083   .     S
C1105  C1113   1.403   .     A
C1106  H1141   1.078   .     S
C1106  C1115   1.398   .     A
C1107  C1114   1.454   .     S
C1111  C1119   1.454   .     S
C1112  C1118   1.454   .     S
C1113  C1117   1.454   .     S
C1114  O1190   1.307   .     A
C1114  O1189   1.311   .     A
C1115  C1116   1.454   .     S
C1116  O1156   1.311   .     A
C1116  O1192   1.307   .     A
C1117  O1154   1.311   .     A
C1117  O1155   1.307   .     A
C1118  O1157   1.307   .     A
C1118  O1160   1.311   .     A
C1119  O1158   1.311   .     A
C1119  O1159   1.307   .     A
C1120  S1193   1.846   .     S
C1120  N1150   1.397   .     S
Cu1121 Cu1122  2.730   .     S
Cu1121 O1189   1.967   .     S
Cu1121 N1149   2.051   .     S
Cu1121 O1153   1.967   .     S
Cu1122 O1186   1.967   .     S
Cu1122 O1190   1.967   .     S
Cu1122 N1150   2.051   .     S
Cu1123 O1158   1.967   .     S
Cu1123 O1155   1.967   .     S
Cu1123 Cu1124  2.730   .     S
Cu1123 N1151   2.051   .     S
Cu1123 O1400   1.967   1_545 S
Cu1123 O1432   1.967   1_545 S
Cu1124 O1154   1.967   .     S
Cu1124 O1159   1.967   .     S
Cu1124 N1152   2.051   .     S
Cu1124 O1396   1.967   1_545 S
Cu1124 O1397   1.967   1_545 S
H1142  O1050   0.991   1_655 S
H1143  O1053   0.991   1_655 S
H1144  O1177   0.991   .     S
H1145  O1180   0.991   .     S
H1146  O1183   0.991   .     S
H1147  O1187   0.991   .     S
N1151  C1328   1.397   1_545 S
N1152  C1325   1.397   1_545 S
O1156  Cu1364  1.967   .     S
O1157  Cu1364  1.967   .     S
O1160  Cu1363  1.967   .     S
O1161  S1073   1.499   1_655 S
O1162  S1193   1.501   .     D
O1163  H1005   0.991   1_655 S
O1163  S1073   1.673   1_655 S
O1164  Cu1002  1.967   1_655 S
O1165  S1074   1.499   1_655 S
O1166  S1194   1.501   .     D
O1167  H1016   0.991   1_655 S
O1167  S1074   1.673   1_655 S
O1169  S1195   1.501   .     D
O1172  S1196   1.501   .     D
O1174  S1197   1.499   .     D
O1175  Cu1001  1.967   1_655 S
O1176  S1197   1.501   .     D
O1177  S1197   1.673   .     S
O1178  S1198   1.499   .     D
O1179  S1198   1.501   .     D
O1180  S1198   1.673   .     S
O1181  S1199   1.499   .     D
O1182  S1199   1.501   .     D
O1183  S1199   1.673   .     S
O1184  S1200   1.499   .     D
O1185  S1200   1.501   .     D
O1187  S1200   1.673   .     S
O1188  Cu1002  1.967   1_655 S
O1191  Cu1001  1.967   1_655 S
O1192  Cu1363  1.967   .     S
S1195  O1048   1.499   1_655 S
S1195  O1050   1.673   1_655 S
S1196  O1053   1.673   1_655 S
S1196  O1051   1.499   1_655 S
C1201  O1306   1.311   .     A
C1201  O1273   1.307   .     A
C1201  C1230   1.454   .     S
C1202  N1269   1.397   .     A
C1202  S1314   1.846   .     S
C1202  C363    1.465   1_456 S
C1203  N1390   1.397   .     A
C1203  S1315   1.846   .     S
C1204  S1316   1.846   .     S
C1204  C400    1.465   1_556 S
C1204  N1389   1.397   .     S
C1205  S1317   1.846   .     S
C1205  N1032   1.397   1_565 S
C1206  N1271   1.397   .     A
C1206  S1318   1.846   .     S
C1206  C247    1.465   1_556 S
C1207  S1319   1.846   .     S
C1207  N1272   1.397   .     A
C1208  S1320   1.846   .     S
C1208  C245    1.465   1_556 S
C1208  N1031   1.397   1_565 S
C1209  C1220   1.387   .     A
C1209  H1268   1.083   .     S
C1209  C1228   1.403   .     A
C1210  C1227   1.398   .     A
C1210  C1221   1.381   .     A
C1210  H1246   1.078   .     S
C1211  C1218   1.387   .     A
C1211  H1247   1.083   .     S
C1211  C1227   1.403   .     A
C1212  C1229   1.454   .     S
C1212  O1284   1.311   .     A
C1212  O1295   1.307   .     A
C1213  C1228   1.398   .     A
C1213  C1219   1.381   .     A
C1213  H1248   1.078   .     S
C1214  H1249   1.083   .     S
C1214  C1230   1.403   .     A
C1214  C1225   1.387   .     A
C1215  H1250   1.078   .     S
C1215  C1229   1.398   .     A
C1215  C1226   1.381   .     A
C1216  H1251   1.083   .     S
C1216  C1222   1.387   .     A
C1216  C1229   1.403   .     A
C1217  C1230   1.398   .     A
C1217  H1252   1.078   .     S
C1217  C1224   1.381   .     A
C1218  H1253   1.083   .     S
C1218  C1232   1.403   .     A
C1219  C1231   1.398   .     A
C1219  H1254   1.078   .     S
C1220  H1255   1.083   .     S
C1220  C1231   1.403   .     A
C1221  C1232   1.398   .     A
C1221  H1257   1.078   .     S
C1222  C1235   1.403   .     A
C1222  H1258   1.083   .     S
C1223  C1228   1.454   .     S
C1223  O1311   1.311   .     A
C1223  O1308   1.307   .     A
C1224  C1233   1.398   .     A
C1224  H1259   1.078   .     S
C1225  H1260   1.083   .     S
C1225  C1233   1.403   .     A
C1226  H1261   1.078   .     S
C1226  C1235   1.398   .     A
C1227  C1234   1.454   .     S
C1231  C1239   1.454   .     S
C1232  C1238   1.454   .     S
C1233  C1237   1.454   .     S
C1234  O1310   1.307   .     A
C1234  O1309   1.311   .     A
C1235  C1236   1.454   .     S
C1236  O1276   1.311   .     A
C1236  O1312   1.307   .     A
C1237  O1274   1.311   .     A
C1237  O1275   1.307   .     A
C1238  O1277   1.307   .     A
C1238  O1280   1.311   .     A
C1239  O1278   1.311   .     A
C1239  O1279   1.307   .     A
C1240  S1313   1.846   .     S
C1240  C844    1.465   1_455 S
C1240  N1270   1.397   .     S
Cu1241 Cu1242  2.730   .     S
Cu1241 O1309   1.967   .     S
Cu1241 N1269   2.051   .     S
Cu1241 O1273   1.967   .     S
Cu1241 O1415   1.967   1_455 S
Cu1241 O1431   1.967   1_455 S
Cu1242 O1306   1.967   .     S
Cu1242 O1310   1.967   .     S
Cu1242 N1270   2.051   .     S
Cu1242 O1404   1.967   1_455 S
Cu1242 O1428   1.967   1_455 S
Cu1243 O1278   1.967   .     S
Cu1243 O1275   1.967   .     S
Cu1243 Cu1244  2.730   .     S
Cu1243 N1271   2.051   .     S
Cu1244 O1274   1.967   .     S
Cu1244 O1279   1.967   .     S
Cu1244 N1272   2.051   .     S
H1245  O1403   0.991   1_455 S
H1256  O1407   0.991   1_455 S
H1262  O1410   0.991   .     S
H1263  O1413   0.991   .     S
H1264  O1297   0.991   .     S
H1265  O1300   0.991   .     S
H1266  O1303   0.991   .     S
H1267  O1307   0.991   .     S
N1269  C1324   1.397   1_455 S
N1270  C1323   1.397   1_455 A
O1276  Cu1004  1.967   1_565 S
O1277  Cu1004  1.967   1_565 S
O1280  Cu1003  1.967   1_565 S
O1281  S1433   1.499   .     S
O1282  S1313   1.501   .     D
O1283  H1365   0.991   .     S
O1283  S1433   1.673   .     S
O1284  Cu1362  1.967   .     S
O1285  S1434   1.499   .     S
O1286  S1314   1.501   .     D
O1287  H1376   0.991   .     S
O1287  S1434   1.673   .     S
O1288  S1435   1.499   1_455 S
O1289  S1315   1.501   .     D
O1290  H1382   0.991   1_455 S
O1290  S1435   1.673   1_455 S
O1291  S1436   1.499   1_455 S
O1292  S1316   1.501   .     D
O1293  H1383   0.991   1_455 S
O1293  S1436   1.673   1_455 S
O1294  S1317   1.499   .     D
O1295  Cu1361  1.967   .     S
O1296  S1317   1.501   .     D
O1297  S1317   1.673   .     S
O1298  S1318   1.499   .     D
O1299  S1318   1.501   .     D
O1300  S1318   1.673   .     S
O1301  S1319   1.499   .     D
O1302  S1319   1.501   .     D
O1303  S1319   1.673   .     S
O1304  S1320   1.499   .     D
O1305  S1320   1.501   .     D
O1307  S1320   1.673   .     S
O1308  Cu1362  1.967   .     S
O1311  Cu1361  1.967   .     S
O1312  Cu1003  1.967   1_565 S
S1313  O1401   1.499   1_455 S
S1313  O1403   1.673   1_455 S
S1314  O1407   1.673   1_455 S
S1314  O1405   1.499   1_455 S
S1315  O1408   1.499   .     S
S1315  O1410   1.673   .     S
S1316  O1413   1.673   .     S
S1316  O1411   1.499   .     S
C1321  O1426   1.311   .     A
C1321  O1393   1.307   .     A
C1321  C1350   1.454   .     S
C1322  N1389   1.397   .     A
C1322  S1434   1.846   .     S
C1322  C243    1.465   1_556 S
C1323  N1270   1.397   1_655 A
C1323  S1435   1.846   .     S
C1323  C722    1.465   1_655 S
C1324  S1436   1.846   .     S
C1324  C280    1.465   1_656 S
C1324  N1269   1.397   1_655 S
C1325  S1437   1.846   .     S
C1325  N1152   1.397   1_565 S
C1326  N1391   1.397   .     A
C1326  S1438   1.846   .     S
C1326  C367    1.465   1_556 S
C1327  S1439   1.846   .     S
C1327  N1392   1.397   .     A
C1328  S1440   1.846   .     S
C1328  C365    1.465   1_556 S
C1328  N1151   1.397   1_565 S
C1329  C1340   1.387   .     A
C1329  H1388   1.083   .     S
C1329  C1348   1.403   .     A
C1330  C1347   1.398   .     A
C1330  C1341   1.381   .     A
C1330  H1366   1.078   .     S
C1331  C1338   1.387   .     A
C1331  H1367   1.083   .     S
C1331  C1347   1.403   .     A
C1332  C1349   1.454   .     S
C1332  O1404   1.311   .     A
C1332  O1415   1.307   .     A
C1333  C1348   1.398   .     A
C1333  C1339   1.381   .     A
C1333  H1368   1.078   .     S
C1334  H1369   1.083   .     S
C1334  C1350   1.403   .     A
C1334  C1345   1.387   .     A
C1335  H1370   1.078   .     S
C1335  C1349   1.398   .     A
C1335  C1346   1.381   .     A
C1336  H1371   1.083   .     S
C1336  C1342   1.387   .     A
C1336  C1349   1.403   .     A
C1337  C1350   1.398   .     A
C1337  H1372   1.078   .     S
C1337  C1344   1.381   .     A
C1338  H1373   1.083   .     S
C1338  C1352   1.403   .     A
C1339  C1351   1.398   .     A
C1339  H1374   1.078   .     S
C1340  H1375   1.083   .     S
C1340  C1351   1.403   .     A
C1341  C1352   1.398   .     A
C1341  H1377   1.078   .     S
C1342  C1355   1.403   .     A
C1342  H1378   1.083   .     S
C1343  C1348   1.454   .     S
C1343  O1431   1.311   .     A
C1343  O1428   1.307   .     A
C1344  C1353   1.398   .     A
C1344  H1379   1.078   .     S
C1345  H1380   1.083   .     S
C1345  C1353   1.403   .     A
C1346  H1381   1.078   .     S
C1346  C1355   1.398   .     A
C1347  C1354   1.454   .     S
C1351  C1359   1.454   .     S
C1352  C1358   1.454   .     S
C1353  C1357   1.454   .     S
C1354  O1430   1.307   .     A
C1354  O1429   1.311   .     A
C1355  C1356   1.454   .     S
C1356  O1396   1.311   .     A
C1356  O1432   1.307   .     A
C1357  O1394   1.311   .     A
C1357  O1395   1.307   .     A
C1358  O1397   1.307   .     A
C1358  O1400   1.311   .     A
C1359  O1398   1.311   .     A
C1359  O1399   1.307   .     A
C1360  S1433   1.846   .     S
C1360  N1390   1.397   .     S
Cu1361 Cu1362  2.730   .     S
Cu1361 O1429   1.967   .     S
Cu1361 N1389   2.051   .     S
Cu1361 O1393   1.967   .     S
Cu1362 O1426   1.967   .     S
Cu1362 O1430   1.967   .     S
Cu1362 N1390   2.051   .     S
Cu1363 O1398   1.967   .     S
Cu1363 O1395   1.967   .     S
Cu1363 Cu1364  2.730   .     S
Cu1363 N1391   2.051   .     S
Cu1364 O1394   1.967   .     S
Cu1364 O1399   1.967   .     S
Cu1364 N1392   2.051   .     S
H1382  O1290   0.991   1_655 S
H1383  O1293   0.991   1_655 S
H1384  O1417   0.991   .     S
H1385  O1420   0.991   .     S
H1386  O1423   0.991   .     S
H1387  O1427   0.991   .     S
O1396  Cu1124  1.967   1_565 S
O1397  Cu1124  1.967   1_565 S
O1400  Cu1123  1.967   1_565 S
O1401  S1313   1.499   1_655 S
O1402  S1433   1.501   .     D
O1403  H1245   0.991   1_655 S
O1403  S1313   1.673   1_655 S
O1404  Cu1242  1.967   1_655 S
O1405  S1314   1.499   1_655 S
O1406  S1434   1.501   .     D
O1407  H1256   0.991   1_655 S
O1407  S1314   1.673   1_655 S
O1409  S1435   1.501   .     D
O1412  S1436   1.501   .     D
O1414  S1437   1.499   .     D
O1415  Cu1241  1.967   1_655 S
O1416  S1437   1.501   .     D
O1417  S1437   1.673   .     S
O1418  S1438   1.499   .     D
O1419  S1438   1.501   .     D
O1420  S1438   1.673   .     S
O1421  S1439   1.499   .     D
O1422  S1439   1.501   .     D
O1423  S1439   1.673   .     S
O1424  S1440   1.499   .     D
O1425  S1440   1.501   .     D
O1427  S1440   1.673   .     S
O1428  Cu1242  1.967   1_655 S
O1431  Cu1241  1.967   1_655 S
O1432  Cu1123  1.967   1_565 S
S1435  O1288   1.499   1_655 S
S1435  O1290   1.673   1_655 S
S1436  O1293   1.673   1_655 S
S1436  O1291   1.499   1_655 S
