data_str_m3_o2_o10_pcu_sym.104
_audit_creation_date              2020-01-03
_audit_creation_method            'Materials Studio'
_symmetry_space_group_name_H-M    'P1'
_symmetry_Int_Tables_number       1
_symmetry_cell_setting            triclinic
loop_
_symmetry_equiv_pos_as_xyz
  x,y,z
_cell_length_a                    25.7815
_cell_length_b                    29.9891
_cell_length_c                    28.3388
_cell_angle_alpha                 90.0531
_cell_angle_beta                  98.6585
_cell_angle_gamma                 90.0166
loop_
_atom_site_label
_atom_site_type_symbol
_atom_site_fract_x
_atom_site_fract_y
_atom_site_fract_z
_atom_site_U_iso_or_equiv
_atom_site_adp_type
_atom_site_occupancy
C1     C     0.16704   0.16384   0.25002   0.00000  Uiso   1.00
C2     C     0.12613   0.22945   0.44182   0.00000  Uiso   1.00
C3     C     0.16674   0.24999   0.02668   0.00000  Uiso   1.00
C4     C     0.16672   0.25001   0.47332   0.00000  Uiso   1.00
C5     C     0.06700   0.24998   0.23753   0.00000  Uiso   1.00
C6     C     0.26634   0.25000   0.26247   0.00000  Uiso   1.00
C7     C     0.01198   0.24998   0.23080   0.00000  Uiso   1.00
C8     C     0.32135   0.24997   0.26921   0.00000  Uiso   1.00
C9     C     0.15019   0.04590   0.28511   0.00000  Uiso   1.00
C10    C     0.15089   0.45411   0.21014   0.00000  Uiso   1.00
C11    C     0.14717   0.09186   0.28464   0.00000  Uiso   1.00
C12    C     0.16709   0.33616   0.25008   0.00000  Uiso   1.00
C13    C     0.14790   0.40815   0.20977   0.00000  Uiso   1.00
C14    C     0.16958   0.11588   0.25033   0.00000  Uiso   1.00
C15    C     0.16969   0.38415   0.25045   0.00000  Uiso   1.00
C16    C     0.19537   0.09371   0.21684   0.00000  Uiso   1.00
C17    C     0.19493   0.40637   0.29122   0.00000  Uiso   1.00
C18    C     0.19830   0.04769   0.21752   0.00000  Uiso   1.00
C19    C     0.19781   0.45240   0.29136   0.00000  Uiso   1.00
C20    C     0.17555   0.02399   0.25157   0.00000  Uiso   1.00
C21    C     0.17560   0.47606   0.25087   0.00000  Uiso   1.00
C22    C     0.14477   0.21444   0.04956   0.00000  Uiso   1.00
C23    C     0.20728   0.27058   0.45294   0.00000  Uiso   1.00
C24    C     0.14501   0.21518   0.09922   0.00000  Uiso   1.00
C25    C     0.20640   0.27031   0.40319   0.00000  Uiso   1.00
C26    C     0.18840   0.28479   0.10525   0.00000  Uiso   1.00
C27    C     0.12696   0.22970   0.39232   0.00000  Uiso   1.00
C28    C     0.18870   0.28552   0.05567   0.00000  Uiso   1.00
F29    F     0.12122   0.11263   0.31673   0.00000  Uiso   1.00
F30    F     0.12256   0.38735   0.17031   0.00000  Uiso   1.00
F31    F     0.21865   0.11651   0.18429   0.00000  Uiso   1.00
F32    F     0.21769   0.38363   0.33038   0.00000  Uiso   1.00
F33    F     0.22357   0.02620   0.18541   0.00000  Uiso   1.00
F34    F     0.22248   0.47394   0.33063   0.00000  Uiso   1.00
H35    H     0.32467   0.25000   0.19437   0.00000  Uiso   1.00
H36    H     0.09560   0.21369   0.36866   0.00000  Uiso   1.00
H37    H     0.20541   0.31414   0.04023   0.00000  Uiso   1.00
H38    H     0.09341   0.21375   0.45510   0.00000  Uiso   1.00
H39    H     0.00866   0.24995   0.30565   0.00000  Uiso   1.00
H40    H     0.13193   0.02727   0.31096   0.00000  Uiso   1.00
H41    H     0.13307   0.47270   0.17911   0.00000  Uiso   1.00
H42    H     0.12810   0.18582   0.02948   0.00000  Uiso   1.00
H43    H     0.24002   0.28628   0.47519   0.00000  Uiso   1.00
H44    H     0.12793   0.18768   0.11619   0.00000  Uiso   1.00
H45    H     0.23776   0.28628   0.38810   0.00000  Uiso   1.00
H46    H     0.20551   0.31227   0.12698   0.00000  Uiso   1.00
N47    N     0.16667   0.24999   0.12624   0.00000  Uiso   1.00
N48    N     0.16667   0.25001   0.37377   0.00000  Uiso   1.00
O49    O     0.16667   0.18454   0.28974   0.00000  Uiso   1.00
O50    O     0.16666   0.31547   0.21026   0.00000  Uiso   1.00
O51    O     0.16667   0.18453   0.21026   0.00000  Uiso   1.00
O52    O     0.16666   0.31547   0.28974   0.00000  Uiso   1.00
O53    O     0.09058   0.25000   0.28045   0.00000  Uiso   1.00
O54    O     0.24275   0.25000   0.21956   0.00000  Uiso   1.00
O55    O     0.09058   0.25000   0.20097   0.00000  Uiso   1.00
O56    O     0.24275   0.25001   0.29904   0.00000  Uiso   1.00
Zn57   Zn    0.16667   0.25001   0.30307   0.00000  Uiso   1.00
Zn58   Zn    0.16667   0.25000   0.19693   0.00000  Uiso   1.00
C59    C     0.50037   0.16384   0.25002   0.00000  Uiso   1.00
C60    C     0.45946   0.22945   0.44182   0.00000  Uiso   1.00
C61    C     0.50007   0.24999   0.02668   0.00000  Uiso   1.00
C62    C     0.50005   0.25001   0.47332   0.00000  Uiso   1.00
C63    C     0.40033   0.24998   0.23753   0.00000  Uiso   1.00
C64    C     0.59967   0.25000   0.26247   0.00000  Uiso   1.00
C65    C     0.34531   0.24998   0.23080   0.00000  Uiso   1.00
C66    C     0.65469   0.24997   0.26921   0.00000  Uiso   1.00
C67    C     0.48353   0.04590   0.28511   0.00000  Uiso   1.00
C68    C     0.48422   0.45411   0.21014   0.00000  Uiso   1.00
C69    C     0.48051   0.09186   0.28464   0.00000  Uiso   1.00
C70    C     0.50042   0.33616   0.25008   0.00000  Uiso   1.00
C71    C     0.48124   0.40815   0.20977   0.00000  Uiso   1.00
C72    C     0.50291   0.11588   0.25033   0.00000  Uiso   1.00
C73    C     0.50303   0.38415   0.25045   0.00000  Uiso   1.00
C74    C     0.52871   0.09371   0.21684   0.00000  Uiso   1.00
C75    C     0.52826   0.40637   0.29122   0.00000  Uiso   1.00
C76    C     0.53164   0.04769   0.21752   0.00000  Uiso   1.00
C77    C     0.53114   0.45240   0.29136   0.00000  Uiso   1.00
C78    C     0.50888   0.02399   0.25157   0.00000  Uiso   1.00
C79    C     0.50893   0.47606   0.25087   0.00000  Uiso   1.00
C80    C     0.47810   0.21444   0.04956   0.00000  Uiso   1.00
C81    C     0.54061   0.27058   0.45294   0.00000  Uiso   1.00
C82    C     0.47834   0.21518   0.09922   0.00000  Uiso   1.00
C83    C     0.53974   0.27031   0.40319   0.00000  Uiso   1.00
C84    C     0.52174   0.28479   0.10525   0.00000  Uiso   1.00
C85    C     0.46029   0.22970   0.39232   0.00000  Uiso   1.00
C86    C     0.52204   0.28552   0.05567   0.00000  Uiso   1.00
F87    F     0.45455   0.11263   0.31673   0.00000  Uiso   1.00
F88    F     0.45589   0.38735   0.17031   0.00000  Uiso   1.00
F89    F     0.55198   0.11651   0.18429   0.00000  Uiso   1.00
F90    F     0.55102   0.38363   0.33038   0.00000  Uiso   1.00
F91    F     0.55690   0.02620   0.18541   0.00000  Uiso   1.00
F92    F     0.55581   0.47394   0.33063   0.00000  Uiso   1.00
H93    H     0.65801   0.25000   0.19437   0.00000  Uiso   1.00
H94    H     0.42893   0.21369   0.36866   0.00000  Uiso   1.00
H95    H     0.53874   0.31414   0.04023   0.00000  Uiso   1.00
H96    H     0.42674   0.21375   0.45510   0.00000  Uiso   1.00
H97    H     0.34199   0.24995   0.30565   0.00000  Uiso   1.00
H98    H     0.46526   0.02727   0.31096   0.00000  Uiso   1.00
H99    H     0.46640   0.47270   0.17911   0.00000  Uiso   1.00
H100   H     0.46144   0.18582   0.02948   0.00000  Uiso   1.00
H101   H     0.57335   0.28628   0.47519   0.00000  Uiso   1.00
H102   H     0.46126   0.18768   0.11619   0.00000  Uiso   1.00
H103   H     0.57109   0.28628   0.38810   0.00000  Uiso   1.00
H104   H     0.53884   0.31227   0.12698   0.00000  Uiso   1.00
N105   N     0.50000   0.24999   0.12624   0.00000  Uiso   1.00
N106   N     0.50000   0.25001   0.37377   0.00000  Uiso   1.00
O107   O     0.50000   0.18454   0.28974   0.00000  Uiso   1.00
O108   O     0.50000   0.31547   0.21026   0.00000  Uiso   1.00
O109   O     0.50000   0.18453   0.21026   0.00000  Uiso   1.00
O110   O     0.50000   0.31547   0.28974   0.00000  Uiso   1.00
O111   O     0.42392   0.25000   0.28045   0.00000  Uiso   1.00
O112   O     0.57608   0.25000   0.21956   0.00000  Uiso   1.00
O113   O     0.42392   0.25000   0.20097   0.00000  Uiso   1.00
O114   O     0.57608   0.25001   0.29904   0.00000  Uiso   1.00
Zn115  Zn    0.50000   0.25001   0.30307   0.00000  Uiso   1.00
Zn116  Zn    0.50000   0.25000   0.19693   0.00000  Uiso   1.00
C117   C     0.83370   0.16384   0.25002   0.00000  Uiso   1.00
C118   C     0.79279   0.22945   0.44182   0.00000  Uiso   1.00
C119   C     0.83340   0.24999   0.02668   0.00000  Uiso   1.00
C120   C     0.83338   0.25001   0.47332   0.00000  Uiso   1.00
C121   C     0.73366   0.24998   0.23753   0.00000  Uiso   1.00
C122   C     0.93300   0.25000   0.26247   0.00000  Uiso   1.00
C123   C     0.67865   0.24998   0.23080   0.00000  Uiso   1.00
C124   C     0.98802   0.24997   0.26921   0.00000  Uiso   1.00
C125   C     0.81686   0.04590   0.28511   0.00000  Uiso   1.00
C126   C     0.81756   0.45411   0.21014   0.00000  Uiso   1.00
C127   C     0.81384   0.09186   0.28464   0.00000  Uiso   1.00
C128   C     0.83376   0.33616   0.25008   0.00000  Uiso   1.00
C129   C     0.81457   0.40815   0.20977   0.00000  Uiso   1.00
C130   C     0.83624   0.11588   0.25033   0.00000  Uiso   1.00
C131   C     0.83636   0.38415   0.25045   0.00000  Uiso   1.00
C132   C     0.86204   0.09371   0.21684   0.00000  Uiso   1.00
C133   C     0.86159   0.40637   0.29122   0.00000  Uiso   1.00
C134   C     0.86497   0.04769   0.21752   0.00000  Uiso   1.00
C135   C     0.86447   0.45240   0.29136   0.00000  Uiso   1.00
C136   C     0.84221   0.02399   0.25157   0.00000  Uiso   1.00
C137   C     0.84227   0.47606   0.25087   0.00000  Uiso   1.00
C138   C     0.81144   0.21444   0.04956   0.00000  Uiso   1.00
C139   C     0.87395   0.27058   0.45294   0.00000  Uiso   1.00
C140   C     0.81168   0.21518   0.09922   0.00000  Uiso   1.00
C141   C     0.87307   0.27031   0.40319   0.00000  Uiso   1.00
C142   C     0.85507   0.28479   0.10525   0.00000  Uiso   1.00
C143   C     0.79363   0.22970   0.39232   0.00000  Uiso   1.00
C144   C     0.85537   0.28552   0.05567   0.00000  Uiso   1.00
F145   F     0.78788   0.11263   0.31673   0.00000  Uiso   1.00
F146   F     0.78922   0.38735   0.17031   0.00000  Uiso   1.00
F147   F     0.88531   0.11651   0.18429   0.00000  Uiso   1.00
F148   F     0.88435   0.38363   0.33038   0.00000  Uiso   1.00
F149   F     0.89023   0.02620   0.18541   0.00000  Uiso   1.00
F150   F     0.88915   0.47394   0.33063   0.00000  Uiso   1.00
H151   H     0.99134   0.25000   0.19437   0.00000  Uiso   1.00
H152   H     0.76226   0.21369   0.36866   0.00000  Uiso   1.00
H153   H     0.87207   0.31414   0.04023   0.00000  Uiso   1.00
H154   H     0.76007   0.21375   0.45510   0.00000  Uiso   1.00
H155   H     0.67532   0.24995   0.30565   0.00000  Uiso   1.00
H156   H     0.79859   0.02727   0.31096   0.00000  Uiso   1.00
H157   H     0.79974   0.47270   0.17911   0.00000  Uiso   1.00
H158   H     0.79477   0.18582   0.02948   0.00000  Uiso   1.00
H159   H     0.90668   0.28628   0.47519   0.00000  Uiso   1.00
H160   H     0.79460   0.18768   0.11619   0.00000  Uiso   1.00
H161   H     0.90442   0.28628   0.38810   0.00000  Uiso   1.00
H162   H     0.87217   0.31227   0.12698   0.00000  Uiso   1.00
N163   N     0.83333   0.24999   0.12624   0.00000  Uiso   1.00
N164   N     0.83333   0.25001   0.37377   0.00000  Uiso   1.00
O165   O     0.83334   0.18454   0.28974   0.00000  Uiso   1.00
O166   O     0.83333   0.31547   0.21026   0.00000  Uiso   1.00
O167   O     0.83334   0.18453   0.21026   0.00000  Uiso   1.00
O168   O     0.83333   0.31547   0.28974   0.00000  Uiso   1.00
O169   O     0.75725   0.25000   0.28045   0.00000  Uiso   1.00
O170   O     0.90942   0.25000   0.21956   0.00000  Uiso   1.00
O171   O     0.75725   0.25000   0.20097   0.00000  Uiso   1.00
O172   O     0.90942   0.25001   0.29904   0.00000  Uiso   1.00
Zn173  Zn    0.83333   0.25001   0.30307   0.00000  Uiso   1.00
Zn174  Zn    0.83333   0.25000   0.19693   0.00000  Uiso   1.00
C175   C     0.16704   0.66384   0.25002   0.00000  Uiso   1.00
C176   C     0.12613   0.72945   0.44182   0.00000  Uiso   1.00
C177   C     0.16674   0.74999   0.02668   0.00000  Uiso   1.00
C178   C     0.16672   0.75001   0.47332   0.00000  Uiso   1.00
C179   C     0.06700   0.74998   0.23753   0.00000  Uiso   1.00
C180   C     0.26634   0.75000   0.26247   0.00000  Uiso   1.00
C181   C     0.01198   0.74998   0.23080   0.00000  Uiso   1.00
C182   C     0.32135   0.74997   0.26921   0.00000  Uiso   1.00
C183   C     0.15019   0.54590   0.28511   0.00000  Uiso   1.00
C184   C     0.15089   0.95411   0.21014   0.00000  Uiso   1.00
C185   C     0.14717   0.59186   0.28464   0.00000  Uiso   1.00
C186   C     0.16709   0.83616   0.25008   0.00000  Uiso   1.00
C187   C     0.14790   0.90815   0.20977   0.00000  Uiso   1.00
C188   C     0.16958   0.61588   0.25033   0.00000  Uiso   1.00
C189   C     0.16969   0.88415   0.25045   0.00000  Uiso   1.00
C190   C     0.19537   0.59371   0.21684   0.00000  Uiso   1.00
C191   C     0.19493   0.90637   0.29122   0.00000  Uiso   1.00
C192   C     0.19830   0.54769   0.21752   0.00000  Uiso   1.00
C193   C     0.19781   0.95240   0.29136   0.00000  Uiso   1.00
C194   C     0.17555   0.52399   0.25157   0.00000  Uiso   1.00
C195   C     0.17560   0.97606   0.25087   0.00000  Uiso   1.00
C196   C     0.14477   0.71444   0.04956   0.00000  Uiso   1.00
C197   C     0.20728   0.77058   0.45294   0.00000  Uiso   1.00
C198   C     0.14501   0.71518   0.09922   0.00000  Uiso   1.00
C199   C     0.20640   0.77031   0.40319   0.00000  Uiso   1.00
C200   C     0.18840   0.78479   0.10525   0.00000  Uiso   1.00
C201   C     0.12696   0.72970   0.39232   0.00000  Uiso   1.00
C202   C     0.18870   0.78552   0.05567   0.00000  Uiso   1.00
F203   F     0.12122   0.61263   0.31673   0.00000  Uiso   1.00
F204   F     0.12256   0.88735   0.17031   0.00000  Uiso   1.00
F205   F     0.21865   0.61651   0.18429   0.00000  Uiso   1.00
F206   F     0.21769   0.88363   0.33038   0.00000  Uiso   1.00
F207   F     0.22357   0.52620   0.18541   0.00000  Uiso   1.00
F208   F     0.22248   0.97394   0.33063   0.00000  Uiso   1.00
H209   H     0.32467   0.75000   0.19437   0.00000  Uiso   1.00
H210   H     0.09560   0.71369   0.36866   0.00000  Uiso   1.00
H211   H     0.20541   0.81414   0.04023   0.00000  Uiso   1.00
H212   H     0.09341   0.71375   0.45510   0.00000  Uiso   1.00
H213   H     0.00866   0.74995   0.30565   0.00000  Uiso   1.00
H214   H     0.13193   0.52727   0.31096   0.00000  Uiso   1.00
H215   H     0.13307   0.97270   0.17911   0.00000  Uiso   1.00
H216   H     0.12810   0.68582   0.02948   0.00000  Uiso   1.00
H217   H     0.24002   0.78628   0.47519   0.00000  Uiso   1.00
H218   H     0.12793   0.68768   0.11619   0.00000  Uiso   1.00
H219   H     0.23776   0.78628   0.38810   0.00000  Uiso   1.00
H220   H     0.20551   0.81227   0.12698   0.00000  Uiso   1.00
N221   N     0.16667   0.74999   0.12624   0.00000  Uiso   1.00
N222   N     0.16667   0.75001   0.37377   0.00000  Uiso   1.00
O223   O     0.16667   0.68454   0.28974   0.00000  Uiso   1.00
O224   O     0.16666   0.81547   0.21026   0.00000  Uiso   1.00
O225   O     0.16667   0.68453   0.21026   0.00000  Uiso   1.00
O226   O     0.16666   0.81547   0.28974   0.00000  Uiso   1.00
O227   O     0.09058   0.75000   0.28045   0.00000  Uiso   1.00
O228   O     0.24275   0.75000   0.21956   0.00000  Uiso   1.00
O229   O     0.09058   0.75000   0.20097   0.00000  Uiso   1.00
O230   O     0.24275   0.75001   0.29904   0.00000  Uiso   1.00
Zn231  Zn    0.16667   0.75001   0.30307   0.00000  Uiso   1.00
Zn232  Zn    0.16667   0.75000   0.19693   0.00000  Uiso   1.00
C233   C     0.50037   0.66384   0.25002   0.00000  Uiso   1.00
C234   C     0.45946   0.72945   0.44182   0.00000  Uiso   1.00
C235   C     0.50007   0.74999   0.02668   0.00000  Uiso   1.00
C236   C     0.50005   0.75001   0.47332   0.00000  Uiso   1.00
C237   C     0.40033   0.74998   0.23753   0.00000  Uiso   1.00
C238   C     0.59967   0.75000   0.26247   0.00000  Uiso   1.00
C239   C     0.34531   0.74998   0.23080   0.00000  Uiso   1.00
C240   C     0.65469   0.74997   0.26921   0.00000  Uiso   1.00
C241   C     0.48353   0.54590   0.28511   0.00000  Uiso   1.00
C242   C     0.48422   0.95411   0.21014   0.00000  Uiso   1.00
C243   C     0.48051   0.59186   0.28464   0.00000  Uiso   1.00
C244   C     0.50042   0.83616   0.25008   0.00000  Uiso   1.00
C245   C     0.48124   0.90815   0.20977   0.00000  Uiso   1.00
C246   C     0.50291   0.61588   0.25033   0.00000  Uiso   1.00
C247   C     0.50303   0.88415   0.25045   0.00000  Uiso   1.00
C248   C     0.52871   0.59371   0.21684   0.00000  Uiso   1.00
C249   C     0.52826   0.90637   0.29122   0.00000  Uiso   1.00
C250   C     0.53164   0.54769   0.21752   0.00000  Uiso   1.00
C251   C     0.53114   0.95240   0.29136   0.00000  Uiso   1.00
C252   C     0.50888   0.52399   0.25157   0.00000  Uiso   1.00
C253   C     0.50893   0.97606   0.25087   0.00000  Uiso   1.00
C254   C     0.47810   0.71444   0.04956   0.00000  Uiso   1.00
C255   C     0.54061   0.77058   0.45294   0.00000  Uiso   1.00
C256   C     0.47834   0.71518   0.09922   0.00000  Uiso   1.00
C257   C     0.53974   0.77031   0.40319   0.00000  Uiso   1.00
C258   C     0.52174   0.78479   0.10525   0.00000  Uiso   1.00
C259   C     0.46029   0.72970   0.39232   0.00000  Uiso   1.00
C260   C     0.52204   0.78552   0.05567   0.00000  Uiso   1.00
F261   F     0.45455   0.61263   0.31673   0.00000  Uiso   1.00
F262   F     0.45589   0.88735   0.17031   0.00000  Uiso   1.00
F263   F     0.55198   0.61651   0.18429   0.00000  Uiso   1.00
F264   F     0.55102   0.88363   0.33038   0.00000  Uiso   1.00
F265   F     0.55690   0.52620   0.18541   0.00000  Uiso   1.00
F266   F     0.55581   0.97394   0.33063   0.00000  Uiso   1.00
H267   H     0.65801   0.75000   0.19437   0.00000  Uiso   1.00
H268   H     0.42893   0.71369   0.36866   0.00000  Uiso   1.00
H269   H     0.53874   0.81414   0.04023   0.00000  Uiso   1.00
H270   H     0.42674   0.71375   0.45510   0.00000  Uiso   1.00
H271   H     0.34199   0.74995   0.30565   0.00000  Uiso   1.00
H272   H     0.46526   0.52727   0.31096   0.00000  Uiso   1.00
H273   H     0.46640   0.97270   0.17911   0.00000  Uiso   1.00
H274   H     0.46144   0.68582   0.02948   0.00000  Uiso   1.00
H275   H     0.57335   0.78628   0.47519   0.00000  Uiso   1.00
H276   H     0.46126   0.68768   0.11619   0.00000  Uiso   1.00
H277   H     0.57109   0.78628   0.38810   0.00000  Uiso   1.00
H278   H     0.53884   0.81227   0.12698   0.00000  Uiso   1.00
N279   N     0.50000   0.74999   0.12624   0.00000  Uiso   1.00
N280   N     0.50000   0.75001   0.37377   0.00000  Uiso   1.00
O281   O     0.50000   0.68454   0.28974   0.00000  Uiso   1.00
O282   O     0.50000   0.81547   0.21026   0.00000  Uiso   1.00
O283   O     0.50000   0.68453   0.21026   0.00000  Uiso   1.00
O284   O     0.50000   0.81547   0.28974   0.00000  Uiso   1.00
O285   O     0.42392   0.75000   0.28045   0.00000  Uiso   1.00
O286   O     0.57608   0.75000   0.21956   0.00000  Uiso   1.00
O287   O     0.42392   0.75000   0.20097   0.00000  Uiso   1.00
O288   O     0.57608   0.75001   0.29904   0.00000  Uiso   1.00
Zn289  Zn    0.50000   0.75001   0.30307   0.00000  Uiso   1.00
Zn290  Zn    0.50000   0.75000   0.19693   0.00000  Uiso   1.00
C291   C     0.83370   0.66384   0.25002   0.00000  Uiso   1.00
C292   C     0.79279   0.72945   0.44182   0.00000  Uiso   1.00
C293   C     0.83340   0.74999   0.02668   0.00000  Uiso   1.00
C294   C     0.83338   0.75001   0.47332   0.00000  Uiso   1.00
C295   C     0.73366   0.74998   0.23753   0.00000  Uiso   1.00
C296   C     0.93300   0.75000   0.26247   0.00000  Uiso   1.00
C297   C     0.67865   0.74998   0.23080   0.00000  Uiso   1.00
C298   C     0.98802   0.74997   0.26921   0.00000  Uiso   1.00
C299   C     0.81686   0.54590   0.28511   0.00000  Uiso   1.00
C300   C     0.81756   0.95411   0.21014   0.00000  Uiso   1.00
C301   C     0.81384   0.59186   0.28464   0.00000  Uiso   1.00
C302   C     0.83376   0.83616   0.25008   0.00000  Uiso   1.00
C303   C     0.81457   0.90815   0.20977   0.00000  Uiso   1.00
C304   C     0.83624   0.61588   0.25033   0.00000  Uiso   1.00
C305   C     0.83636   0.88415   0.25045   0.00000  Uiso   1.00
C306   C     0.86204   0.59371   0.21684   0.00000  Uiso   1.00
C307   C     0.86159   0.90637   0.29122   0.00000  Uiso   1.00
C308   C     0.86497   0.54769   0.21752   0.00000  Uiso   1.00
C309   C     0.86447   0.95240   0.29136   0.00000  Uiso   1.00
C310   C     0.84221   0.52399   0.25157   0.00000  Uiso   1.00
C311   C     0.84227   0.97606   0.25087   0.00000  Uiso   1.00
C312   C     0.81144   0.71444   0.04956   0.00000  Uiso   1.00
C313   C     0.87395   0.77058   0.45294   0.00000  Uiso   1.00
C314   C     0.81168   0.71518   0.09922   0.00000  Uiso   1.00
C315   C     0.87307   0.77031   0.40319   0.00000  Uiso   1.00
C316   C     0.85507   0.78479   0.10525   0.00000  Uiso   1.00
C317   C     0.79363   0.72970   0.39232   0.00000  Uiso   1.00
C318   C     0.85537   0.78552   0.05567   0.00000  Uiso   1.00
F319   F     0.78788   0.61263   0.31673   0.00000  Uiso   1.00
F320   F     0.78922   0.88735   0.17031   0.00000  Uiso   1.00
F321   F     0.88531   0.61651   0.18429   0.00000  Uiso   1.00
F322   F     0.88435   0.88363   0.33038   0.00000  Uiso   1.00
F323   F     0.89023   0.52620   0.18541   0.00000  Uiso   1.00
F324   F     0.88915   0.97394   0.33063   0.00000  Uiso   1.00
H325   H     0.99134   0.75000   0.19437   0.00000  Uiso   1.00
H326   H     0.76226   0.71369   0.36866   0.00000  Uiso   1.00
H327   H     0.87207   0.81414   0.04023   0.00000  Uiso   1.00
H328   H     0.76007   0.71375   0.45510   0.00000  Uiso   1.00
H329   H     0.67532   0.74995   0.30565   0.00000  Uiso   1.00
H330   H     0.79859   0.52727   0.31096   0.00000  Uiso   1.00
H331   H     0.79974   0.97270   0.17911   0.00000  Uiso   1.00
H332   H     0.79477   0.68582   0.02948   0.00000  Uiso   1.00
H333   H     0.90668   0.78628   0.47519   0.00000  Uiso   1.00
H334   H     0.79460   0.68768   0.11619   0.00000  Uiso   1.00
H335   H     0.90442   0.78628   0.38810   0.00000  Uiso   1.00
H336   H     0.87217   0.81227   0.12698   0.00000  Uiso   1.00
N337   N     0.83333   0.74999   0.12624   0.00000  Uiso   1.00
N338   N     0.83333   0.75001   0.37377   0.00000  Uiso   1.00
O339   O     0.83334   0.68454   0.28974   0.00000  Uiso   1.00
O340   O     0.83333   0.81547   0.21026   0.00000  Uiso   1.00
O341   O     0.83334   0.68453   0.21026   0.00000  Uiso   1.00
O342   O     0.83333   0.81547   0.28974   0.00000  Uiso   1.00
O343   O     0.75725   0.75000   0.28045   0.00000  Uiso   1.00
O344   O     0.90942   0.75000   0.21956   0.00000  Uiso   1.00
O345   O     0.75725   0.75000   0.20097   0.00000  Uiso   1.00
O346   O     0.90942   0.75001   0.29904   0.00000  Uiso   1.00
Zn347  Zn    0.83333   0.75001   0.30307   0.00000  Uiso   1.00
Zn348  Zn    0.83333   0.75000   0.19693   0.00000  Uiso   1.00
C349   C     0.16704   0.16384   0.75002   0.00000  Uiso   1.00
C350   C     0.12613   0.22945   0.94182   0.00000  Uiso   1.00
C351   C     0.16674   0.24999   0.52668   0.00000  Uiso   1.00
C352   C     0.16672   0.25001   0.97332   0.00000  Uiso   1.00
C353   C     0.06700   0.24998   0.73753   0.00000  Uiso   1.00
C354   C     0.26634   0.25000   0.76247   0.00000  Uiso   1.00
C355   C     0.01198   0.24998   0.73080   0.00000  Uiso   1.00
C356   C     0.32135   0.24997   0.76921   0.00000  Uiso   1.00
C357   C     0.15019   0.04590   0.78511   0.00000  Uiso   1.00
C358   C     0.15089   0.45411   0.71014   0.00000  Uiso   1.00
C359   C     0.14717   0.09186   0.78464   0.00000  Uiso   1.00
C360   C     0.16709   0.33616   0.75008   0.00000  Uiso   1.00
C361   C     0.14790   0.40815   0.70977   0.00000  Uiso   1.00
C362   C     0.16958   0.11588   0.75033   0.00000  Uiso   1.00
C363   C     0.16969   0.38415   0.75045   0.00000  Uiso   1.00
C364   C     0.19537   0.09371   0.71684   0.00000  Uiso   1.00
C365   C     0.19493   0.40637   0.79122   0.00000  Uiso   1.00
C366   C     0.19830   0.04769   0.71752   0.00000  Uiso   1.00
C367   C     0.19781   0.45240   0.79136   0.00000  Uiso   1.00
C368   C     0.17555   0.02399   0.75157   0.00000  Uiso   1.00
C369   C     0.17560   0.47606   0.75087   0.00000  Uiso   1.00
C370   C     0.14477   0.21444   0.54956   0.00000  Uiso   1.00
C371   C     0.20728   0.27058   0.95294   0.00000  Uiso   1.00
C372   C     0.14501   0.21518   0.59922   0.00000  Uiso   1.00
C373   C     0.20640   0.27031   0.90319   0.00000  Uiso   1.00
C374   C     0.18840   0.28479   0.60525   0.00000  Uiso   1.00
C375   C     0.12696   0.22970   0.89232   0.00000  Uiso   1.00
C376   C     0.18870   0.28552   0.55567   0.00000  Uiso   1.00
F377   F     0.12122   0.11263   0.81673   0.00000  Uiso   1.00
F378   F     0.12256   0.38735   0.67031   0.00000  Uiso   1.00
F379   F     0.21865   0.11651   0.68429   0.00000  Uiso   1.00
F380   F     0.21769   0.38363   0.83038   0.00000  Uiso   1.00
F381   F     0.22357   0.02620   0.68541   0.00000  Uiso   1.00
F382   F     0.22248   0.47394   0.83063   0.00000  Uiso   1.00
H383   H     0.32467   0.25000   0.69437   0.00000  Uiso   1.00
H384   H     0.09560   0.21369   0.86866   0.00000  Uiso   1.00
H385   H     0.20541   0.31414   0.54023   0.00000  Uiso   1.00
H386   H     0.09341   0.21375   0.95510   0.00000  Uiso   1.00
H387   H     0.00866   0.24995   0.80565   0.00000  Uiso   1.00
H388   H     0.13193   0.02727   0.81096   0.00000  Uiso   1.00
H389   H     0.13307   0.47270   0.67911   0.00000  Uiso   1.00
H390   H     0.12810   0.18582   0.52948   0.00000  Uiso   1.00
H391   H     0.24002   0.28628   0.97519   0.00000  Uiso   1.00
H392   H     0.12793   0.18768   0.61619   0.00000  Uiso   1.00
H393   H     0.23776   0.28628   0.88810   0.00000  Uiso   1.00
H394   H     0.20551   0.31227   0.62698   0.00000  Uiso   1.00
N395   N     0.16667   0.24999   0.62624   0.00000  Uiso   1.00
N396   N     0.16667   0.25001   0.87377   0.00000  Uiso   1.00
O397   O     0.16667   0.18454   0.78974   0.00000  Uiso   1.00
O398   O     0.16666   0.31547   0.71026   0.00000  Uiso   1.00
O399   O     0.16667   0.18453   0.71026   0.00000  Uiso   1.00
O400   O     0.16666   0.31547   0.78974   0.00000  Uiso   1.00
O401   O     0.09058   0.25000   0.78045   0.00000  Uiso   1.00
O402   O     0.24275   0.25000   0.71956   0.00000  Uiso   1.00
O403   O     0.09058   0.25000   0.70097   0.00000  Uiso   1.00
O404   O     0.24275   0.25001   0.79904   0.00000  Uiso   1.00
Zn405  Zn    0.16667   0.25001   0.80307   0.00000  Uiso   1.00
Zn406  Zn    0.16667   0.25000   0.69693   0.00000  Uiso   1.00
C407   C     0.50037   0.16384   0.75002   0.00000  Uiso   1.00
C408   C     0.45946   0.22945   0.94182   0.00000  Uiso   1.00
C409   C     0.50007   0.24999   0.52668   0.00000  Uiso   1.00
C410   C     0.50005   0.25001   0.97332   0.00000  Uiso   1.00
C411   C     0.40033   0.24998   0.73753   0.00000  Uiso   1.00
C412   C     0.59967   0.25000   0.76247   0.00000  Uiso   1.00
C413   C     0.34531   0.24998   0.73080   0.00000  Uiso   1.00
C414   C     0.65469   0.24997   0.76921   0.00000  Uiso   1.00
C415   C     0.48353   0.04590   0.78511   0.00000  Uiso   1.00
C416   C     0.48422   0.45411   0.71014   0.00000  Uiso   1.00
C417   C     0.48051   0.09186   0.78464   0.00000  Uiso   1.00
C418   C     0.50042   0.33616   0.75008   0.00000  Uiso   1.00
C419   C     0.48124   0.40815   0.70977   0.00000  Uiso   1.00
C420   C     0.50291   0.11588   0.75033   0.00000  Uiso   1.00
C421   C     0.50303   0.38415   0.75045   0.00000  Uiso   1.00
C422   C     0.52871   0.09371   0.71684   0.00000  Uiso   1.00
C423   C     0.52826   0.40637   0.79122   0.00000  Uiso   1.00
C424   C     0.53164   0.04769   0.71752   0.00000  Uiso   1.00
C425   C     0.53114   0.45240   0.79136   0.00000  Uiso   1.00
C426   C     0.50888   0.02399   0.75157   0.00000  Uiso   1.00
C427   C     0.50893   0.47606   0.75087   0.00000  Uiso   1.00
C428   C     0.47810   0.21444   0.54956   0.00000  Uiso   1.00
C429   C     0.54061   0.27058   0.95294   0.00000  Uiso   1.00
C430   C     0.47834   0.21518   0.59922   0.00000  Uiso   1.00
C431   C     0.53974   0.27031   0.90319   0.00000  Uiso   1.00
C432   C     0.52174   0.28479   0.60525   0.00000  Uiso   1.00
C433   C     0.46029   0.22970   0.89232   0.00000  Uiso   1.00
C434   C     0.52204   0.28552   0.55567   0.00000  Uiso   1.00
F435   F     0.45455   0.11263   0.81673   0.00000  Uiso   1.00
F436   F     0.45589   0.38735   0.67031   0.00000  Uiso   1.00
F437   F     0.55198   0.11651   0.68429   0.00000  Uiso   1.00
F438   F     0.55102   0.38363   0.83038   0.00000  Uiso   1.00
F439   F     0.55690   0.02620   0.68541   0.00000  Uiso   1.00
F440   F     0.55581   0.47394   0.83063   0.00000  Uiso   1.00
H441   H     0.65801   0.25000   0.69437   0.00000  Uiso   1.00
H442   H     0.42893   0.21369   0.86866   0.00000  Uiso   1.00
H443   H     0.53874   0.31414   0.54023   0.00000  Uiso   1.00
H444   H     0.42674   0.21375   0.95510   0.00000  Uiso   1.00
H445   H     0.34199   0.24995   0.80565   0.00000  Uiso   1.00
H446   H     0.46526   0.02727   0.81096   0.00000  Uiso   1.00
H447   H     0.46640   0.47270   0.67911   0.00000  Uiso   1.00
H448   H     0.46144   0.18582   0.52948   0.00000  Uiso   1.00
H449   H     0.57335   0.28628   0.97519   0.00000  Uiso   1.00
H450   H     0.46126   0.18768   0.61619   0.00000  Uiso   1.00
H451   H     0.57109   0.28628   0.88810   0.00000  Uiso   1.00
H452   H     0.53884   0.31227   0.62698   0.00000  Uiso   1.00
N453   N     0.50000   0.24999   0.62624   0.00000  Uiso   1.00
N454   N     0.50000   0.25001   0.87377   0.00000  Uiso   1.00
O455   O     0.50000   0.18454   0.78974   0.00000  Uiso   1.00
O456   O     0.50000   0.31547   0.71026   0.00000  Uiso   1.00
O457   O     0.50000   0.18453   0.71026   0.00000  Uiso   1.00
O458   O     0.50000   0.31547   0.78974   0.00000  Uiso   1.00
O459   O     0.42392   0.25000   0.78045   0.00000  Uiso   1.00
O460   O     0.57608   0.25000   0.71956   0.00000  Uiso   1.00
O461   O     0.42392   0.25000   0.70097   0.00000  Uiso   1.00
O462   O     0.57608   0.25001   0.79904   0.00000  Uiso   1.00
Zn463  Zn    0.50000   0.25001   0.80307   0.00000  Uiso   1.00
Zn464  Zn    0.50000   0.25000   0.69693   0.00000  Uiso   1.00
C465   C     0.83370   0.16384   0.75002   0.00000  Uiso   1.00
C466   C     0.79279   0.22945   0.94182   0.00000  Uiso   1.00
C467   C     0.83340   0.24999   0.52668   0.00000  Uiso   1.00
C468   C     0.83338   0.25001   0.97332   0.00000  Uiso   1.00
C469   C     0.73366   0.24998   0.73753   0.00000  Uiso   1.00
C470   C     0.93300   0.25000   0.76247   0.00000  Uiso   1.00
C471   C     0.67865   0.24998   0.73080   0.00000  Uiso   1.00
C472   C     0.98802   0.24997   0.76921   0.00000  Uiso   1.00
C473   C     0.81686   0.04590   0.78511   0.00000  Uiso   1.00
C474   C     0.81756   0.45411   0.71014   0.00000  Uiso   1.00
C475   C     0.81384   0.09186   0.78464   0.00000  Uiso   1.00
C476   C     0.83376   0.33616   0.75008   0.00000  Uiso   1.00
C477   C     0.81457   0.40815   0.70977   0.00000  Uiso   1.00
C478   C     0.83624   0.11588   0.75033   0.00000  Uiso   1.00
C479   C     0.83636   0.38415   0.75045   0.00000  Uiso   1.00
C480   C     0.86204   0.09371   0.71684   0.00000  Uiso   1.00
C481   C     0.86159   0.40637   0.79122   0.00000  Uiso   1.00
C482   C     0.86497   0.04769   0.71752   0.00000  Uiso   1.00
C483   C     0.86447   0.45240   0.79136   0.00000  Uiso   1.00
C484   C     0.84221   0.02399   0.75157   0.00000  Uiso   1.00
C485   C     0.84227   0.47606   0.75087   0.00000  Uiso   1.00
C486   C     0.81144   0.21444   0.54956   0.00000  Uiso   1.00
C487   C     0.87395   0.27058   0.95294   0.00000  Uiso   1.00
C488   C     0.81168   0.21518   0.59922   0.00000  Uiso   1.00
C489   C     0.87307   0.27031   0.90319   0.00000  Uiso   1.00
C490   C     0.85507   0.28479   0.60525   0.00000  Uiso   1.00
C491   C     0.79363   0.22970   0.89232   0.00000  Uiso   1.00
C492   C     0.85537   0.28552   0.55567   0.00000  Uiso   1.00
F493   F     0.78788   0.11263   0.81673   0.00000  Uiso   1.00
F494   F     0.78922   0.38735   0.67031   0.00000  Uiso   1.00
F495   F     0.88531   0.11651   0.68429   0.00000  Uiso   1.00
F496   F     0.88435   0.38363   0.83038   0.00000  Uiso   1.00
F497   F     0.89023   0.02620   0.68541   0.00000  Uiso   1.00
F498   F     0.88915   0.47394   0.83063   0.00000  Uiso   1.00
H499   H     0.99134   0.25000   0.69437   0.00000  Uiso   1.00
H500   H     0.76226   0.21369   0.86866   0.00000  Uiso   1.00
H501   H     0.87207   0.31414   0.54023   0.00000  Uiso   1.00
H502   H     0.76007   0.21375   0.95510   0.00000  Uiso   1.00
H503   H     0.67532   0.24995   0.80565   0.00000  Uiso   1.00
H504   H     0.79859   0.02727   0.81096   0.00000  Uiso   1.00
H505   H     0.79974   0.47270   0.67911   0.00000  Uiso   1.00
H506   H     0.79477   0.18582   0.52948   0.00000  Uiso   1.00
H507   H     0.90668   0.28628   0.97519   0.00000  Uiso   1.00
H508   H     0.79460   0.18768   0.61619   0.00000  Uiso   1.00
H509   H     0.90442   0.28628   0.88810   0.00000  Uiso   1.00
H510   H     0.87217   0.31227   0.62698   0.00000  Uiso   1.00
N511   N     0.83333   0.24999   0.62624   0.00000  Uiso   1.00
N512   N     0.83333   0.25001   0.87377   0.00000  Uiso   1.00
O513   O     0.83334   0.18454   0.78974   0.00000  Uiso   1.00
O514   O     0.83333   0.31547   0.71026   0.00000  Uiso   1.00
O515   O     0.83334   0.18453   0.71026   0.00000  Uiso   1.00
O516   O     0.83333   0.31547   0.78974   0.00000  Uiso   1.00
O517   O     0.75725   0.25000   0.78045   0.00000  Uiso   1.00
O518   O     0.90942   0.25000   0.71956   0.00000  Uiso   1.00
O519   O     0.75725   0.25000   0.70097   0.00000  Uiso   1.00
O520   O     0.90942   0.25001   0.79904   0.00000  Uiso   1.00
Zn521  Zn    0.83333   0.25001   0.80307   0.00000  Uiso   1.00
Zn522  Zn    0.83333   0.25000   0.69693   0.00000  Uiso   1.00
C523   C     0.16704   0.66384   0.75002   0.00000  Uiso   1.00
C524   C     0.12613   0.72945   0.94182   0.00000  Uiso   1.00
C525   C     0.16674   0.74999   0.52668   0.00000  Uiso   1.00
C526   C     0.16672   0.75001   0.97332   0.00000  Uiso   1.00
C527   C     0.06700   0.74998   0.73753   0.00000  Uiso   1.00
C528   C     0.26634   0.75000   0.76247   0.00000  Uiso   1.00
C529   C     0.01198   0.74998   0.73080   0.00000  Uiso   1.00
C530   C     0.32135   0.74997   0.76921   0.00000  Uiso   1.00
C531   C     0.15019   0.54590   0.78511   0.00000  Uiso   1.00
C532   C     0.15089   0.95411   0.71014   0.00000  Uiso   1.00
C533   C     0.14717   0.59186   0.78464   0.00000  Uiso   1.00
C534   C     0.16709   0.83616   0.75008   0.00000  Uiso   1.00
C535   C     0.14790   0.90815   0.70977   0.00000  Uiso   1.00
C536   C     0.16958   0.61588   0.75033   0.00000  Uiso   1.00
C537   C     0.16969   0.88415   0.75045   0.00000  Uiso   1.00
C538   C     0.19537   0.59371   0.71684   0.00000  Uiso   1.00
C539   C     0.19493   0.90637   0.79122   0.00000  Uiso   1.00
C540   C     0.19830   0.54769   0.71752   0.00000  Uiso   1.00
C541   C     0.19781   0.95240   0.79136   0.00000  Uiso   1.00
C542   C     0.17555   0.52399   0.75157   0.00000  Uiso   1.00
C543   C     0.17560   0.97606   0.75087   0.00000  Uiso   1.00
C544   C     0.14477   0.71444   0.54956   0.00000  Uiso   1.00
C545   C     0.20728   0.77058   0.95294   0.00000  Uiso   1.00
C546   C     0.14501   0.71518   0.59922   0.00000  Uiso   1.00
C547   C     0.20640   0.77031   0.90319   0.00000  Uiso   1.00
C548   C     0.18840   0.78479   0.60525   0.00000  Uiso   1.00
C549   C     0.12696   0.72970   0.89232   0.00000  Uiso   1.00
C550   C     0.18870   0.78552   0.55567   0.00000  Uiso   1.00
F551   F     0.12122   0.61263   0.81673   0.00000  Uiso   1.00
F552   F     0.12256   0.88735   0.67031   0.00000  Uiso   1.00
F553   F     0.21865   0.61651   0.68429   0.00000  Uiso   1.00
F554   F     0.21769   0.88363   0.83038   0.00000  Uiso   1.00
F555   F     0.22357   0.52620   0.68541   0.00000  Uiso   1.00
F556   F     0.22248   0.97394   0.83063   0.00000  Uiso   1.00
H557   H     0.32467   0.75000   0.69437   0.00000  Uiso   1.00
H558   H     0.09560   0.71369   0.86866   0.00000  Uiso   1.00
H559   H     0.20541   0.81414   0.54023   0.00000  Uiso   1.00
H560   H     0.09341   0.71375   0.95510   0.00000  Uiso   1.00
H561   H     0.00866   0.74995   0.80565   0.00000  Uiso   1.00
H562   H     0.13193   0.52727   0.81096   0.00000  Uiso   1.00
H563   H     0.13307   0.97270   0.67911   0.00000  Uiso   1.00
H564   H     0.12810   0.68582   0.52948   0.00000  Uiso   1.00
H565   H     0.24002   0.78628   0.97519   0.00000  Uiso   1.00
H566   H     0.12793   0.68768   0.61619   0.00000  Uiso   1.00
H567   H     0.23776   0.78628   0.88810   0.00000  Uiso   1.00
H568   H     0.20551   0.81227   0.62698   0.00000  Uiso   1.00
N569   N     0.16667   0.74999   0.62624   0.00000  Uiso   1.00
N570   N     0.16667   0.75001   0.87377   0.00000  Uiso   1.00
O571   O     0.16667   0.68454   0.78974   0.00000  Uiso   1.00
O572   O     0.16666   0.81547   0.71026   0.00000  Uiso   1.00
O573   O     0.16667   0.68453   0.71026   0.00000  Uiso   1.00
O574   O     0.16666   0.81547   0.78974   0.00000  Uiso   1.00
O575   O     0.09058   0.75000   0.78045   0.00000  Uiso   1.00
O576   O     0.24275   0.75000   0.71956   0.00000  Uiso   1.00
O577   O     0.09058   0.75000   0.70097   0.00000  Uiso   1.00
O578   O     0.24275   0.75001   0.79904   0.00000  Uiso   1.00
Zn579  Zn    0.16667   0.75001   0.80307   0.00000  Uiso   1.00
Zn580  Zn    0.16667   0.75000   0.69693   0.00000  Uiso   1.00
C581   C     0.50037   0.66384   0.75002   0.00000  Uiso   1.00
C582   C     0.45946   0.72945   0.94182   0.00000  Uiso   1.00
C583   C     0.50007   0.74999   0.52668   0.00000  Uiso   1.00
C584   C     0.50005   0.75001   0.97332   0.00000  Uiso   1.00
C585   C     0.40033   0.74998   0.73753   0.00000  Uiso   1.00
C586   C     0.59967   0.75000   0.76247   0.00000  Uiso   1.00
C587   C     0.34531   0.74998   0.73080   0.00000  Uiso   1.00
C588   C     0.65469   0.74997   0.76921   0.00000  Uiso   1.00
C589   C     0.48353   0.54590   0.78511   0.00000  Uiso   1.00
C590   C     0.48422   0.95411   0.71014   0.00000  Uiso   1.00
C591   C     0.48051   0.59186   0.78464   0.00000  Uiso   1.00
C592   C     0.50042   0.83616   0.75008   0.00000  Uiso   1.00
C593   C     0.48124   0.90815   0.70977   0.00000  Uiso   1.00
C594   C     0.50291   0.61588   0.75033   0.00000  Uiso   1.00
C595   C     0.50303   0.88415   0.75045   0.00000  Uiso   1.00
C596   C     0.52871   0.59371   0.71684   0.00000  Uiso   1.00
C597   C     0.52826   0.90637   0.79122   0.00000  Uiso   1.00
C598   C     0.53164   0.54769   0.71752   0.00000  Uiso   1.00
C599   C     0.53114   0.95240   0.79136   0.00000  Uiso   1.00
C600   C     0.50888   0.52399   0.75157   0.00000  Uiso   1.00
C601   C     0.50893   0.97606   0.75087   0.00000  Uiso   1.00
C602   C     0.47810   0.71444   0.54956   0.00000  Uiso   1.00
C603   C     0.54061   0.77058   0.95294   0.00000  Uiso   1.00
C604   C     0.47834   0.71518   0.59922   0.00000  Uiso   1.00
C605   C     0.53974   0.77031   0.90319   0.00000  Uiso   1.00
C606   C     0.52174   0.78479   0.60525   0.00000  Uiso   1.00
C607   C     0.46029   0.72970   0.89232   0.00000  Uiso   1.00
C608   C     0.52204   0.78552   0.55567   0.00000  Uiso   1.00
F609   F     0.45455   0.61263   0.81673   0.00000  Uiso   1.00
F610   F     0.45589   0.88735   0.67031   0.00000  Uiso   1.00
F611   F     0.55198   0.61651   0.68429   0.00000  Uiso   1.00
F612   F     0.55102   0.88363   0.83038   0.00000  Uiso   1.00
F613   F     0.55690   0.52620   0.68541   0.00000  Uiso   1.00
F614   F     0.55581   0.97394   0.83063   0.00000  Uiso   1.00
H615   H     0.65801   0.75000   0.69437   0.00000  Uiso   1.00
H616   H     0.42893   0.71369   0.86866   0.00000  Uiso   1.00
H617   H     0.53874   0.81414   0.54023   0.00000  Uiso   1.00
H618   H     0.42674   0.71375   0.95510   0.00000  Uiso   1.00
H619   H     0.34199   0.74995   0.80565   0.00000  Uiso   1.00
H620   H     0.46526   0.52727   0.81096   0.00000  Uiso   1.00
H621   H     0.46640   0.97270   0.67911   0.00000  Uiso   1.00
H622   H     0.46144   0.68582   0.52948   0.00000  Uiso   1.00
H623   H     0.57335   0.78628   0.97519   0.00000  Uiso   1.00
H624   H     0.46126   0.68768   0.61619   0.00000  Uiso   1.00
H625   H     0.57109   0.78628   0.88810   0.00000  Uiso   1.00
H626   H     0.53884   0.81227   0.62698   0.00000  Uiso   1.00
N627   N     0.50000   0.74999   0.62624   0.00000  Uiso   1.00
N628   N     0.50000   0.75001   0.87377   0.00000  Uiso   1.00
O629   O     0.50000   0.68454   0.78974   0.00000  Uiso   1.00
O630   O     0.50000   0.81547   0.71026   0.00000  Uiso   1.00
O631   O     0.50000   0.68453   0.71026   0.00000  Uiso   1.00
O632   O     0.50000   0.81547   0.78974   0.00000  Uiso   1.00
O633   O     0.42392   0.75000   0.78045   0.00000  Uiso   1.00
O634   O     0.57608   0.75000   0.71956   0.00000  Uiso   1.00
O635   O     0.42392   0.75000   0.70097   0.00000  Uiso   1.00
O636   O     0.57608   0.75001   0.79904   0.00000  Uiso   1.00
Zn637  Zn    0.50000   0.75001   0.80307   0.00000  Uiso   1.00
Zn638  Zn    0.50000   0.75000   0.69693   0.00000  Uiso   1.00
C639   C     0.83370   0.66384   0.75002   0.00000  Uiso   1.00
C640   C     0.79279   0.72945   0.94182   0.00000  Uiso   1.00
C641   C     0.83340   0.74999   0.52668   0.00000  Uiso   1.00
C642   C     0.83338   0.75001   0.97332   0.00000  Uiso   1.00
C643   C     0.73366   0.74998   0.73753   0.00000  Uiso   1.00
C644   C     0.93300   0.75000   0.76247   0.00000  Uiso   1.00
C645   C     0.67865   0.74998   0.73080   0.00000  Uiso   1.00
C646   C     0.98802   0.74997   0.76921   0.00000  Uiso   1.00
C647   C     0.81686   0.54590   0.78511   0.00000  Uiso   1.00
C648   C     0.81756   0.95411   0.71014   0.00000  Uiso   1.00
C649   C     0.81384   0.59186   0.78464   0.00000  Uiso   1.00
C650   C     0.83376   0.83616   0.75008   0.00000  Uiso   1.00
C651   C     0.81457   0.90815   0.70977   0.00000  Uiso   1.00
C652   C     0.83624   0.61588   0.75033   0.00000  Uiso   1.00
C653   C     0.83636   0.88415   0.75045   0.00000  Uiso   1.00
C654   C     0.86204   0.59371   0.71684   0.00000  Uiso   1.00
C655   C     0.86159   0.90637   0.79122   0.00000  Uiso   1.00
C656   C     0.86497   0.54769   0.71752   0.00000  Uiso   1.00
C657   C     0.86447   0.95240   0.79136   0.00000  Uiso   1.00
C658   C     0.84221   0.52399   0.75157   0.00000  Uiso   1.00
C659   C     0.84227   0.97606   0.75087   0.00000  Uiso   1.00
C660   C     0.81144   0.71444   0.54956   0.00000  Uiso   1.00
C661   C     0.87395   0.77058   0.95294   0.00000  Uiso   1.00
C662   C     0.81168   0.71518   0.59922   0.00000  Uiso   1.00
C663   C     0.87307   0.77031   0.90319   0.00000  Uiso   1.00
C664   C     0.85507   0.78479   0.60525   0.00000  Uiso   1.00
C665   C     0.79363   0.72970   0.89232   0.00000  Uiso   1.00
C666   C     0.85537   0.78552   0.55567   0.00000  Uiso   1.00
F667   F     0.78788   0.61263   0.81673   0.00000  Uiso   1.00
F668   F     0.78922   0.88735   0.67031   0.00000  Uiso   1.00
F669   F     0.88531   0.61651   0.68429   0.00000  Uiso   1.00
F670   F     0.88435   0.88363   0.83038   0.00000  Uiso   1.00
F671   F     0.89023   0.52620   0.68541   0.00000  Uiso   1.00
F672   F     0.88915   0.97394   0.83063   0.00000  Uiso   1.00
H673   H     0.99134   0.75000   0.69437   0.00000  Uiso   1.00
H674   H     0.76226   0.71369   0.86866   0.00000  Uiso   1.00
H675   H     0.87207   0.81414   0.54023   0.00000  Uiso   1.00
H676   H     0.76007   0.71375   0.95510   0.00000  Uiso   1.00
H677   H     0.67532   0.74995   0.80565   0.00000  Uiso   1.00
H678   H     0.79859   0.52727   0.81096   0.00000  Uiso   1.00
H679   H     0.79974   0.97270   0.67911   0.00000  Uiso   1.00
H680   H     0.79477   0.68582   0.52948   0.00000  Uiso   1.00
H681   H     0.90668   0.78628   0.97519   0.00000  Uiso   1.00
H682   H     0.79460   0.68768   0.61619   0.00000  Uiso   1.00
H683   H     0.90442   0.78628   0.88810   0.00000  Uiso   1.00
H684   H     0.87217   0.81227   0.62698   0.00000  Uiso   1.00
N685   N     0.83333   0.74999   0.62624   0.00000  Uiso   1.00
N686   N     0.83333   0.75001   0.87377   0.00000  Uiso   1.00
O687   O     0.83334   0.68454   0.78974   0.00000  Uiso   1.00
O688   O     0.83333   0.81547   0.71026   0.00000  Uiso   1.00
O689   O     0.83334   0.68453   0.71026   0.00000  Uiso   1.00
O690   O     0.83333   0.81547   0.78974   0.00000  Uiso   1.00
O691   O     0.75725   0.75000   0.78045   0.00000  Uiso   1.00
O692   O     0.90942   0.75000   0.71956   0.00000  Uiso   1.00
O693   O     0.75725   0.75000   0.70097   0.00000  Uiso   1.00
O694   O     0.90942   0.75001   0.79904   0.00000  Uiso   1.00
Zn695  Zn    0.83333   0.75001   0.80307   0.00000  Uiso   1.00
Zn696  Zn    0.83333   0.75000   0.69693   0.00000  Uiso   1.00
loop_
_geom_bond_atom_site_label_1
_geom_bond_atom_site_label_2
_geom_bond_distance
_geom_bond_site_symmetry_2
_ccdc_geom_bond_type
C1     O51     1.286   .     A
C1     C14     1.440   .     S
C1     O49     1.286   .     A
C2     C4      1.410   .     A
C2     C27     1.406   .     A
C2     H38     1.082   .     S
C3     C28     1.410   .     A
C3     C22     1.410   .     A
C3     C352    1.512   1_554 S
C4     C23     1.411   .     A
C4     C351    1.512   .     S
C5     C7      1.402   .     S
C5     O53     1.275   .     A
C5     O55     1.278   .     A
C6     O54     1.275   .     A
C6     C8      1.402   .     S
C6     O56     1.278   .     A
C7     C124    1.330   1_455 S
C7     H151    1.088   1_455 S
C8     C65     1.330   .     S
C8     H97     1.088   .     S
C9     C20     1.396   .     A
C9     C11     1.380   .     A
C9     H40     1.084   .     S
C10    C13     1.380   .     A
C10    H41     1.084   .     S
C10    C21     1.396   .     A
C11    F29     1.358   .     S
C11    C14     1.403   .     A
C12    C15     1.441   .     S
C12    O52     1.286   .     A
C12    O50     1.286   .     A
C13    C15     1.403   .     A
C13    F30     1.358   .     S
C14    C16     1.405   .     A
C15    C17     1.405   .     A
C16    C18     1.382   .     A
C16    F31     1.359   .     S
C17    F32     1.359   .     S
C17    C19     1.382   .     A
C18    C20     1.397   .     A
C18    F33     1.358   .     S
C19    C21     1.397   .     A
C19    F34     1.358   .     S
C20    C195    1.437   1_545 S
C21    C194    1.437   .     S
C22    H42     1.082   .     S
C22    C24     1.407   .     A
C23    C25     1.407   .     A
C23    H43     1.082   .     S
C24    H44     1.082   .     S
C24    N47     1.363   .     A
C25    N48     1.363   .     A
C25    H45     1.082   .     S
C26    C28     1.407   .     A
C26    N47     1.363   .     A
C26    H46     1.082   .     S
C27    N48     1.363   .     A
C27    H36     1.082   .     S
C28    H37     1.082   .     S
H35    C65     1.088   .     S
H39    C124    1.088   1_455 S
N47    Zn58    2.003   .     S
N48    Zn57    2.003   .     S
O49    Zn57    1.999   .     S
O50    Zn58    1.999   .     S
O51    Zn58    2.000   .     S
O52    Zn57    2.000   .     S
O53    Zn57    1.970   .     S
O54    Zn58    1.970   .     S
O55    Zn58    1.982   .     S
O56    Zn57    1.982   .     S
C59    O109    1.286   .     A
C59    C72     1.440   .     S
C59    O107    1.286   .     A
C60    C62     1.410   .     A
C60    C85     1.406   .     A
C60    H96     1.082   .     S
C61    C86     1.410   .     A
C61    C80     1.410   .     A
C61    C410    1.512   1_554 S
C62    C81     1.411   .     A
C62    C409    1.512   .     S
C63    C65     1.402   .     S
C63    O111    1.275   .     A
C63    O113    1.278   .     A
C64    O112    1.275   .     A
C64    C66     1.402   .     S
C64    O114    1.278   .     A
C66    C123    1.330   .     S
C66    H155    1.088   .     S
C67    C78     1.396   .     A
C67    C69     1.380   .     A
C67    H98     1.084   .     S
C68    C71     1.380   .     A
C68    H99     1.084   .     S
C68    C79     1.396   .     A
C69    F87     1.358   .     S
C69    C72     1.403   .     A
C70    C73     1.441   .     S
C70    O110    1.286   .     A
C70    O108    1.286   .     A
C71    C73     1.403   .     A
C71    F88     1.358   .     S
C72    C74     1.405   .     A
C73    C75     1.405   .     A
C74    C76     1.382   .     A
C74    F89     1.359   .     S
C75    F90     1.359   .     S
C75    C77     1.382   .     A
C76    C78     1.397   .     A
C76    F91     1.358   .     S
C77    C79     1.397   .     A
C77    F92     1.358   .     S
C78    C253    1.437   1_545 S
C79    C252    1.437   .     S
C80    H100    1.082   .     S
C80    C82     1.407   .     A
C81    C83     1.407   .     A
C81    H101    1.082   .     S
C82    H102    1.082   .     S
C82    N105    1.363   .     A
C83    N106    1.363   .     A
C83    H103    1.082   .     S
C84    C86     1.407   .     A
C84    N105    1.363   .     A
C84    H104    1.082   .     S
C85    N106    1.363   .     A
C85    H94     1.082   .     S
C86    H95     1.082   .     S
H93    C123    1.088   .     S
N105   Zn116   2.003   .     S
N106   Zn115   2.003   .     S
O107   Zn115   1.999   .     S
O108   Zn116   1.999   .     S
O109   Zn116   2.000   .     S
O110   Zn115   2.000   .     S
O111   Zn115   1.970   .     S
O112   Zn116   1.970   .     S
O113   Zn116   1.982   .     S
O114   Zn115   1.982   .     S
C117   O167    1.286   .     A
C117   C130    1.440   .     S
C117   O165    1.286   .     A
C118   C120    1.410   .     A
C118   C143    1.406   .     A
C118   H154    1.082   .     S
C119   C144    1.410   .     A
C119   C138    1.410   .     A
C119   C468    1.512   1_554 S
C120   C139    1.411   .     A
C120   C467    1.512   .     S
C121   C123    1.402   .     S
C121   O169    1.275   .     A
C121   O171    1.278   .     A
C122   O170    1.275   .     A
C122   C124    1.402   .     S
C122   O172    1.278   .     A
C124   C7      1.330   1_655 S
C124   H39     1.088   1_655 S
C125   C136    1.396   .     A
C125   C127    1.380   .     A
C125   H156    1.084   .     S
C126   C129    1.380   .     A
C126   H157    1.084   .     S
C126   C137    1.396   .     A
C127   F145    1.358   .     S
C127   C130    1.403   .     A
C128   C131    1.441   .     S
C128   O168    1.286   .     A
C128   O166    1.286   .     A
C129   C131    1.403   .     A
C129   F146    1.358   .     S
C130   C132    1.405   .     A
C131   C133    1.405   .     A
C132   C134    1.382   .     A
C132   F147    1.359   .     S
C133   F148    1.359   .     S
C133   C135    1.382   .     A
C134   C136    1.397   .     A
C134   F149    1.358   .     S
C135   C137    1.397   .     A
C135   F150    1.358   .     S
C136   C311    1.437   1_545 S
C137   C310    1.437   .     S
C138   H158    1.082   .     S
C138   C140    1.407   .     A
C139   C141    1.407   .     A
C139   H159    1.082   .     S
C140   H160    1.082   .     S
C140   N163    1.363   .     A
C141   N164    1.363   .     A
C141   H161    1.082   .     S
C142   C144    1.407   .     A
C142   N163    1.363   .     A
C142   H162    1.082   .     S
C143   N164    1.363   .     A
C143   H152    1.082   .     S
C144   H153    1.082   .     S
H151   C7      1.088   1_655 S
N163   Zn174   2.003   .     S
N164   Zn173   2.003   .     S
O165   Zn173   1.999   .     S
O166   Zn174   1.999   .     S
O167   Zn174   2.000   .     S
O168   Zn173   2.000   .     S
O169   Zn173   1.970   .     S
O170   Zn174   1.970   .     S
O171   Zn174   1.982   .     S
O172   Zn173   1.982   .     S
C175   O225    1.286   .     A
C175   C188    1.440   .     S
C175   O223    1.286   .     A
C176   C178    1.410   .     A
C176   C201    1.406   .     A
C176   H212    1.082   .     S
C177   C202    1.410   .     A
C177   C196    1.410   .     A
C177   C526    1.512   1_554 S
C178   C197    1.411   .     A
C178   C525    1.512   .     S
C179   C181    1.402   .     S
C179   O227    1.275   .     A
C179   O229    1.278   .     A
C180   O228    1.275   .     A
C180   C182    1.402   .     S
C180   O230    1.278   .     A
C181   C298    1.330   1_455 S
C181   H325    1.088   1_455 S
C182   C239    1.330   .     S
C182   H271    1.088   .     S
C183   C194    1.396   .     A
C183   C185    1.380   .     A
C183   H214    1.084   .     S
C184   C187    1.380   .     A
C184   H215    1.084   .     S
C184   C195    1.396   .     A
C185   F203    1.358   .     S
C185   C188    1.403   .     A
C186   C189    1.441   .     S
C186   O226    1.286   .     A
C186   O224    1.286   .     A
C187   C189    1.403   .     A
C187   F204    1.358   .     S
C188   C190    1.405   .     A
C189   C191    1.405   .     A
C190   C192    1.382   .     A
C190   F205    1.359   .     S
C191   F206    1.359   .     S
C191   C193    1.382   .     A
C192   C194    1.397   .     A
C192   F207    1.358   .     S
C193   C195    1.397   .     A
C193   F208    1.358   .     S
C195   C20     1.437   1_565 S
C196   H216    1.082   .     S
C196   C198    1.407   .     A
C197   C199    1.407   .     A
C197   H217    1.082   .     S
C198   H218    1.082   .     S
C198   N221    1.363   .     A
C199   N222    1.363   .     A
C199   H219    1.082   .     S
C200   C202    1.407   .     A
C200   N221    1.363   .     A
C200   H220    1.082   .     S
C201   N222    1.363   .     A
C201   H210    1.082   .     S
C202   H211    1.082   .     S
H209   C239    1.088   .     S
H213   C298    1.088   1_455 S
N221   Zn232   2.003   .     S
N222   Zn231   2.003   .     S
O223   Zn231   1.999   .     S
O224   Zn232   1.999   .     S
O225   Zn232   2.000   .     S
O226   Zn231   2.000   .     S
O227   Zn231   1.970   .     S
O228   Zn232   1.970   .     S
O229   Zn232   1.982   .     S
O230   Zn231   1.982   .     S
C233   O283    1.286   .     A
C233   C246    1.440   .     S
C233   O281    1.286   .     A
C234   C236    1.410   .     A
C234   C259    1.406   .     A
C234   H270    1.082   .     S
C235   C260    1.410   .     A
C235   C254    1.410   .     A
C235   C584    1.512   1_554 S
C236   C255    1.411   .     A
C236   C583    1.512   .     S
C237   C239    1.402   .     S
C237   O285    1.275   .     A
C237   O287    1.278   .     A
C238   O286    1.275   .     A
C238   C240    1.402   .     S
C238   O288    1.278   .     A
C240   C297    1.330   .     S
C240   H329    1.088   .     S
C241   C252    1.396   .     A
C241   C243    1.380   .     A
C241   H272    1.084   .     S
C242   C245    1.380   .     A
C242   H273    1.084   .     S
C242   C253    1.396   .     A
C243   F261    1.358   .     S
C243   C246    1.403   .     A
C244   C247    1.441   .     S
C244   O284    1.286   .     A
C244   O282    1.286   .     A
C245   C247    1.403   .     A
C245   F262    1.358   .     S
C246   C248    1.405   .     A
C247   C249    1.405   .     A
C248   C250    1.382   .     A
C248   F263    1.359   .     S
C249   F264    1.359   .     S
C249   C251    1.382   .     A
C250   C252    1.397   .     A
C250   F265    1.358   .     S
C251   C253    1.397   .     A
C251   F266    1.358   .     S
C253   C78     1.437   1_565 S
C254   H274    1.082   .     S
C254   C256    1.407   .     A
C255   C257    1.407   .     A
C255   H275    1.082   .     S
C256   H276    1.082   .     S
C256   N279    1.363   .     A
C257   N280    1.363   .     A
C257   H277    1.082   .     S
C258   C260    1.407   .     A
C258   N279    1.363   .     A
C258   H278    1.082   .     S
C259   N280    1.363   .     A
C259   H268    1.082   .     S
C260   H269    1.082   .     S
H267   C297    1.088   .     S
N279   Zn290   2.003   .     S
N280   Zn289   2.003   .     S
O281   Zn289   1.999   .     S
O282   Zn290   1.999   .     S
O283   Zn290   2.000   .     S
O284   Zn289   2.000   .     S
O285   Zn289   1.970   .     S
O286   Zn290   1.970   .     S
O287   Zn290   1.982   .     S
O288   Zn289   1.982   .     S
C291   O341    1.286   .     A
C291   C304    1.440   .     S
C291   O339    1.286   .     A
C292   C294    1.410   .     A
C292   C317    1.406   .     A
C292   H328    1.082   .     S
C293   C318    1.410   .     A
C293   C312    1.410   .     A
C293   C642    1.512   1_554 S
C294   C313    1.411   .     A
C294   C641    1.512   .     S
C295   C297    1.402   .     S
C295   O343    1.275   .     A
C295   O345    1.278   .     A
C296   O344    1.275   .     A
C296   C298    1.402   .     S
C296   O346    1.278   .     A
C298   C181    1.330   1_655 S
C298   H213    1.088   1_655 S
C299   C310    1.396   .     A
C299   C301    1.380   .     A
C299   H330    1.084   .     S
C300   C303    1.380   .     A
C300   H331    1.084   .     S
C300   C311    1.396   .     A
C301   F319    1.358   .     S
C301   C304    1.403   .     A
C302   C305    1.441   .     S
C302   O342    1.286   .     A
C302   O340    1.286   .     A
C303   C305    1.403   .     A
C303   F320    1.358   .     S
C304   C306    1.405   .     A
C305   C307    1.405   .     A
C306   C308    1.382   .     A
C306   F321    1.359   .     S
C307   F322    1.359   .     S
C307   C309    1.382   .     A
C308   C310    1.397   .     A
C308   F323    1.358   .     S
C309   C311    1.397   .     A
C309   F324    1.358   .     S
C311   C136    1.437   1_565 S
C312   H332    1.082   .     S
C312   C314    1.407   .     A
C313   C315    1.407   .     A
C313   H333    1.082   .     S
C314   H334    1.082   .     S
C314   N337    1.363   .     A
C315   N338    1.363   .     A
C315   H335    1.082   .     S
C316   C318    1.407   .     A
C316   N337    1.363   .     A
C316   H336    1.082   .     S
C317   N338    1.363   .     A
C317   H326    1.082   .     S
C318   H327    1.082   .     S
H325   C181    1.088   1_655 S
N337   Zn348   2.003   .     S
N338   Zn347   2.003   .     S
O339   Zn347   1.999   .     S
O340   Zn348   1.999   .     S
O341   Zn348   2.000   .     S
O342   Zn347   2.000   .     S
O343   Zn347   1.970   .     S
O344   Zn348   1.970   .     S
O345   Zn348   1.982   .     S
O346   Zn347   1.982   .     S
C349   O399    1.286   .     A
C349   C362    1.440   .     S
C349   O397    1.286   .     A
C350   C352    1.410   .     A
C350   C375    1.406   .     A
C350   H386    1.082   .     S
C351   C376    1.410   .     A
C351   C370    1.410   .     A
C352   C371    1.411   .     A
C352   C3      1.512   1_556 S
C353   C355    1.402   .     S
C353   O401    1.275   .     A
C353   O403    1.278   .     A
C354   O402    1.275   .     A
C354   C356    1.402   .     S
C354   O404    1.278   .     A
C355   C472    1.330   1_455 S
C355   H499    1.088   1_455 S
C356   C413    1.330   .     S
C356   H445    1.088   .     S
C357   C368    1.396   .     A
C357   C359    1.380   .     A
C357   H388    1.084   .     S
C358   C361    1.380   .     A
C358   H389    1.084   .     S
C358   C369    1.396   .     A
C359   F377    1.358   .     S
C359   C362    1.403   .     A
C360   C363    1.441   .     S
C360   O400    1.286   .     A
C360   O398    1.286   .     A
C361   C363    1.403   .     A
C361   F378    1.358   .     S
C362   C364    1.405   .     A
C363   C365    1.405   .     A
C364   C366    1.382   .     A
C364   F379    1.359   .     S
C365   F380    1.359   .     S
C365   C367    1.382   .     A
C366   C368    1.397   .     A
C366   F381    1.358   .     S
C367   C369    1.397   .     A
C367   F382    1.358   .     S
C368   C543    1.437   1_545 S
C369   C542    1.437   .     S
C370   H390    1.082   .     S
C370   C372    1.407   .     A
C371   C373    1.407   .     A
C371   H391    1.082   .     S
C372   H392    1.082   .     S
C372   N395    1.363   .     A
C373   N396    1.363   .     A
C373   H393    1.082   .     S
C374   C376    1.407   .     A
C374   N395    1.363   .     A
C374   H394    1.082   .     S
C375   N396    1.363   .     A
C375   H384    1.082   .     S
C376   H385    1.082   .     S
H383   C413    1.088   .     S
H387   C472    1.088   1_455 S
N395   Zn406   2.003   .     S
N396   Zn405   2.003   .     S
O397   Zn405   1.999   .     S
O398   Zn406   1.999   .     S
O399   Zn406   2.000   .     S
O400   Zn405   2.000   .     S
O401   Zn405   1.970   .     S
O402   Zn406   1.970   .     S
O403   Zn406   1.982   .     S
O404   Zn405   1.982   .     S
C407   O457    1.286   .     A
C407   C420    1.440   .     S
C407   O455    1.286   .     A
C408   C410    1.410   .     A
C408   C433    1.406   .     A
C408   H444    1.082   .     S
C409   C434    1.410   .     A
C409   C428    1.410   .     A
C410   C429    1.411   .     A
C410   C61     1.512   1_556 S
C411   C413    1.402   .     S
C411   O459    1.275   .     A
C411   O461    1.278   .     A
C412   O460    1.275   .     A
C412   C414    1.402   .     S
C412   O462    1.278   .     A
C414   C471    1.330   .     S
C414   H503    1.088   .     S
C415   C426    1.396   .     A
C415   C417    1.380   .     A
C415   H446    1.084   .     S
C416   C419    1.380   .     A
C416   H447    1.084   .     S
C416   C427    1.396   .     A
C417   F435    1.358   .     S
C417   C420    1.403   .     A
C418   C421    1.441   .     S
C418   O458    1.286   .     A
C418   O456    1.286   .     A
C419   C421    1.403   .     A
C419   F436    1.358   .     S
C420   C422    1.405   .     A
C421   C423    1.405   .     A
C422   C424    1.382   .     A
C422   F437    1.359   .     S
C423   F438    1.359   .     S
C423   C425    1.382   .     A
C424   C426    1.397   .     A
C424   F439    1.358   .     S
C425   C427    1.397   .     A
C425   F440    1.358   .     S
C426   C601    1.437   1_545 S
C427   C600    1.437   .     S
C428   H448    1.082   .     S
C428   C430    1.407   .     A
C429   C431    1.407   .     A
C429   H449    1.082   .     S
C430   H450    1.082   .     S
C430   N453    1.363   .     A
C431   N454    1.363   .     A
C431   H451    1.082   .     S
C432   C434    1.407   .     A
C432   N453    1.363   .     A
C432   H452    1.082   .     S
C433   N454    1.363   .     A
C433   H442    1.082   .     S
C434   H443    1.082   .     S
H441   C471    1.088   .     S
N453   Zn464   2.003   .     S
N454   Zn463   2.003   .     S
O455   Zn463   1.999   .     S
O456   Zn464   1.999   .     S
O457   Zn464   2.000   .     S
O458   Zn463   2.000   .     S
O459   Zn463   1.970   .     S
O460   Zn464   1.970   .     S
O461   Zn464   1.982   .     S
O462   Zn463   1.982   .     S
C465   O515    1.286   .     A
C465   C478    1.440   .     S
C465   O513    1.286   .     A
C466   C468    1.410   .     A
C466   C491    1.406   .     A
C466   H502    1.082   .     S
C467   C492    1.410   .     A
C467   C486    1.410   .     A
C468   C487    1.411   .     A
C468   C119    1.512   1_556 S
C469   C471    1.402   .     S
C469   O517    1.275   .     A
C469   O519    1.278   .     A
C470   O518    1.275   .     A
C470   C472    1.402   .     S
C470   O520    1.278   .     A
C472   C355    1.330   1_655 S
C472   H387    1.088   1_655 S
C473   C484    1.396   .     A
C473   C475    1.380   .     A
C473   H504    1.084   .     S
C474   C477    1.380   .     A
C474   H505    1.084   .     S
C474   C485    1.396   .     A
C475   F493    1.358   .     S
C475   C478    1.403   .     A
C476   C479    1.441   .     S
C476   O516    1.286   .     A
C476   O514    1.286   .     A
C477   C479    1.403   .     A
C477   F494    1.358   .     S
C478   C480    1.405   .     A
C479   C481    1.405   .     A
C480   C482    1.382   .     A
C480   F495    1.359   .     S
C481   F496    1.359   .     S
C481   C483    1.382   .     A
C482   C484    1.397   .     A
C482   F497    1.358   .     S
C483   C485    1.397   .     A
C483   F498    1.358   .     S
C484   C659    1.437   1_545 S
C485   C658    1.437   .     S
C486   H506    1.082   .     S
C486   C488    1.407   .     A
C487   C489    1.407   .     A
C487   H507    1.082   .     S
C488   H508    1.082   .     S
C488   N511    1.363   .     A
C489   N512    1.363   .     A
C489   H509    1.082   .     S
C490   C492    1.407   .     A
C490   N511    1.363   .     A
C490   H510    1.082   .     S
C491   N512    1.363   .     A
C491   H500    1.082   .     S
C492   H501    1.082   .     S
H499   C355    1.088   1_655 S
N511   Zn522   2.003   .     S
N512   Zn521   2.003   .     S
O513   Zn521   1.999   .     S
O514   Zn522   1.999   .     S
O515   Zn522   2.000   .     S
O516   Zn521   2.000   .     S
O517   Zn521   1.970   .     S
O518   Zn522   1.970   .     S
O519   Zn522   1.982   .     S
O520   Zn521   1.982   .     S
C523   O573    1.286   .     A
C523   C536    1.440   .     S
C523   O571    1.286   .     A
C524   C526    1.410   .     A
C524   C549    1.406   .     A
C524   H560    1.082   .     S
C525   C550    1.410   .     A
C525   C544    1.410   .     A
C526   C545    1.411   .     A
C526   C177    1.512   1_556 S
C527   C529    1.402   .     S
C527   O575    1.275   .     A
C527   O577    1.278   .     A
C528   O576    1.275   .     A
C528   C530    1.402   .     S
C528   O578    1.278   .     A
C529   C646    1.330   1_455 S
C529   H673    1.088   1_455 S
C530   C587    1.330   .     S
C530   H619    1.088   .     S
C531   C542    1.396   .     A
C531   C533    1.380   .     A
C531   H562    1.084   .     S
C532   C535    1.380   .     A
C532   H563    1.084   .     S
C532   C543    1.396   .     A
C533   F551    1.358   .     S
C533   C536    1.403   .     A
C534   C537    1.441   .     S
C534   O574    1.286   .     A
C534   O572    1.286   .     A
C535   C537    1.403   .     A
C535   F552    1.358   .     S
C536   C538    1.405   .     A
C537   C539    1.405   .     A
C538   C540    1.382   .     A
C538   F553    1.359   .     S
C539   F554    1.359   .     S
C539   C541    1.382   .     A
C540   C542    1.397   .     A
C540   F555    1.358   .     S
C541   C543    1.397   .     A
C541   F556    1.358   .     S
C543   C368    1.437   1_565 S
C544   H564    1.082   .     S
C544   C546    1.407   .     A
C545   C547    1.407   .     A
C545   H565    1.082   .     S
C546   H566    1.082   .     S
C546   N569    1.363   .     A
C547   N570    1.363   .     A
C547   H567    1.082   .     S
C548   C550    1.407   .     A
C548   N569    1.363   .     A
C548   H568    1.082   .     S
C549   N570    1.363   .     A
C549   H558    1.082   .     S
C550   H559    1.082   .     S
H557   C587    1.088   .     S
H561   C646    1.088   1_455 S
N569   Zn580   2.003   .     S
N570   Zn579   2.003   .     S
O571   Zn579   1.999   .     S
O572   Zn580   1.999   .     S
O573   Zn580   2.000   .     S
O574   Zn579   2.000   .     S
O575   Zn579   1.970   .     S
O576   Zn580   1.970   .     S
O577   Zn580   1.982   .     S
O578   Zn579   1.982   .     S
C581   O631    1.286   .     A
C581   C594    1.440   .     S
C581   O629    1.286   .     A
C582   C584    1.410   .     A
C582   C607    1.406   .     A
C582   H618    1.082   .     S
C583   C608    1.410   .     A
C583   C602    1.410   .     A
C584   C603    1.411   .     A
C584   C235    1.512   1_556 S
C585   C587    1.402   .     S
C585   O633    1.275   .     A
C585   O635    1.278   .     A
C586   O634    1.275   .     A
C586   C588    1.402   .     S
C586   O636    1.278   .     A
C588   C645    1.330   .     S
C588   H677    1.088   .     S
C589   C600    1.396   .     A
C589   C591    1.380   .     A
C589   H620    1.084   .     S
C590   C593    1.380   .     A
C590   H621    1.084   .     S
C590   C601    1.396   .     A
C591   F609    1.358   .     S
C591   C594    1.403   .     A
C592   C595    1.441   .     S
C592   O632    1.286   .     A
C592   O630    1.286   .     A
C593   C595    1.403   .     A
C593   F610    1.358   .     S
C594   C596    1.405   .     A
C595   C597    1.405   .     A
C596   C598    1.382   .     A
C596   F611    1.359   .     S
C597   F612    1.359   .     S
C597   C599    1.382   .     A
C598   C600    1.397   .     A
C598   F613    1.358   .     S
C599   C601    1.397   .     A
C599   F614    1.358   .     S
C601   C426    1.437   1_565 S
C602   H622    1.082   .     S
C602   C604    1.407   .     A
C603   C605    1.407   .     A
C603   H623    1.082   .     S
C604   H624    1.082   .     S
C604   N627    1.363   .     A
C605   N628    1.363   .     A
C605   H625    1.082   .     S
C606   C608    1.407   .     A
C606   N627    1.363   .     A
C606   H626    1.082   .     S
C607   N628    1.363   .     A
C607   H616    1.082   .     S
C608   H617    1.082   .     S
H615   C645    1.088   .     S
N627   Zn638   2.003   .     S
N628   Zn637   2.003   .     S
O629   Zn637   1.999   .     S
O630   Zn638   1.999   .     S
O631   Zn638   2.000   .     S
O632   Zn637   2.000   .     S
O633   Zn637   1.970   .     S
O634   Zn638   1.970   .     S
O635   Zn638   1.982   .     S
O636   Zn637   1.982   .     S
C639   O689    1.286   .     A
C639   C652    1.440   .     S
C639   O687    1.286   .     A
C640   C642    1.410   .     A
C640   C665    1.406   .     A
C640   H676    1.082   .     S
C641   C666    1.410   .     A
C641   C660    1.410   .     A
C642   C661    1.411   .     A
C642   C293    1.512   1_556 S
C643   C645    1.402   .     S
C643   O691    1.275   .     A
C643   O693    1.278   .     A
C644   O692    1.275   .     A
C644   C646    1.402   .     S
C644   O694    1.278   .     A
C646   C529    1.330   1_655 S
C646   H561    1.088   1_655 S
C647   C658    1.396   .     A
C647   C649    1.380   .     A
C647   H678    1.084   .     S
C648   C651    1.380   .     A
C648   H679    1.084   .     S
C648   C659    1.396   .     A
C649   F667    1.358   .     S
C649   C652    1.403   .     A
C650   C653    1.441   .     S
C650   O690    1.286   .     A
C650   O688    1.286   .     A
C651   C653    1.403   .     A
C651   F668    1.358   .     S
C652   C654    1.405   .     A
C653   C655    1.405   .     A
C654   C656    1.382   .     A
C654   F669    1.359   .     S
C655   F670    1.359   .     S
C655   C657    1.382   .     A
C656   C658    1.397   .     A
C656   F671    1.358   .     S
C657   C659    1.397   .     A
C657   F672    1.358   .     S
C659   C484    1.437   1_565 S
C660   H680    1.082   .     S
C660   C662    1.407   .     A
C661   C663    1.407   .     A
C661   H681    1.082   .     S
C662   H682    1.082   .     S
C662   N685    1.363   .     A
C663   N686    1.363   .     A
C663   H683    1.082   .     S
C664   C666    1.407   .     A
C664   N685    1.363   .     A
C664   H684    1.082   .     S
C665   N686    1.363   .     A
C665   H674    1.082   .     S
C666   H675    1.082   .     S
H673   C529    1.088   1_655 S
N685   Zn696   2.003   .     S
N686   Zn695   2.003   .     S
O687   Zn695   1.999   .     S
O688   Zn696   1.999   .     S
O689   Zn696   2.000   .     S
O690   Zn695   2.000   .     S
O691   Zn695   1.970   .     S
O692   Zn696   1.970   .     S
O693   Zn696   1.982   .     S
O694   Zn695   1.982   .     S
