data_str_m2_o1_o16_pcu_sym.179
_audit_creation_date              2020-01-03
_audit_creation_method            'Materials Studio'
_symmetry_space_group_name_H-M    'P1'
_symmetry_Int_Tables_number       1
_symmetry_cell_setting            triclinic
loop_
_symmetry_equiv_pos_as_xyz
  x,y,z
_cell_length_a                    28.5317
_cell_length_b                    32.4872
_cell_length_c                    26.8926
_cell_angle_alpha                 89.6056
_cell_angle_beta                  71.9425
_cell_angle_gamma                 89.9298
loop_
_atom_site_label
_atom_site_type_symbol
_atom_site_fract_x
_atom_site_fract_y
_atom_site_fract_z
_atom_site_U_iso_or_equiv
_atom_site_adp_type
_atom_site_occupancy
C1     C     0.16667   0.24598   0.24995   0.00000  Uiso   1.00
C2     C     0.14409   0.16387   0.48967   0.00000  Uiso   1.00
C3     C     0.15347   0.14978   0.43754   0.00000  Uiso   1.00
C4     C     0.18013   0.15672   0.01546   0.00000  Uiso   1.00
C5     C     0.22426   0.13562   0.48897   0.00000  Uiso   1.00
C6     C     0.22854   0.11557   0.44166   0.00000  Uiso   1.00
C7     C     0.19219   0.12122   0.41733   0.00000  Uiso   1.00
C8     C     0.17366   0.16959   0.06698   0.00000  Uiso   1.00
C9     C     0.25495   0.14491   0.06308   0.00000  Uiso   1.00
C10    C     0.12312   0.16423   0.40796   0.00000  Uiso   1.00
C11    C     0.21036   0.31202   0.24569   0.00000  Uiso   1.00
C12    C     0.14009   0.16492   0.35026   0.00000  Uiso   1.00
C13    C     0.21049   0.02126   0.24518   0.00000  Uiso   1.00
C14    C     0.16697   0.04274   0.24879   0.00000  Uiso   1.00
C15    C     0.12339   0.02133   0.25257   0.00000  Uiso   1.00
C16    C     0.12328   0.31208   0.25296   0.00000  Uiso   1.00
C17    C     0.16675   0.29060   0.24959   0.00000  Uiso   1.00
C18    C     0.30032   0.19518   0.27802   0.00000  Uiso   1.00
C19    C     0.01657   0.19509   0.27814   0.00000  Uiso   1.00
C20    C     0.03294   0.13802   0.22222   0.00000  Uiso   1.00
C21    C     0.31658   0.13787   0.22254   0.00000  Uiso   1.00
C22    C     0.16689   0.08736   0.24916   0.00000  Uiso   1.00
C23    C     0.19331   0.16608   0.14962   0.00000  Uiso   1.00
C24    C     0.26231   0.13268   0.01171   0.00000  Uiso   1.00
C25    C     0.20893   0.16142   0.09221   0.00000  Uiso   1.00
C26    C     0.07868   0.18428   0.43335   0.00000  Uiso   1.00
C27    C     0.06634   0.19347   0.48605   0.00000  Uiso   1.00
C28    C     0.09911   0.18475   0.01364   0.00000  Uiso   1.00
Cu29   Cu    0.11978   0.16666   0.25000   0.00000  Uiso   1.00
Cu30   Cu    0.21355   0.16667   0.25000   0.00000  Uiso   1.00
H31    H     0.24456   0.03727   0.24212   0.00000  Uiso   1.00
H32    H     0.08934   0.03737   0.25549   0.00000  Uiso   1.00
H33    H     0.08919   0.29608   0.25609   0.00000  Uiso   1.00
H34    H     0.27503   0.21798   0.30054   0.00000  Uiso   1.00
H35    H     0.02865   0.21780   0.30076   0.00000  Uiso   1.00
H36    H     0.05816   0.11510   0.19987   0.00000  Uiso   1.00
H37    H     0.30427   0.11460   0.20088   0.00000  Uiso   1.00
H38    H     0.29734   0.11892   0.49045   0.00000  Uiso   1.00
H39    H     0.14039   0.18468   0.08952   0.00000  Uiso   1.00
H40    H     0.05437   0.19468   0.41188   0.00000  Uiso   1.00
H41    H     0.08770   0.19475   0.05366   0.00000  Uiso   1.00
H42    H     0.03215   0.20934   0.00509   0.00000  Uiso   1.00
H43    H     0.24436   0.29597   0.24294   0.00000  Uiso   1.00
N44    N     0.04931   0.16666   0.24999   0.00000  Uiso   1.00
N45    N     0.28402   0.16669   0.25000   0.00000  Uiso   1.00
O46    O     0.12708   0.22678   0.25001   0.00000  Uiso   1.00
O47    O     0.20627   0.22679   0.25001   0.00000  Uiso   1.00
O48    O     0.10775   0.16665   0.32549   0.00000  Uiso   1.00
O49    O     0.18694   0.16666   0.32549   0.00000  Uiso   1.00
O50    O     0.12706   0.10654   0.25000   0.00000  Uiso   1.00
O51    O     0.20625   0.10655   0.25000   0.00000  Uiso   1.00
O52    O     0.14640   0.16667   0.17451   0.00000  Uiso   1.00
O53    O     0.22559   0.16668   0.17451   0.00000  Uiso   1.00
Br54   Br    0.30838   0.13480   0.09076   0.00000  Uiso   1.00
O55    O     0.26877   0.09078   0.41807   0.00000  Uiso   1.00
C56    C     0.26124   0.05131   0.44180   0.00000  Uiso   1.00
H57    H     0.22535   0.03777   0.44193   0.00000  Uiso   1.00
H58    H     0.26216   0.05256   0.48279   0.00000  Uiso   1.00
C59    C     0.30220   0.02278   0.41121   0.00000  Uiso   1.00
H60    H     0.00523   0.03499   0.41120   0.00000  Uiso   1.00
H61    H     0.29688   0.32500   0.42947   0.00000  Uiso   1.00
H62    H     0.30170   0.02029   0.37020   0.00000  Uiso   1.00
Br63   Br    0.18987   0.08111   0.36578   0.00000  Uiso   1.00
C64    C     0.50001   0.24598   0.24995   0.00000  Uiso   1.00
C65    C     0.47742   0.16387   0.48967   0.00000  Uiso   1.00
C66    C     0.48681   0.14978   0.43754   0.00000  Uiso   1.00
C67    C     0.51347   0.15672   0.01546   0.00000  Uiso   1.00
C68    C     0.55759   0.13562   0.48897   0.00000  Uiso   1.00
C69    C     0.56187   0.11557   0.44166   0.00000  Uiso   1.00
C70    C     0.52552   0.12122   0.41733   0.00000  Uiso   1.00
C71    C     0.50699   0.16959   0.06698   0.00000  Uiso   1.00
C72    C     0.58829   0.14491   0.06308   0.00000  Uiso   1.00
C73    C     0.45645   0.16423   0.40796   0.00000  Uiso   1.00
C74    C     0.54369   0.31202   0.24569   0.00000  Uiso   1.00
C75    C     0.47342   0.16492   0.35026   0.00000  Uiso   1.00
C76    C     0.54382   0.02126   0.24518   0.00000  Uiso   1.00
C77    C     0.50030   0.04274   0.24879   0.00000  Uiso   1.00
C78    C     0.45672   0.02133   0.25257   0.00000  Uiso   1.00
C79    C     0.45662   0.31208   0.25296   0.00000  Uiso   1.00
C80    C     0.50008   0.29060   0.24959   0.00000  Uiso   1.00
C81    C     0.63365   0.19518   0.27802   0.00000  Uiso   1.00
C82    C     0.34991   0.19509   0.27814   0.00000  Uiso   1.00
C83    C     0.36628   0.13802   0.22222   0.00000  Uiso   1.00
C84    C     0.64992   0.13787   0.22254   0.00000  Uiso   1.00
C85    C     0.50022   0.08736   0.24916   0.00000  Uiso   1.00
C86    C     0.52665   0.16608   0.14962   0.00000  Uiso   1.00
C87    C     0.59564   0.13268   0.01171   0.00000  Uiso   1.00
C88    C     0.54226   0.16142   0.09221   0.00000  Uiso   1.00
C89    C     0.41202   0.18428   0.43335   0.00000  Uiso   1.00
C90    C     0.39968   0.19347   0.48605   0.00000  Uiso   1.00
C91    C     0.43244   0.18475   0.01364   0.00000  Uiso   1.00
Cu92   Cu    0.45311   0.16666   0.25000   0.00000  Uiso   1.00
Cu93   Cu    0.54689   0.16667   0.25000   0.00000  Uiso   1.00
H94    H     0.57790   0.03727   0.24212   0.00000  Uiso   1.00
H95    H     0.42267   0.03737   0.25549   0.00000  Uiso   1.00
H96    H     0.42252   0.29608   0.25609   0.00000  Uiso   1.00
H97    H     0.60837   0.21798   0.30054   0.00000  Uiso   1.00
H98    H     0.36198   0.21780   0.30076   0.00000  Uiso   1.00
H99    H     0.39149   0.11510   0.19987   0.00000  Uiso   1.00
H100   H     0.63760   0.11460   0.20088   0.00000  Uiso   1.00
H101   H     0.63068   0.11892   0.49045   0.00000  Uiso   1.00
H102   H     0.47373   0.18468   0.08952   0.00000  Uiso   1.00
H103   H     0.38770   0.19468   0.41188   0.00000  Uiso   1.00
H104   H     0.42104   0.19475   0.05366   0.00000  Uiso   1.00
H105   H     0.36548   0.20934   0.00509   0.00000  Uiso   1.00
H106   H     0.57770   0.29597   0.24294   0.00000  Uiso   1.00
N107   N     0.38265   0.16666   0.24999   0.00000  Uiso   1.00
N108   N     0.61735   0.16669   0.25000   0.00000  Uiso   1.00
O109   O     0.46042   0.22678   0.25001   0.00000  Uiso   1.00
O110   O     0.53961   0.22679   0.25001   0.00000  Uiso   1.00
O111   O     0.44108   0.16665   0.32549   0.00000  Uiso   1.00
O112   O     0.52027   0.16666   0.32549   0.00000  Uiso   1.00
O113   O     0.46039   0.10654   0.25000   0.00000  Uiso   1.00
O114   O     0.53958   0.10655   0.25000   0.00000  Uiso   1.00
O115   O     0.47973   0.16667   0.17451   0.00000  Uiso   1.00
O116   O     0.55892   0.16668   0.17451   0.00000  Uiso   1.00
Br117  Br    0.64171   0.13480   0.09076   0.00000  Uiso   1.00
O118   O     0.60211   0.09078   0.41807   0.00000  Uiso   1.00
C119   C     0.59457   0.05131   0.44180   0.00000  Uiso   1.00
H120   H     0.55869   0.03777   0.44193   0.00000  Uiso   1.00
H121   H     0.59549   0.05256   0.48279   0.00000  Uiso   1.00
C122   C     0.63554   0.02278   0.41121   0.00000  Uiso   1.00
H123   H     0.33856   0.03499   0.41120   0.00000  Uiso   1.00
H124   H     0.63021   0.32500   0.42947   0.00000  Uiso   1.00
H125   H     0.63503   0.02029   0.37020   0.00000  Uiso   1.00
Br126  Br    0.52320   0.08111   0.36578   0.00000  Uiso   1.00
C127   C     0.83334   0.24598   0.24995   0.00000  Uiso   1.00
C128   C     0.81075   0.16387   0.48967   0.00000  Uiso   1.00
C129   C     0.82014   0.14978   0.43754   0.00000  Uiso   1.00
C130   C     0.84680   0.15672   0.01546   0.00000  Uiso   1.00
C131   C     0.89092   0.13562   0.48897   0.00000  Uiso   1.00
C132   C     0.89520   0.11557   0.44166   0.00000  Uiso   1.00
C133   C     0.85885   0.12122   0.41733   0.00000  Uiso   1.00
C134   C     0.84033   0.16959   0.06698   0.00000  Uiso   1.00
C135   C     0.92162   0.14491   0.06308   0.00000  Uiso   1.00
C136   C     0.78978   0.16423   0.40796   0.00000  Uiso   1.00
C137   C     0.87702   0.31202   0.24569   0.00000  Uiso   1.00
C138   C     0.80676   0.16492   0.35026   0.00000  Uiso   1.00
C139   C     0.87715   0.02126   0.24518   0.00000  Uiso   1.00
C140   C     0.83363   0.04274   0.24879   0.00000  Uiso   1.00
C141   C     0.79005   0.02133   0.25257   0.00000  Uiso   1.00
C142   C     0.78995   0.31208   0.25296   0.00000  Uiso   1.00
C143   C     0.83342   0.29060   0.24959   0.00000  Uiso   1.00
C144   C     0.96698   0.19518   0.27802   0.00000  Uiso   1.00
C145   C     0.68324   0.19509   0.27814   0.00000  Uiso   1.00
C146   C     0.69961   0.13802   0.22222   0.00000  Uiso   1.00
C147   C     0.98325   0.13787   0.22254   0.00000  Uiso   1.00
C148   C     0.83356   0.08736   0.24916   0.00000  Uiso   1.00
C149   C     0.85998   0.16608   0.14962   0.00000  Uiso   1.00
C150   C     0.92897   0.13268   0.01171   0.00000  Uiso   1.00
C151   C     0.87560   0.16142   0.09221   0.00000  Uiso   1.00
C152   C     0.74535   0.18428   0.43335   0.00000  Uiso   1.00
C153   C     0.73301   0.19347   0.48605   0.00000  Uiso   1.00
C154   C     0.76577   0.18475   0.01364   0.00000  Uiso   1.00
Cu155  Cu    0.78645   0.16666   0.25000   0.00000  Uiso   1.00
Cu156  Cu    0.88022   0.16667   0.25000   0.00000  Uiso   1.00
H157   H     0.91123   0.03727   0.24212   0.00000  Uiso   1.00
H158   H     0.75601   0.03737   0.25549   0.00000  Uiso   1.00
H159   H     0.75585   0.29608   0.25609   0.00000  Uiso   1.00
H160   H     0.94170   0.21798   0.30054   0.00000  Uiso   1.00
H161   H     0.69532   0.21780   0.30076   0.00000  Uiso   1.00
H162   H     0.72483   0.11510   0.19987   0.00000  Uiso   1.00
H163   H     0.97094   0.11460   0.20088   0.00000  Uiso   1.00
H164   H     0.96401   0.11892   0.49045   0.00000  Uiso   1.00
H165   H     0.80706   0.18468   0.08952   0.00000  Uiso   1.00
H166   H     0.72104   0.19468   0.41188   0.00000  Uiso   1.00
H167   H     0.75437   0.19475   0.05366   0.00000  Uiso   1.00
H168   H     0.69881   0.20934   0.00509   0.00000  Uiso   1.00
H169   H     0.91103   0.29597   0.24294   0.00000  Uiso   1.00
N170   N     0.71598   0.16666   0.24999   0.00000  Uiso   1.00
N171   N     0.95069   0.16669   0.25000   0.00000  Uiso   1.00
O172   O     0.79375   0.22678   0.25001   0.00000  Uiso   1.00
O173   O     0.87294   0.22679   0.25001   0.00000  Uiso   1.00
O174   O     0.77441   0.16665   0.32549   0.00000  Uiso   1.00
O175   O     0.85360   0.16666   0.32549   0.00000  Uiso   1.00
O176   O     0.79373   0.10654   0.25000   0.00000  Uiso   1.00
O177   O     0.87292   0.10655   0.25000   0.00000  Uiso   1.00
O178   O     0.81306   0.16667   0.17451   0.00000  Uiso   1.00
O179   O     0.89225   0.16668   0.17451   0.00000  Uiso   1.00
Br180  Br    0.97505   0.13480   0.09076   0.00000  Uiso   1.00
O181   O     0.93544   0.09078   0.41807   0.00000  Uiso   1.00
C182   C     0.92790   0.05131   0.44180   0.00000  Uiso   1.00
H183   H     0.89202   0.03777   0.44193   0.00000  Uiso   1.00
H184   H     0.92882   0.05256   0.48279   0.00000  Uiso   1.00
C185   C     0.96887   0.02278   0.41121   0.00000  Uiso   1.00
H186   H     0.67189   0.03499   0.41120   0.00000  Uiso   1.00
H187   H     0.96354   0.32500   0.42947   0.00000  Uiso   1.00
H188   H     0.96837   0.02029   0.37020   0.00000  Uiso   1.00
Br189  Br    0.85654   0.08111   0.36578   0.00000  Uiso   1.00
C190   C     0.16667   0.57932   0.24995   0.00000  Uiso   1.00
C191   C     0.14409   0.49720   0.48967   0.00000  Uiso   1.00
C192   C     0.15347   0.48311   0.43754   0.00000  Uiso   1.00
C193   C     0.18013   0.49006   0.01546   0.00000  Uiso   1.00
C194   C     0.22426   0.46896   0.48897   0.00000  Uiso   1.00
C195   C     0.22854   0.44890   0.44166   0.00000  Uiso   1.00
C196   C     0.19219   0.45455   0.41733   0.00000  Uiso   1.00
C197   C     0.17366   0.50293   0.06698   0.00000  Uiso   1.00
C198   C     0.25495   0.47825   0.06308   0.00000  Uiso   1.00
C199   C     0.12312   0.49756   0.40796   0.00000  Uiso   1.00
C200   C     0.21036   0.64535   0.24569   0.00000  Uiso   1.00
C201   C     0.14009   0.49825   0.35026   0.00000  Uiso   1.00
C202   C     0.21049   0.35460   0.24518   0.00000  Uiso   1.00
C203   C     0.16697   0.37608   0.24879   0.00000  Uiso   1.00
C204   C     0.12339   0.35466   0.25257   0.00000  Uiso   1.00
C205   C     0.12328   0.64542   0.25296   0.00000  Uiso   1.00
C206   C     0.16675   0.62393   0.24959   0.00000  Uiso   1.00
C207   C     0.30032   0.52851   0.27802   0.00000  Uiso   1.00
C208   C     0.01657   0.52842   0.27814   0.00000  Uiso   1.00
C209   C     0.03294   0.47135   0.22222   0.00000  Uiso   1.00
C210   C     0.31658   0.47120   0.22254   0.00000  Uiso   1.00
C211   C     0.16689   0.42069   0.24916   0.00000  Uiso   1.00
C212   C     0.19331   0.49941   0.14962   0.00000  Uiso   1.00
C213   C     0.26231   0.46601   0.01171   0.00000  Uiso   1.00
C214   C     0.20893   0.49476   0.09221   0.00000  Uiso   1.00
C215   C     0.07868   0.51761   0.43335   0.00000  Uiso   1.00
C216   C     0.06634   0.52680   0.48605   0.00000  Uiso   1.00
C217   C     0.09911   0.51808   0.01364   0.00000  Uiso   1.00
Cu218  Cu    0.11978   0.49999   0.25000   0.00000  Uiso   1.00
Cu219  Cu    0.21355   0.50001   0.25000   0.00000  Uiso   1.00
H220   H     0.24456   0.37061   0.24212   0.00000  Uiso   1.00
H221   H     0.08934   0.37071   0.25549   0.00000  Uiso   1.00
H222   H     0.08919   0.62942   0.25609   0.00000  Uiso   1.00
H223   H     0.27503   0.55131   0.30054   0.00000  Uiso   1.00
H224   H     0.02865   0.55113   0.30076   0.00000  Uiso   1.00
H225   H     0.05816   0.44844   0.19987   0.00000  Uiso   1.00
H226   H     0.30427   0.44793   0.20088   0.00000  Uiso   1.00
H227   H     0.29734   0.45226   0.49045   0.00000  Uiso   1.00
H228   H     0.14039   0.51801   0.08952   0.00000  Uiso   1.00
H229   H     0.05437   0.52801   0.41188   0.00000  Uiso   1.00
H230   H     0.08770   0.52808   0.05366   0.00000  Uiso   1.00
H231   H     0.03215   0.54267   0.00509   0.00000  Uiso   1.00
H232   H     0.24436   0.62931   0.24294   0.00000  Uiso   1.00
N233   N     0.04931   0.49999   0.24999   0.00000  Uiso   1.00
N234   N     0.28402   0.50002   0.25000   0.00000  Uiso   1.00
O235   O     0.12708   0.56011   0.25001   0.00000  Uiso   1.00
O236   O     0.20627   0.56012   0.25001   0.00000  Uiso   1.00
O237   O     0.10775   0.49998   0.32549   0.00000  Uiso   1.00
O238   O     0.18694   0.49999   0.32549   0.00000  Uiso   1.00
O239   O     0.12706   0.43988   0.25000   0.00000  Uiso   1.00
O240   O     0.20625   0.43989   0.25000   0.00000  Uiso   1.00
O241   O     0.14640   0.50001   0.17451   0.00000  Uiso   1.00
O242   O     0.22559   0.50002   0.17451   0.00000  Uiso   1.00
Br243  Br    0.30838   0.46813   0.09076   0.00000  Uiso   1.00
O244   O     0.26877   0.42411   0.41807   0.00000  Uiso   1.00
C245   C     0.26124   0.38464   0.44180   0.00000  Uiso   1.00
H246   H     0.22535   0.37111   0.44193   0.00000  Uiso   1.00
H247   H     0.26216   0.38589   0.48279   0.00000  Uiso   1.00
C248   C     0.30220   0.35612   0.41121   0.00000  Uiso   1.00
H249   H     0.00523   0.36832   0.41120   0.00000  Uiso   1.00
H250   H     0.29688   0.65834   0.42947   0.00000  Uiso   1.00
H251   H     0.30170   0.35362   0.37020   0.00000  Uiso   1.00
Br252  Br    0.18987   0.41445   0.36578   0.00000  Uiso   1.00
C253   C     0.50001   0.57932   0.24995   0.00000  Uiso   1.00
C254   C     0.47742   0.49720   0.48967   0.00000  Uiso   1.00
C255   C     0.48681   0.48311   0.43754   0.00000  Uiso   1.00
C256   C     0.51347   0.49006   0.01546   0.00000  Uiso   1.00
C257   C     0.55759   0.46896   0.48897   0.00000  Uiso   1.00
C258   C     0.56187   0.44890   0.44166   0.00000  Uiso   1.00
C259   C     0.52552   0.45455   0.41733   0.00000  Uiso   1.00
C260   C     0.50699   0.50293   0.06698   0.00000  Uiso   1.00
C261   C     0.58829   0.47825   0.06308   0.00000  Uiso   1.00
C262   C     0.45645   0.49756   0.40796   0.00000  Uiso   1.00
C263   C     0.54369   0.64535   0.24569   0.00000  Uiso   1.00
C264   C     0.47342   0.49825   0.35026   0.00000  Uiso   1.00
C265   C     0.54382   0.35460   0.24518   0.00000  Uiso   1.00
C266   C     0.50030   0.37608   0.24879   0.00000  Uiso   1.00
C267   C     0.45672   0.35466   0.25257   0.00000  Uiso   1.00
C268   C     0.45662   0.64542   0.25296   0.00000  Uiso   1.00
C269   C     0.50008   0.62393   0.24959   0.00000  Uiso   1.00
C270   C     0.63365   0.52851   0.27802   0.00000  Uiso   1.00
C271   C     0.34991   0.52842   0.27814   0.00000  Uiso   1.00
C272   C     0.36628   0.47135   0.22222   0.00000  Uiso   1.00
C273   C     0.64992   0.47120   0.22254   0.00000  Uiso   1.00
C274   C     0.50022   0.42069   0.24916   0.00000  Uiso   1.00
C275   C     0.52665   0.49941   0.14962   0.00000  Uiso   1.00
C276   C     0.59564   0.46601   0.01171   0.00000  Uiso   1.00
C277   C     0.54226   0.49476   0.09221   0.00000  Uiso   1.00
C278   C     0.41202   0.51761   0.43335   0.00000  Uiso   1.00
C279   C     0.39968   0.52680   0.48605   0.00000  Uiso   1.00
C280   C     0.43244   0.51808   0.01364   0.00000  Uiso   1.00
Cu281  Cu    0.45311   0.49999   0.25000   0.00000  Uiso   1.00
Cu282  Cu    0.54689   0.50001   0.25000   0.00000  Uiso   1.00
H283   H     0.57790   0.37061   0.24212   0.00000  Uiso   1.00
H284   H     0.42267   0.37071   0.25549   0.00000  Uiso   1.00
H285   H     0.42252   0.62942   0.25609   0.00000  Uiso   1.00
H286   H     0.60837   0.55131   0.30054   0.00000  Uiso   1.00
H287   H     0.36198   0.55113   0.30076   0.00000  Uiso   1.00
H288   H     0.39149   0.44844   0.19987   0.00000  Uiso   1.00
H289   H     0.63760   0.44793   0.20088   0.00000  Uiso   1.00
H290   H     0.63068   0.45226   0.49045   0.00000  Uiso   1.00
H291   H     0.47373   0.51801   0.08952   0.00000  Uiso   1.00
H292   H     0.38770   0.52801   0.41188   0.00000  Uiso   1.00
H293   H     0.42104   0.52808   0.05366   0.00000  Uiso   1.00
H294   H     0.36548   0.54267   0.00509   0.00000  Uiso   1.00
H295   H     0.57770   0.62931   0.24294   0.00000  Uiso   1.00
N296   N     0.38265   0.49999   0.24999   0.00000  Uiso   1.00
N297   N     0.61735   0.50002   0.25000   0.00000  Uiso   1.00
O298   O     0.46042   0.56011   0.25001   0.00000  Uiso   1.00
O299   O     0.53961   0.56012   0.25001   0.00000  Uiso   1.00
O300   O     0.44108   0.49998   0.32549   0.00000  Uiso   1.00
O301   O     0.52027   0.49999   0.32549   0.00000  Uiso   1.00
O302   O     0.46039   0.43988   0.25000   0.00000  Uiso   1.00
O303   O     0.53958   0.43989   0.25000   0.00000  Uiso   1.00
O304   O     0.47973   0.50001   0.17451   0.00000  Uiso   1.00
O305   O     0.55892   0.50002   0.17451   0.00000  Uiso   1.00
Br306  Br    0.64171   0.46813   0.09076   0.00000  Uiso   1.00
O307   O     0.60211   0.42411   0.41807   0.00000  Uiso   1.00
C308   C     0.59457   0.38464   0.44180   0.00000  Uiso   1.00
H309   H     0.55869   0.37111   0.44193   0.00000  Uiso   1.00
H310   H     0.59549   0.38589   0.48279   0.00000  Uiso   1.00
C311   C     0.63554   0.35612   0.41121   0.00000  Uiso   1.00
H312   H     0.33856   0.36832   0.41120   0.00000  Uiso   1.00
H313   H     0.63021   0.65834   0.42947   0.00000  Uiso   1.00
H314   H     0.63503   0.35362   0.37020   0.00000  Uiso   1.00
Br315  Br    0.52320   0.41445   0.36578   0.00000  Uiso   1.00
C316   C     0.83334   0.57932   0.24995   0.00000  Uiso   1.00
C317   C     0.81075   0.49720   0.48967   0.00000  Uiso   1.00
C318   C     0.82014   0.48311   0.43754   0.00000  Uiso   1.00
C319   C     0.84680   0.49006   0.01546   0.00000  Uiso   1.00
C320   C     0.89092   0.46896   0.48897   0.00000  Uiso   1.00
C321   C     0.89520   0.44890   0.44166   0.00000  Uiso   1.00
C322   C     0.85885   0.45455   0.41733   0.00000  Uiso   1.00
C323   C     0.84033   0.50293   0.06698   0.00000  Uiso   1.00
C324   C     0.92162   0.47825   0.06308   0.00000  Uiso   1.00
C325   C     0.78978   0.49756   0.40796   0.00000  Uiso   1.00
C326   C     0.87702   0.64535   0.24569   0.00000  Uiso   1.00
C327   C     0.80676   0.49825   0.35026   0.00000  Uiso   1.00
C328   C     0.87715   0.35460   0.24518   0.00000  Uiso   1.00
C329   C     0.83363   0.37608   0.24879   0.00000  Uiso   1.00
C330   C     0.79005   0.35466   0.25257   0.00000  Uiso   1.00
C331   C     0.78995   0.64542   0.25296   0.00000  Uiso   1.00
C332   C     0.83342   0.62393   0.24959   0.00000  Uiso   1.00
C333   C     0.96698   0.52851   0.27802   0.00000  Uiso   1.00
C334   C     0.68324   0.52842   0.27814   0.00000  Uiso   1.00
C335   C     0.69961   0.47135   0.22222   0.00000  Uiso   1.00
C336   C     0.98325   0.47120   0.22254   0.00000  Uiso   1.00
C337   C     0.83356   0.42069   0.24916   0.00000  Uiso   1.00
C338   C     0.85998   0.49941   0.14962   0.00000  Uiso   1.00
C339   C     0.92897   0.46601   0.01171   0.00000  Uiso   1.00
C340   C     0.87560   0.49476   0.09221   0.00000  Uiso   1.00
C341   C     0.74535   0.51761   0.43335   0.00000  Uiso   1.00
C342   C     0.73301   0.52680   0.48605   0.00000  Uiso   1.00
C343   C     0.76577   0.51808   0.01364   0.00000  Uiso   1.00
Cu344  Cu    0.78645   0.49999   0.25000   0.00000  Uiso   1.00
Cu345  Cu    0.88022   0.50001   0.25000   0.00000  Uiso   1.00
H346   H     0.91123   0.37061   0.24212   0.00000  Uiso   1.00
H347   H     0.75601   0.37071   0.25549   0.00000  Uiso   1.00
H348   H     0.75585   0.62942   0.25609   0.00000  Uiso   1.00
H349   H     0.94170   0.55131   0.30054   0.00000  Uiso   1.00
H350   H     0.69532   0.55113   0.30076   0.00000  Uiso   1.00
H351   H     0.72483   0.44844   0.19987   0.00000  Uiso   1.00
H352   H     0.97094   0.44793   0.20088   0.00000  Uiso   1.00
H353   H     0.96401   0.45226   0.49045   0.00000  Uiso   1.00
H354   H     0.80706   0.51801   0.08952   0.00000  Uiso   1.00
H355   H     0.72104   0.52801   0.41188   0.00000  Uiso   1.00
H356   H     0.75437   0.52808   0.05366   0.00000  Uiso   1.00
H357   H     0.69881   0.54267   0.00509   0.00000  Uiso   1.00
H358   H     0.91103   0.62931   0.24294   0.00000  Uiso   1.00
N359   N     0.71598   0.49999   0.24999   0.00000  Uiso   1.00
N360   N     0.95069   0.50002   0.25000   0.00000  Uiso   1.00
O361   O     0.79375   0.56011   0.25001   0.00000  Uiso   1.00
O362   O     0.87294   0.56012   0.25001   0.00000  Uiso   1.00
O363   O     0.77441   0.49998   0.32549   0.00000  Uiso   1.00
O364   O     0.85360   0.49999   0.32549   0.00000  Uiso   1.00
O365   O     0.79373   0.43988   0.25000   0.00000  Uiso   1.00
O366   O     0.87292   0.43989   0.25000   0.00000  Uiso   1.00
O367   O     0.81306   0.50001   0.17451   0.00000  Uiso   1.00
O368   O     0.89225   0.50002   0.17451   0.00000  Uiso   1.00
Br369  Br    0.97505   0.46813   0.09076   0.00000  Uiso   1.00
O370   O     0.93544   0.42411   0.41807   0.00000  Uiso   1.00
C371   C     0.92790   0.38464   0.44180   0.00000  Uiso   1.00
H372   H     0.89202   0.37111   0.44193   0.00000  Uiso   1.00
H373   H     0.92882   0.38589   0.48279   0.00000  Uiso   1.00
C374   C     0.96887   0.35612   0.41121   0.00000  Uiso   1.00
H375   H     0.67189   0.36832   0.41120   0.00000  Uiso   1.00
H376   H     0.96354   0.65834   0.42947   0.00000  Uiso   1.00
H377   H     0.96837   0.35362   0.37020   0.00000  Uiso   1.00
Br378  Br    0.85654   0.41445   0.36578   0.00000  Uiso   1.00
C379   C     0.16667   0.91265   0.24995   0.00000  Uiso   1.00
C380   C     0.14409   0.83053   0.48967   0.00000  Uiso   1.00
C381   C     0.15347   0.81645   0.43754   0.00000  Uiso   1.00
C382   C     0.18013   0.82339   0.01546   0.00000  Uiso   1.00
C383   C     0.22426   0.80229   0.48897   0.00000  Uiso   1.00
C384   C     0.22854   0.78223   0.44166   0.00000  Uiso   1.00
C385   C     0.19219   0.78789   0.41733   0.00000  Uiso   1.00
C386   C     0.17366   0.83626   0.06698   0.00000  Uiso   1.00
C387   C     0.25495   0.81158   0.06308   0.00000  Uiso   1.00
C388   C     0.12312   0.83090   0.40796   0.00000  Uiso   1.00
C389   C     0.21036   0.97869   0.24569   0.00000  Uiso   1.00
C390   C     0.14009   0.83158   0.35026   0.00000  Uiso   1.00
C391   C     0.21049   0.68793   0.24518   0.00000  Uiso   1.00
C392   C     0.16697   0.70941   0.24879   0.00000  Uiso   1.00
C393   C     0.12339   0.68799   0.25257   0.00000  Uiso   1.00
C394   C     0.12328   0.97875   0.25296   0.00000  Uiso   1.00
C395   C     0.16675   0.95727   0.24959   0.00000  Uiso   1.00
C396   C     0.30032   0.86184   0.27802   0.00000  Uiso   1.00
C397   C     0.01657   0.86176   0.27814   0.00000  Uiso   1.00
C398   C     0.03294   0.80469   0.22222   0.00000  Uiso   1.00
C399   C     0.31658   0.80454   0.22254   0.00000  Uiso   1.00
C400   C     0.16689   0.75403   0.24916   0.00000  Uiso   1.00
C401   C     0.19331   0.83274   0.14962   0.00000  Uiso   1.00
C402   C     0.26231   0.79934   0.01171   0.00000  Uiso   1.00
C403   C     0.20893   0.82809   0.09221   0.00000  Uiso   1.00
C404   C     0.07868   0.85095   0.43335   0.00000  Uiso   1.00
C405   C     0.06634   0.86013   0.48605   0.00000  Uiso   1.00
C406   C     0.09911   0.85141   0.01364   0.00000  Uiso   1.00
Cu407  Cu    0.11978   0.83333   0.25000   0.00000  Uiso   1.00
Cu408  Cu    0.21355   0.83334   0.25000   0.00000  Uiso   1.00
H409   H     0.24456   0.70394   0.24212   0.00000  Uiso   1.00
H410   H     0.08934   0.70404   0.25549   0.00000  Uiso   1.00
H411   H     0.08919   0.96275   0.25609   0.00000  Uiso   1.00
H412   H     0.27503   0.88465   0.30054   0.00000  Uiso   1.00
H413   H     0.02865   0.88447   0.30076   0.00000  Uiso   1.00
H414   H     0.05816   0.78177   0.19987   0.00000  Uiso   1.00
H415   H     0.30427   0.78127   0.20088   0.00000  Uiso   1.00
H416   H     0.29734   0.78559   0.49045   0.00000  Uiso   1.00
H417   H     0.14039   0.85135   0.08952   0.00000  Uiso   1.00
H418   H     0.05437   0.86135   0.41188   0.00000  Uiso   1.00
H419   H     0.08770   0.86142   0.05366   0.00000  Uiso   1.00
H420   H     0.03215   0.87601   0.00509   0.00000  Uiso   1.00
H421   H     0.24436   0.96264   0.24294   0.00000  Uiso   1.00
N422   N     0.04931   0.83332   0.24999   0.00000  Uiso   1.00
N423   N     0.28402   0.83335   0.25000   0.00000  Uiso   1.00
O424   O     0.12708   0.89345   0.25001   0.00000  Uiso   1.00
O425   O     0.20627   0.89346   0.25001   0.00000  Uiso   1.00
O426   O     0.10775   0.83332   0.32549   0.00000  Uiso   1.00
O427   O     0.18694   0.83333   0.32549   0.00000  Uiso   1.00
O428   O     0.12706   0.77321   0.25000   0.00000  Uiso   1.00
O429   O     0.20625   0.77322   0.25000   0.00000  Uiso   1.00
O430   O     0.14640   0.83334   0.17451   0.00000  Uiso   1.00
O431   O     0.22559   0.83335   0.17451   0.00000  Uiso   1.00
Br432  Br    0.30838   0.80146   0.09076   0.00000  Uiso   1.00
O433   O     0.26877   0.75745   0.41807   0.00000  Uiso   1.00
C434   C     0.26124   0.71797   0.44180   0.00000  Uiso   1.00
H435   H     0.22535   0.70444   0.44193   0.00000  Uiso   1.00
H436   H     0.26216   0.71923   0.48279   0.00000  Uiso   1.00
C437   C     0.30220   0.68945   0.41121   0.00000  Uiso   1.00
H438   H     0.00523   0.70165   0.41120   0.00000  Uiso   1.00
H439   H     0.29688   0.99167   0.42947   0.00000  Uiso   1.00
H440   H     0.30170   0.68695   0.37020   0.00000  Uiso   1.00
Br441  Br    0.18987   0.74778   0.36578   0.00000  Uiso   1.00
C442   C     0.50001   0.91265   0.24995   0.00000  Uiso   1.00
C443   C     0.47742   0.83053   0.48967   0.00000  Uiso   1.00
C444   C     0.48681   0.81645   0.43754   0.00000  Uiso   1.00
C445   C     0.51347   0.82339   0.01546   0.00000  Uiso   1.00
C446   C     0.55759   0.80229   0.48897   0.00000  Uiso   1.00
C447   C     0.56187   0.78223   0.44166   0.00000  Uiso   1.00
C448   C     0.52552   0.78789   0.41733   0.00000  Uiso   1.00
C449   C     0.50699   0.83626   0.06698   0.00000  Uiso   1.00
C450   C     0.58829   0.81158   0.06308   0.00000  Uiso   1.00
C451   C     0.45645   0.83090   0.40796   0.00000  Uiso   1.00
C452   C     0.54369   0.97869   0.24569   0.00000  Uiso   1.00
C453   C     0.47342   0.83158   0.35026   0.00000  Uiso   1.00
C454   C     0.54382   0.68793   0.24518   0.00000  Uiso   1.00
C455   C     0.50030   0.70941   0.24879   0.00000  Uiso   1.00
C456   C     0.45672   0.68799   0.25257   0.00000  Uiso   1.00
C457   C     0.45662   0.97875   0.25296   0.00000  Uiso   1.00
C458   C     0.50008   0.95727   0.24959   0.00000  Uiso   1.00
C459   C     0.63365   0.86184   0.27802   0.00000  Uiso   1.00
C460   C     0.34991   0.86176   0.27814   0.00000  Uiso   1.00
C461   C     0.36628   0.80469   0.22222   0.00000  Uiso   1.00
C462   C     0.64992   0.80454   0.22254   0.00000  Uiso   1.00
C463   C     0.50022   0.75403   0.24916   0.00000  Uiso   1.00
C464   C     0.52665   0.83274   0.14962   0.00000  Uiso   1.00
C465   C     0.59564   0.79934   0.01171   0.00000  Uiso   1.00
C466   C     0.54226   0.82809   0.09221   0.00000  Uiso   1.00
C467   C     0.41202   0.85095   0.43335   0.00000  Uiso   1.00
C468   C     0.39968   0.86013   0.48605   0.00000  Uiso   1.00
C469   C     0.43244   0.85141   0.01364   0.00000  Uiso   1.00
Cu470  Cu    0.45311   0.83333   0.25000   0.00000  Uiso   1.00
Cu471  Cu    0.54689   0.83334   0.25000   0.00000  Uiso   1.00
H472   H     0.57790   0.70394   0.24212   0.00000  Uiso   1.00
H473   H     0.42267   0.70404   0.25549   0.00000  Uiso   1.00
H474   H     0.42252   0.96275   0.25609   0.00000  Uiso   1.00
H475   H     0.60837   0.88465   0.30054   0.00000  Uiso   1.00
H476   H     0.36198   0.88447   0.30076   0.00000  Uiso   1.00
H477   H     0.39149   0.78177   0.19987   0.00000  Uiso   1.00
H478   H     0.63760   0.78127   0.20088   0.00000  Uiso   1.00
H479   H     0.63068   0.78559   0.49045   0.00000  Uiso   1.00
H480   H     0.47373   0.85135   0.08952   0.00000  Uiso   1.00
H481   H     0.38770   0.86135   0.41188   0.00000  Uiso   1.00
H482   H     0.42104   0.86142   0.05366   0.00000  Uiso   1.00
H483   H     0.36548   0.87601   0.00509   0.00000  Uiso   1.00
H484   H     0.57770   0.96264   0.24294   0.00000  Uiso   1.00
N485   N     0.38265   0.83332   0.24999   0.00000  Uiso   1.00
N486   N     0.61735   0.83335   0.25000   0.00000  Uiso   1.00
O487   O     0.46042   0.89345   0.25001   0.00000  Uiso   1.00
O488   O     0.53961   0.89346   0.25001   0.00000  Uiso   1.00
O489   O     0.44108   0.83332   0.32549   0.00000  Uiso   1.00
O490   O     0.52027   0.83333   0.32549   0.00000  Uiso   1.00
O491   O     0.46039   0.77321   0.25000   0.00000  Uiso   1.00
O492   O     0.53958   0.77322   0.25000   0.00000  Uiso   1.00
O493   O     0.47973   0.83334   0.17451   0.00000  Uiso   1.00
O494   O     0.55892   0.83335   0.17451   0.00000  Uiso   1.00
Br495  Br    0.64171   0.80146   0.09076   0.00000  Uiso   1.00
O496   O     0.60211   0.75745   0.41807   0.00000  Uiso   1.00
C497   C     0.59457   0.71797   0.44180   0.00000  Uiso   1.00
H498   H     0.55869   0.70444   0.44193   0.00000  Uiso   1.00
H499   H     0.59549   0.71923   0.48279   0.00000  Uiso   1.00
C500   C     0.63554   0.68945   0.41121   0.00000  Uiso   1.00
H501   H     0.33856   0.70165   0.41120   0.00000  Uiso   1.00
H502   H     0.63021   0.99167   0.42947   0.00000  Uiso   1.00
H503   H     0.63503   0.68695   0.37020   0.00000  Uiso   1.00
Br504  Br    0.52320   0.74778   0.36578   0.00000  Uiso   1.00
C505   C     0.83334   0.91265   0.24995   0.00000  Uiso   1.00
C506   C     0.81075   0.83053   0.48967   0.00000  Uiso   1.00
C507   C     0.82014   0.81645   0.43754   0.00000  Uiso   1.00
C508   C     0.84680   0.82339   0.01546   0.00000  Uiso   1.00
C509   C     0.89092   0.80229   0.48897   0.00000  Uiso   1.00
C510   C     0.89520   0.78223   0.44166   0.00000  Uiso   1.00
C511   C     0.85885   0.78789   0.41733   0.00000  Uiso   1.00
C512   C     0.84033   0.83626   0.06698   0.00000  Uiso   1.00
C513   C     0.92162   0.81158   0.06308   0.00000  Uiso   1.00
C514   C     0.78978   0.83090   0.40796   0.00000  Uiso   1.00
C515   C     0.87702   0.97869   0.24569   0.00000  Uiso   1.00
C516   C     0.80676   0.83158   0.35026   0.00000  Uiso   1.00
C517   C     0.87715   0.68793   0.24518   0.00000  Uiso   1.00
C518   C     0.83363   0.70941   0.24879   0.00000  Uiso   1.00
C519   C     0.79005   0.68799   0.25257   0.00000  Uiso   1.00
C520   C     0.78995   0.97875   0.25296   0.00000  Uiso   1.00
C521   C     0.83342   0.95727   0.24959   0.00000  Uiso   1.00
C522   C     0.96698   0.86184   0.27802   0.00000  Uiso   1.00
C523   C     0.68324   0.86176   0.27814   0.00000  Uiso   1.00
C524   C     0.69961   0.80469   0.22222   0.00000  Uiso   1.00
C525   C     0.98325   0.80454   0.22254   0.00000  Uiso   1.00
C526   C     0.83356   0.75403   0.24916   0.00000  Uiso   1.00
C527   C     0.85998   0.83274   0.14962   0.00000  Uiso   1.00
C528   C     0.92897   0.79934   0.01171   0.00000  Uiso   1.00
C529   C     0.87560   0.82809   0.09221   0.00000  Uiso   1.00
C530   C     0.74535   0.85095   0.43335   0.00000  Uiso   1.00
C531   C     0.73301   0.86013   0.48605   0.00000  Uiso   1.00
C532   C     0.76577   0.85141   0.01364   0.00000  Uiso   1.00
Cu533  Cu    0.78645   0.83333   0.25000   0.00000  Uiso   1.00
Cu534  Cu    0.88022   0.83334   0.25000   0.00000  Uiso   1.00
H535   H     0.91123   0.70394   0.24212   0.00000  Uiso   1.00
H536   H     0.75601   0.70404   0.25549   0.00000  Uiso   1.00
H537   H     0.75585   0.96275   0.25609   0.00000  Uiso   1.00
H538   H     0.94170   0.88465   0.30054   0.00000  Uiso   1.00
H539   H     0.69532   0.88447   0.30076   0.00000  Uiso   1.00
H540   H     0.72483   0.78177   0.19987   0.00000  Uiso   1.00
H541   H     0.97094   0.78127   0.20088   0.00000  Uiso   1.00
H542   H     0.96401   0.78559   0.49045   0.00000  Uiso   1.00
H543   H     0.80706   0.85135   0.08952   0.00000  Uiso   1.00
H544   H     0.72104   0.86135   0.41188   0.00000  Uiso   1.00
H545   H     0.75437   0.86142   0.05366   0.00000  Uiso   1.00
H546   H     0.69881   0.87601   0.00509   0.00000  Uiso   1.00
H547   H     0.91103   0.96264   0.24294   0.00000  Uiso   1.00
N548   N     0.71598   0.83332   0.24999   0.00000  Uiso   1.00
N549   N     0.95069   0.83335   0.25000   0.00000  Uiso   1.00
O550   O     0.79375   0.89345   0.25001   0.00000  Uiso   1.00
O551   O     0.87294   0.89346   0.25001   0.00000  Uiso   1.00
O552   O     0.77441   0.83332   0.32549   0.00000  Uiso   1.00
O553   O     0.85360   0.83333   0.32549   0.00000  Uiso   1.00
O554   O     0.79373   0.77321   0.25000   0.00000  Uiso   1.00
O555   O     0.87292   0.77322   0.25000   0.00000  Uiso   1.00
O556   O     0.81306   0.83334   0.17451   0.00000  Uiso   1.00
O557   O     0.89225   0.83335   0.17451   0.00000  Uiso   1.00
Br558  Br    0.97505   0.80146   0.09076   0.00000  Uiso   1.00
O559   O     0.93544   0.75745   0.41807   0.00000  Uiso   1.00
C560   C     0.92790   0.71797   0.44180   0.00000  Uiso   1.00
H561   H     0.89202   0.70444   0.44193   0.00000  Uiso   1.00
H562   H     0.92882   0.71923   0.48279   0.00000  Uiso   1.00
C563   C     0.96887   0.68945   0.41121   0.00000  Uiso   1.00
H564   H     0.67189   0.70165   0.41120   0.00000  Uiso   1.00
H565   H     0.96354   0.99167   0.42947   0.00000  Uiso   1.00
H566   H     0.96837   0.68695   0.37020   0.00000  Uiso   1.00
Br567  Br    0.85654   0.74778   0.36578   0.00000  Uiso   1.00
C568   C     0.16667   0.24598   0.74995   0.00000  Uiso   1.00
C569   C     0.14409   0.16387   0.98967   0.00000  Uiso   1.00
C570   C     0.15347   0.14978   0.93754   0.00000  Uiso   1.00
C571   C     0.18013   0.15672   0.51546   0.00000  Uiso   1.00
C572   C     0.22426   0.13562   0.98897   0.00000  Uiso   1.00
C573   C     0.22854   0.11557   0.94166   0.00000  Uiso   1.00
C574   C     0.19219   0.12122   0.91733   0.00000  Uiso   1.00
C575   C     0.17366   0.16959   0.56698   0.00000  Uiso   1.00
C576   C     0.25495   0.14491   0.56308   0.00000  Uiso   1.00
C577   C     0.12312   0.16423   0.90796   0.00000  Uiso   1.00
C578   C     0.21036   0.31202   0.74569   0.00000  Uiso   1.00
C579   C     0.14009   0.16492   0.85026   0.00000  Uiso   1.00
C580   C     0.21049   0.02126   0.74518   0.00000  Uiso   1.00
C581   C     0.16697   0.04274   0.74879   0.00000  Uiso   1.00
C582   C     0.12339   0.02133   0.75257   0.00000  Uiso   1.00
C583   C     0.12328   0.31208   0.75296   0.00000  Uiso   1.00
C584   C     0.16675   0.29060   0.74959   0.00000  Uiso   1.00
C585   C     0.30032   0.19518   0.77802   0.00000  Uiso   1.00
C586   C     0.01657   0.19509   0.77814   0.00000  Uiso   1.00
C587   C     0.03294   0.13802   0.72222   0.00000  Uiso   1.00
C588   C     0.31658   0.13787   0.72254   0.00000  Uiso   1.00
C589   C     0.16689   0.08736   0.74916   0.00000  Uiso   1.00
C590   C     0.19331   0.16608   0.64962   0.00000  Uiso   1.00
C591   C     0.26231   0.13268   0.51171   0.00000  Uiso   1.00
C592   C     0.20893   0.16142   0.59221   0.00000  Uiso   1.00
C593   C     0.07868   0.18428   0.93335   0.00000  Uiso   1.00
C594   C     0.06634   0.19347   0.98605   0.00000  Uiso   1.00
C595   C     0.09911   0.18475   0.51364   0.00000  Uiso   1.00
Cu596  Cu    0.11978   0.16666   0.75000   0.00000  Uiso   1.00
Cu597  Cu    0.21355   0.16667   0.75000   0.00000  Uiso   1.00
H598   H     0.24456   0.03727   0.74212   0.00000  Uiso   1.00
H599   H     0.08934   0.03737   0.75549   0.00000  Uiso   1.00
H600   H     0.08919   0.29608   0.75609   0.00000  Uiso   1.00
H601   H     0.27503   0.21798   0.80054   0.00000  Uiso   1.00
H602   H     0.02865   0.21780   0.80076   0.00000  Uiso   1.00
H603   H     0.05816   0.11510   0.69987   0.00000  Uiso   1.00
H604   H     0.30427   0.11460   0.70088   0.00000  Uiso   1.00
H605   H     0.29734   0.11892   0.99045   0.00000  Uiso   1.00
H606   H     0.14039   0.18468   0.58952   0.00000  Uiso   1.00
H607   H     0.05437   0.19468   0.91188   0.00000  Uiso   1.00
H608   H     0.08770   0.19475   0.55366   0.00000  Uiso   1.00
H609   H     0.03215   0.20934   0.50509   0.00000  Uiso   1.00
H610   H     0.24436   0.29597   0.74294   0.00000  Uiso   1.00
N611   N     0.04931   0.16666   0.74999   0.00000  Uiso   1.00
N612   N     0.28402   0.16669   0.75000   0.00000  Uiso   1.00
O613   O     0.12708   0.22678   0.75001   0.00000  Uiso   1.00
O614   O     0.20627   0.22679   0.75001   0.00000  Uiso   1.00
O615   O     0.10775   0.16665   0.82549   0.00000  Uiso   1.00
O616   O     0.18694   0.16666   0.82549   0.00000  Uiso   1.00
O617   O     0.12706   0.10654   0.75000   0.00000  Uiso   1.00
O618   O     0.20625   0.10655   0.75000   0.00000  Uiso   1.00
O619   O     0.14640   0.16667   0.67451   0.00000  Uiso   1.00
O620   O     0.22559   0.16668   0.67451   0.00000  Uiso   1.00
Br621  Br    0.30838   0.13480   0.59076   0.00000  Uiso   1.00
O622   O     0.26877   0.09078   0.91807   0.00000  Uiso   1.00
C623   C     0.26124   0.05131   0.94180   0.00000  Uiso   1.00
H624   H     0.22535   0.03777   0.94193   0.00000  Uiso   1.00
H625   H     0.26216   0.05256   0.98279   0.00000  Uiso   1.00
C626   C     0.30220   0.02278   0.91121   0.00000  Uiso   1.00
H627   H     0.00523   0.03499   0.91120   0.00000  Uiso   1.00
H628   H     0.29688   0.32500   0.92947   0.00000  Uiso   1.00
H629   H     0.30170   0.02029   0.87020   0.00000  Uiso   1.00
Br630  Br    0.18987   0.08111   0.86578   0.00000  Uiso   1.00
C631   C     0.50001   0.24598   0.74995   0.00000  Uiso   1.00
C632   C     0.47742   0.16387   0.98967   0.00000  Uiso   1.00
C633   C     0.48681   0.14978   0.93754   0.00000  Uiso   1.00
C634   C     0.51347   0.15672   0.51546   0.00000  Uiso   1.00
C635   C     0.55759   0.13562   0.98897   0.00000  Uiso   1.00
C636   C     0.56187   0.11557   0.94166   0.00000  Uiso   1.00
C637   C     0.52552   0.12122   0.91733   0.00000  Uiso   1.00
C638   C     0.50699   0.16959   0.56698   0.00000  Uiso   1.00
C639   C     0.58829   0.14491   0.56308   0.00000  Uiso   1.00
C640   C     0.45645   0.16423   0.90796   0.00000  Uiso   1.00
C641   C     0.54369   0.31202   0.74569   0.00000  Uiso   1.00
C642   C     0.47342   0.16492   0.85026   0.00000  Uiso   1.00
C643   C     0.54382   0.02126   0.74518   0.00000  Uiso   1.00
C644   C     0.50030   0.04274   0.74879   0.00000  Uiso   1.00
C645   C     0.45672   0.02133   0.75257   0.00000  Uiso   1.00
C646   C     0.45662   0.31208   0.75296   0.00000  Uiso   1.00
C647   C     0.50008   0.29060   0.74959   0.00000  Uiso   1.00
C648   C     0.63365   0.19518   0.77802   0.00000  Uiso   1.00
C649   C     0.34991   0.19509   0.77814   0.00000  Uiso   1.00
C650   C     0.36628   0.13802   0.72222   0.00000  Uiso   1.00
C651   C     0.64992   0.13787   0.72254   0.00000  Uiso   1.00
C652   C     0.50022   0.08736   0.74916   0.00000  Uiso   1.00
C653   C     0.52665   0.16608   0.64962   0.00000  Uiso   1.00
C654   C     0.59564   0.13268   0.51171   0.00000  Uiso   1.00
C655   C     0.54226   0.16142   0.59221   0.00000  Uiso   1.00
C656   C     0.41202   0.18428   0.93335   0.00000  Uiso   1.00
C657   C     0.39968   0.19347   0.98605   0.00000  Uiso   1.00
C658   C     0.43244   0.18475   0.51364   0.00000  Uiso   1.00
Cu659  Cu    0.45311   0.16666   0.75000   0.00000  Uiso   1.00
Cu660  Cu    0.54689   0.16667   0.75000   0.00000  Uiso   1.00
H661   H     0.57790   0.03727   0.74212   0.00000  Uiso   1.00
H662   H     0.42267   0.03737   0.75549   0.00000  Uiso   1.00
H663   H     0.42252   0.29608   0.75609   0.00000  Uiso   1.00
H664   H     0.60837   0.21798   0.80054   0.00000  Uiso   1.00
H665   H     0.36198   0.21780   0.80076   0.00000  Uiso   1.00
H666   H     0.39149   0.11510   0.69987   0.00000  Uiso   1.00
H667   H     0.63760   0.11460   0.70088   0.00000  Uiso   1.00
H668   H     0.63068   0.11892   0.99045   0.00000  Uiso   1.00
H669   H     0.47373   0.18468   0.58952   0.00000  Uiso   1.00
H670   H     0.38770   0.19468   0.91188   0.00000  Uiso   1.00
H671   H     0.42104   0.19475   0.55366   0.00000  Uiso   1.00
H672   H     0.36548   0.20934   0.50509   0.00000  Uiso   1.00
H673   H     0.57770   0.29597   0.74294   0.00000  Uiso   1.00
N674   N     0.38265   0.16666   0.74999   0.00000  Uiso   1.00
N675   N     0.61735   0.16669   0.75000   0.00000  Uiso   1.00
O676   O     0.46042   0.22678   0.75001   0.00000  Uiso   1.00
O677   O     0.53961   0.22679   0.75001   0.00000  Uiso   1.00
O678   O     0.44108   0.16665   0.82549   0.00000  Uiso   1.00
O679   O     0.52027   0.16666   0.82549   0.00000  Uiso   1.00
O680   O     0.46039   0.10654   0.75000   0.00000  Uiso   1.00
O681   O     0.53958   0.10655   0.75000   0.00000  Uiso   1.00
O682   O     0.47973   0.16667   0.67451   0.00000  Uiso   1.00
O683   O     0.55892   0.16668   0.67451   0.00000  Uiso   1.00
Br684  Br    0.64171   0.13480   0.59076   0.00000  Uiso   1.00
O685   O     0.60211   0.09078   0.91807   0.00000  Uiso   1.00
C686   C     0.59457   0.05131   0.94180   0.00000  Uiso   1.00
H687   H     0.55869   0.03777   0.94193   0.00000  Uiso   1.00
H688   H     0.59549   0.05256   0.98279   0.00000  Uiso   1.00
C689   C     0.63554   0.02278   0.91121   0.00000  Uiso   1.00
H690   H     0.33856   0.03499   0.91120   0.00000  Uiso   1.00
H691   H     0.63021   0.32500   0.92947   0.00000  Uiso   1.00
H692   H     0.63503   0.02029   0.87020   0.00000  Uiso   1.00
Br693  Br    0.52320   0.08111   0.86578   0.00000  Uiso   1.00
C694   C     0.83334   0.24598   0.74995   0.00000  Uiso   1.00
C695   C     0.81075   0.16387   0.98967   0.00000  Uiso   1.00
C696   C     0.82014   0.14978   0.93754   0.00000  Uiso   1.00
C697   C     0.84680   0.15672   0.51546   0.00000  Uiso   1.00
C698   C     0.89092   0.13562   0.98897   0.00000  Uiso   1.00
C699   C     0.89520   0.11557   0.94166   0.00000  Uiso   1.00
C700   C     0.85885   0.12122   0.91733   0.00000  Uiso   1.00
C701   C     0.84033   0.16959   0.56698   0.00000  Uiso   1.00
C702   C     0.92162   0.14491   0.56308   0.00000  Uiso   1.00
C703   C     0.78978   0.16423   0.90796   0.00000  Uiso   1.00
C704   C     0.87702   0.31202   0.74569   0.00000  Uiso   1.00
C705   C     0.80676   0.16492   0.85026   0.00000  Uiso   1.00
C706   C     0.87715   0.02126   0.74518   0.00000  Uiso   1.00
C707   C     0.83363   0.04274   0.74879   0.00000  Uiso   1.00
C708   C     0.79005   0.02133   0.75257   0.00000  Uiso   1.00
C709   C     0.78995   0.31208   0.75296   0.00000  Uiso   1.00
C710   C     0.83342   0.29060   0.74959   0.00000  Uiso   1.00
C711   C     0.96698   0.19518   0.77802   0.00000  Uiso   1.00
C712   C     0.68324   0.19509   0.77814   0.00000  Uiso   1.00
C713   C     0.69961   0.13802   0.72222   0.00000  Uiso   1.00
C714   C     0.98325   0.13787   0.72254   0.00000  Uiso   1.00
C715   C     0.83356   0.08736   0.74916   0.00000  Uiso   1.00
C716   C     0.85998   0.16608   0.64962   0.00000  Uiso   1.00
C717   C     0.92897   0.13268   0.51171   0.00000  Uiso   1.00
C718   C     0.87560   0.16142   0.59221   0.00000  Uiso   1.00
C719   C     0.74535   0.18428   0.93335   0.00000  Uiso   1.00
C720   C     0.73301   0.19347   0.98605   0.00000  Uiso   1.00
C721   C     0.76577   0.18475   0.51364   0.00000  Uiso   1.00
Cu722  Cu    0.78645   0.16666   0.75000   0.00000  Uiso   1.00
Cu723  Cu    0.88022   0.16667   0.75000   0.00000  Uiso   1.00
H724   H     0.91123   0.03727   0.74212   0.00000  Uiso   1.00
H725   H     0.75601   0.03737   0.75549   0.00000  Uiso   1.00
H726   H     0.75585   0.29608   0.75609   0.00000  Uiso   1.00
H727   H     0.94170   0.21798   0.80054   0.00000  Uiso   1.00
H728   H     0.69532   0.21780   0.80076   0.00000  Uiso   1.00
H729   H     0.72483   0.11510   0.69987   0.00000  Uiso   1.00
H730   H     0.97094   0.11460   0.70088   0.00000  Uiso   1.00
H731   H     0.96401   0.11892   0.99045   0.00000  Uiso   1.00
H732   H     0.80706   0.18468   0.58952   0.00000  Uiso   1.00
H733   H     0.72104   0.19468   0.91188   0.00000  Uiso   1.00
H734   H     0.75437   0.19475   0.55366   0.00000  Uiso   1.00
H735   H     0.69881   0.20934   0.50509   0.00000  Uiso   1.00
H736   H     0.91103   0.29597   0.74294   0.00000  Uiso   1.00
N737   N     0.71598   0.16666   0.74999   0.00000  Uiso   1.00
N738   N     0.95069   0.16669   0.75000   0.00000  Uiso   1.00
O739   O     0.79375   0.22678   0.75001   0.00000  Uiso   1.00
O740   O     0.87294   0.22679   0.75001   0.00000  Uiso   1.00
O741   O     0.77441   0.16665   0.82549   0.00000  Uiso   1.00
O742   O     0.85360   0.16666   0.82549   0.00000  Uiso   1.00
O743   O     0.79373   0.10654   0.75000   0.00000  Uiso   1.00
O744   O     0.87292   0.10655   0.75000   0.00000  Uiso   1.00
O745   O     0.81306   0.16667   0.67451   0.00000  Uiso   1.00
O746   O     0.89225   0.16668   0.67451   0.00000  Uiso   1.00
Br747  Br    0.97505   0.13480   0.59076   0.00000  Uiso   1.00
O748   O     0.93544   0.09078   0.91807   0.00000  Uiso   1.00
C749   C     0.92790   0.05131   0.94180   0.00000  Uiso   1.00
H750   H     0.89202   0.03777   0.94193   0.00000  Uiso   1.00
H751   H     0.92882   0.05256   0.98279   0.00000  Uiso   1.00
C752   C     0.96887   0.02278   0.91121   0.00000  Uiso   1.00
H753   H     0.67189   0.03499   0.91120   0.00000  Uiso   1.00
H754   H     0.96354   0.32500   0.92947   0.00000  Uiso   1.00
H755   H     0.96837   0.02029   0.87020   0.00000  Uiso   1.00
Br756  Br    0.85654   0.08111   0.86578   0.00000  Uiso   1.00
C757   C     0.16667   0.57932   0.74995   0.00000  Uiso   1.00
C758   C     0.14409   0.49720   0.98967   0.00000  Uiso   1.00
C759   C     0.15347   0.48311   0.93754   0.00000  Uiso   1.00
C760   C     0.18013   0.49006   0.51546   0.00000  Uiso   1.00
C761   C     0.22426   0.46896   0.98897   0.00000  Uiso   1.00
C762   C     0.22854   0.44890   0.94166   0.00000  Uiso   1.00
C763   C     0.19219   0.45455   0.91733   0.00000  Uiso   1.00
C764   C     0.17366   0.50293   0.56698   0.00000  Uiso   1.00
C765   C     0.25495   0.47825   0.56308   0.00000  Uiso   1.00
C766   C     0.12312   0.49756   0.90796   0.00000  Uiso   1.00
C767   C     0.21036   0.64535   0.74569   0.00000  Uiso   1.00
C768   C     0.14009   0.49825   0.85026   0.00000  Uiso   1.00
C769   C     0.21049   0.35460   0.74518   0.00000  Uiso   1.00
C770   C     0.16697   0.37608   0.74879   0.00000  Uiso   1.00
C771   C     0.12339   0.35466   0.75257   0.00000  Uiso   1.00
C772   C     0.12328   0.64542   0.75296   0.00000  Uiso   1.00
C773   C     0.16675   0.62393   0.74959   0.00000  Uiso   1.00
C774   C     0.30032   0.52851   0.77802   0.00000  Uiso   1.00
C775   C     0.01657   0.52842   0.77814   0.00000  Uiso   1.00
C776   C     0.03294   0.47135   0.72222   0.00000  Uiso   1.00
C777   C     0.31658   0.47120   0.72254   0.00000  Uiso   1.00
C778   C     0.16689   0.42069   0.74916   0.00000  Uiso   1.00
C779   C     0.19331   0.49941   0.64962   0.00000  Uiso   1.00
C780   C     0.26231   0.46601   0.51171   0.00000  Uiso   1.00
C781   C     0.20893   0.49476   0.59221   0.00000  Uiso   1.00
C782   C     0.07868   0.51761   0.93335   0.00000  Uiso   1.00
C783   C     0.06634   0.52680   0.98605   0.00000  Uiso   1.00
C784   C     0.09911   0.51808   0.51364   0.00000  Uiso   1.00
Cu785  Cu    0.11978   0.49999   0.75000   0.00000  Uiso   1.00
Cu786  Cu    0.21355   0.50001   0.75000   0.00000  Uiso   1.00
H787   H     0.24456   0.37061   0.74212   0.00000  Uiso   1.00
H788   H     0.08934   0.37071   0.75549   0.00000  Uiso   1.00
H789   H     0.08919   0.62942   0.75609   0.00000  Uiso   1.00
H790   H     0.27503   0.55131   0.80054   0.00000  Uiso   1.00
H791   H     0.02865   0.55113   0.80076   0.00000  Uiso   1.00
H792   H     0.05816   0.44844   0.69987   0.00000  Uiso   1.00
H793   H     0.30427   0.44793   0.70088   0.00000  Uiso   1.00
H794   H     0.29734   0.45226   0.99045   0.00000  Uiso   1.00
H795   H     0.14039   0.51801   0.58952   0.00000  Uiso   1.00
H796   H     0.05437   0.52801   0.91188   0.00000  Uiso   1.00
H797   H     0.08770   0.52808   0.55366   0.00000  Uiso   1.00
H798   H     0.03215   0.54267   0.50509   0.00000  Uiso   1.00
H799   H     0.24436   0.62931   0.74294   0.00000  Uiso   1.00
N800   N     0.04931   0.49999   0.74999   0.00000  Uiso   1.00
N801   N     0.28402   0.50002   0.75000   0.00000  Uiso   1.00
O802   O     0.12708   0.56011   0.75001   0.00000  Uiso   1.00
O803   O     0.20627   0.56012   0.75001   0.00000  Uiso   1.00
O804   O     0.10775   0.49998   0.82549   0.00000  Uiso   1.00
O805   O     0.18694   0.49999   0.82549   0.00000  Uiso   1.00
O806   O     0.12706   0.43988   0.75000   0.00000  Uiso   1.00
O807   O     0.20625   0.43989   0.75000   0.00000  Uiso   1.00
O808   O     0.14640   0.50001   0.67451   0.00000  Uiso   1.00
O809   O     0.22559   0.50002   0.67451   0.00000  Uiso   1.00
Br810  Br    0.30838   0.46813   0.59076   0.00000  Uiso   1.00
O811   O     0.26877   0.42411   0.91807   0.00000  Uiso   1.00
C812   C     0.26124   0.38464   0.94180   0.00000  Uiso   1.00
H813   H     0.22535   0.37111   0.94193   0.00000  Uiso   1.00
H814   H     0.26216   0.38589   0.98279   0.00000  Uiso   1.00
C815   C     0.30220   0.35612   0.91121   0.00000  Uiso   1.00
H816   H     0.00523   0.36832   0.91120   0.00000  Uiso   1.00
H817   H     0.29688   0.65834   0.92947   0.00000  Uiso   1.00
H818   H     0.30170   0.35362   0.87020   0.00000  Uiso   1.00
Br819  Br    0.18987   0.41445   0.86578   0.00000  Uiso   1.00
C820   C     0.50001   0.57932   0.74995   0.00000  Uiso   1.00
C821   C     0.47742   0.49720   0.98967   0.00000  Uiso   1.00
C822   C     0.48681   0.48311   0.93754   0.00000  Uiso   1.00
C823   C     0.51347   0.49006   0.51546   0.00000  Uiso   1.00
C824   C     0.55759   0.46896   0.98897   0.00000  Uiso   1.00
C825   C     0.56187   0.44890   0.94166   0.00000  Uiso   1.00
C826   C     0.52552   0.45455   0.91733   0.00000  Uiso   1.00
C827   C     0.50699   0.50293   0.56698   0.00000  Uiso   1.00
C828   C     0.58829   0.47825   0.56308   0.00000  Uiso   1.00
C829   C     0.45645   0.49756   0.90796   0.00000  Uiso   1.00
C830   C     0.54369   0.64535   0.74569   0.00000  Uiso   1.00
C831   C     0.47342   0.49825   0.85026   0.00000  Uiso   1.00
C832   C     0.54382   0.35460   0.74518   0.00000  Uiso   1.00
C833   C     0.50030   0.37608   0.74879   0.00000  Uiso   1.00
C834   C     0.45672   0.35466   0.75257   0.00000  Uiso   1.00
C835   C     0.45662   0.64542   0.75296   0.00000  Uiso   1.00
C836   C     0.50008   0.62393   0.74959   0.00000  Uiso   1.00
C837   C     0.63365   0.52851   0.77802   0.00000  Uiso   1.00
C838   C     0.34991   0.52842   0.77814   0.00000  Uiso   1.00
C839   C     0.36628   0.47135   0.72222   0.00000  Uiso   1.00
C840   C     0.64992   0.47120   0.72254   0.00000  Uiso   1.00
C841   C     0.50022   0.42069   0.74916   0.00000  Uiso   1.00
C842   C     0.52665   0.49941   0.64962   0.00000  Uiso   1.00
C843   C     0.59564   0.46601   0.51171   0.00000  Uiso   1.00
C844   C     0.54226   0.49476   0.59221   0.00000  Uiso   1.00
C845   C     0.41202   0.51761   0.93335   0.00000  Uiso   1.00
C846   C     0.39968   0.52680   0.98605   0.00000  Uiso   1.00
C847   C     0.43244   0.51808   0.51364   0.00000  Uiso   1.00
Cu848  Cu    0.45311   0.49999   0.75000   0.00000  Uiso   1.00
Cu849  Cu    0.54689   0.50001   0.75000   0.00000  Uiso   1.00
H850   H     0.57790   0.37061   0.74212   0.00000  Uiso   1.00
H851   H     0.42267   0.37071   0.75549   0.00000  Uiso   1.00
H852   H     0.42252   0.62942   0.75609   0.00000  Uiso   1.00
H853   H     0.60837   0.55131   0.80054   0.00000  Uiso   1.00
H854   H     0.36198   0.55113   0.80076   0.00000  Uiso   1.00
H855   H     0.39149   0.44844   0.69987   0.00000  Uiso   1.00
H856   H     0.63760   0.44793   0.70088   0.00000  Uiso   1.00
H857   H     0.63068   0.45226   0.99045   0.00000  Uiso   1.00
H858   H     0.47373   0.51801   0.58952   0.00000  Uiso   1.00
H859   H     0.38770   0.52801   0.91188   0.00000  Uiso   1.00
H860   H     0.42104   0.52808   0.55366   0.00000  Uiso   1.00
H861   H     0.36548   0.54267   0.50509   0.00000  Uiso   1.00
H862   H     0.57770   0.62931   0.74294   0.00000  Uiso   1.00
N863   N     0.38265   0.49999   0.74999   0.00000  Uiso   1.00
N864   N     0.61735   0.50002   0.75000   0.00000  Uiso   1.00
O865   O     0.46042   0.56011   0.75001   0.00000  Uiso   1.00
O866   O     0.53961   0.56012   0.75001   0.00000  Uiso   1.00
O867   O     0.44108   0.49998   0.82549   0.00000  Uiso   1.00
O868   O     0.52027   0.49999   0.82549   0.00000  Uiso   1.00
O869   O     0.46039   0.43988   0.75000   0.00000  Uiso   1.00
O870   O     0.53958   0.43989   0.75000   0.00000  Uiso   1.00
O871   O     0.47973   0.50001   0.67451   0.00000  Uiso   1.00
O872   O     0.55892   0.50002   0.67451   0.00000  Uiso   1.00
Br873  Br    0.64171   0.46813   0.59076   0.00000  Uiso   1.00
O874   O     0.60211   0.42411   0.91807   0.00000  Uiso   1.00
C875   C     0.59457   0.38464   0.94180   0.00000  Uiso   1.00
H876   H     0.55869   0.37111   0.94193   0.00000  Uiso   1.00
H877   H     0.59549   0.38589   0.98279   0.00000  Uiso   1.00
C878   C     0.63554   0.35612   0.91121   0.00000  Uiso   1.00
H879   H     0.33856   0.36832   0.91120   0.00000  Uiso   1.00
H880   H     0.63021   0.65834   0.92947   0.00000  Uiso   1.00
H881   H     0.63503   0.35362   0.87020   0.00000  Uiso   1.00
Br882  Br    0.52320   0.41445   0.86578   0.00000  Uiso   1.00
C883   C     0.83334   0.57932   0.74995   0.00000  Uiso   1.00
C884   C     0.81075   0.49720   0.98967   0.00000  Uiso   1.00
C885   C     0.82014   0.48311   0.93754   0.00000  Uiso   1.00
C886   C     0.84680   0.49006   0.51546   0.00000  Uiso   1.00
C887   C     0.89092   0.46896   0.98897   0.00000  Uiso   1.00
C888   C     0.89520   0.44890   0.94166   0.00000  Uiso   1.00
C889   C     0.85885   0.45455   0.91733   0.00000  Uiso   1.00
C890   C     0.84033   0.50293   0.56698   0.00000  Uiso   1.00
C891   C     0.92162   0.47825   0.56308   0.00000  Uiso   1.00
C892   C     0.78978   0.49756   0.90796   0.00000  Uiso   1.00
C893   C     0.87702   0.64535   0.74569   0.00000  Uiso   1.00
C894   C     0.80676   0.49825   0.85026   0.00000  Uiso   1.00
C895   C     0.87715   0.35460   0.74518   0.00000  Uiso   1.00
C896   C     0.83363   0.37608   0.74879   0.00000  Uiso   1.00
C897   C     0.79005   0.35466   0.75257   0.00000  Uiso   1.00
C898   C     0.78995   0.64542   0.75296   0.00000  Uiso   1.00
C899   C     0.83342   0.62393   0.74959   0.00000  Uiso   1.00
C900   C     0.96698   0.52851   0.77802   0.00000  Uiso   1.00
C901   C     0.68324   0.52842   0.77814   0.00000  Uiso   1.00
C902   C     0.69961   0.47135   0.72222   0.00000  Uiso   1.00
C903   C     0.98325   0.47120   0.72254   0.00000  Uiso   1.00
C904   C     0.83356   0.42069   0.74916   0.00000  Uiso   1.00
C905   C     0.85998   0.49941   0.64962   0.00000  Uiso   1.00
C906   C     0.92897   0.46601   0.51171   0.00000  Uiso   1.00
C907   C     0.87560   0.49476   0.59221   0.00000  Uiso   1.00
C908   C     0.74535   0.51761   0.93335   0.00000  Uiso   1.00
C909   C     0.73301   0.52680   0.98605   0.00000  Uiso   1.00
C910   C     0.76577   0.51808   0.51364   0.00000  Uiso   1.00
Cu911  Cu    0.78645   0.49999   0.75000   0.00000  Uiso   1.00
Cu912  Cu    0.88022   0.50001   0.75000   0.00000  Uiso   1.00
H913   H     0.91123   0.37061   0.74212   0.00000  Uiso   1.00
H914   H     0.75601   0.37071   0.75549   0.00000  Uiso   1.00
H915   H     0.75585   0.62942   0.75609   0.00000  Uiso   1.00
H916   H     0.94170   0.55131   0.80054   0.00000  Uiso   1.00
H917   H     0.69532   0.55113   0.80076   0.00000  Uiso   1.00
H918   H     0.72483   0.44844   0.69987   0.00000  Uiso   1.00
H919   H     0.97094   0.44793   0.70088   0.00000  Uiso   1.00
H920   H     0.96401   0.45226   0.99045   0.00000  Uiso   1.00
H921   H     0.80706   0.51801   0.58952   0.00000  Uiso   1.00
H922   H     0.72104   0.52801   0.91188   0.00000  Uiso   1.00
H923   H     0.75437   0.52808   0.55366   0.00000  Uiso   1.00
H924   H     0.69881   0.54267   0.50509   0.00000  Uiso   1.00
H925   H     0.91103   0.62931   0.74294   0.00000  Uiso   1.00
N926   N     0.71598   0.49999   0.74999   0.00000  Uiso   1.00
N927   N     0.95069   0.50002   0.75000   0.00000  Uiso   1.00
O928   O     0.79375   0.56011   0.75001   0.00000  Uiso   1.00
O929   O     0.87294   0.56012   0.75001   0.00000  Uiso   1.00
O930   O     0.77441   0.49998   0.82549   0.00000  Uiso   1.00
O931   O     0.85360   0.49999   0.82549   0.00000  Uiso   1.00
O932   O     0.79373   0.43988   0.75000   0.00000  Uiso   1.00
O933   O     0.87292   0.43989   0.75000   0.00000  Uiso   1.00
O934   O     0.81306   0.50001   0.67451   0.00000  Uiso   1.00
O935   O     0.89225   0.50002   0.67451   0.00000  Uiso   1.00
Br936  Br    0.97505   0.46813   0.59076   0.00000  Uiso   1.00
O937   O     0.93544   0.42411   0.91807   0.00000  Uiso   1.00
C938   C     0.92790   0.38464   0.94180   0.00000  Uiso   1.00
H939   H     0.89202   0.37111   0.94193   0.00000  Uiso   1.00
H940   H     0.92882   0.38589   0.98279   0.00000  Uiso   1.00
C941   C     0.96887   0.35612   0.91121   0.00000  Uiso   1.00
H942   H     0.67189   0.36832   0.91120   0.00000  Uiso   1.00
H943   H     0.96354   0.65834   0.92947   0.00000  Uiso   1.00
H944   H     0.96837   0.35362   0.87020   0.00000  Uiso   1.00
Br945  Br    0.85654   0.41445   0.86578   0.00000  Uiso   1.00
C946   C     0.16667   0.91265   0.74995   0.00000  Uiso   1.00
C947   C     0.14409   0.83053   0.98967   0.00000  Uiso   1.00
C948   C     0.15347   0.81645   0.93754   0.00000  Uiso   1.00
C949   C     0.18013   0.82339   0.51546   0.00000  Uiso   1.00
C950   C     0.22426   0.80229   0.98897   0.00000  Uiso   1.00
C951   C     0.22854   0.78223   0.94166   0.00000  Uiso   1.00
C952   C     0.19219   0.78789   0.91733   0.00000  Uiso   1.00
C953   C     0.17366   0.83626   0.56698   0.00000  Uiso   1.00
C954   C     0.25495   0.81158   0.56308   0.00000  Uiso   1.00
C955   C     0.12312   0.83090   0.90796   0.00000  Uiso   1.00
C956   C     0.21036   0.97869   0.74569   0.00000  Uiso   1.00
C957   C     0.14009   0.83158   0.85026   0.00000  Uiso   1.00
C958   C     0.21049   0.68793   0.74518   0.00000  Uiso   1.00
C959   C     0.16697   0.70941   0.74879   0.00000  Uiso   1.00
C960   C     0.12339   0.68799   0.75257   0.00000  Uiso   1.00
C961   C     0.12328   0.97875   0.75296   0.00000  Uiso   1.00
C962   C     0.16675   0.95727   0.74959   0.00000  Uiso   1.00
C963   C     0.30032   0.86184   0.77802   0.00000  Uiso   1.00
C964   C     0.01657   0.86176   0.77814   0.00000  Uiso   1.00
C965   C     0.03294   0.80469   0.72222   0.00000  Uiso   1.00
C966   C     0.31658   0.80454   0.72254   0.00000  Uiso   1.00
C967   C     0.16689   0.75403   0.74916   0.00000  Uiso   1.00
C968   C     0.19331   0.83274   0.64962   0.00000  Uiso   1.00
C969   C     0.26231   0.79934   0.51171   0.00000  Uiso   1.00
C970   C     0.20893   0.82809   0.59221   0.00000  Uiso   1.00
C971   C     0.07868   0.85095   0.93335   0.00000  Uiso   1.00
C972   C     0.06634   0.86013   0.98605   0.00000  Uiso   1.00
C973   C     0.09911   0.85141   0.51364   0.00000  Uiso   1.00
Cu974  Cu    0.11978   0.83333   0.75000   0.00000  Uiso   1.00
Cu975  Cu    0.21355   0.83334   0.75000   0.00000  Uiso   1.00
H976   H     0.24456   0.70394   0.74212   0.00000  Uiso   1.00
H977   H     0.08934   0.70404   0.75549   0.00000  Uiso   1.00
H978   H     0.08919   0.96275   0.75609   0.00000  Uiso   1.00
H979   H     0.27503   0.88465   0.80054   0.00000  Uiso   1.00
H980   H     0.02865   0.88447   0.80076   0.00000  Uiso   1.00
H981   H     0.05816   0.78177   0.69987   0.00000  Uiso   1.00
H982   H     0.30427   0.78127   0.70088   0.00000  Uiso   1.00
H983   H     0.29734   0.78559   0.99045   0.00000  Uiso   1.00
H984   H     0.14039   0.85135   0.58952   0.00000  Uiso   1.00
H985   H     0.05437   0.86135   0.91188   0.00000  Uiso   1.00
H986   H     0.08770   0.86142   0.55366   0.00000  Uiso   1.00
H987   H     0.03215   0.87601   0.50509   0.00000  Uiso   1.00
H988   H     0.24436   0.96264   0.74294   0.00000  Uiso   1.00
N989   N     0.04931   0.83332   0.74999   0.00000  Uiso   1.00
N990   N     0.28402   0.83335   0.75000   0.00000  Uiso   1.00
O991   O     0.12708   0.89345   0.75001   0.00000  Uiso   1.00
O992   O     0.20627   0.89346   0.75001   0.00000  Uiso   1.00
O993   O     0.10775   0.83332   0.82549   0.00000  Uiso   1.00
O994   O     0.18694   0.83333   0.82549   0.00000  Uiso   1.00
O995   O     0.12706   0.77321   0.75000   0.00000  Uiso   1.00
O996   O     0.20625   0.77322   0.75000   0.00000  Uiso   1.00
O997   O     0.14640   0.83334   0.67451   0.00000  Uiso   1.00
O998   O     0.22559   0.83335   0.67451   0.00000  Uiso   1.00
Br999  Br    0.30838   0.80146   0.59076   0.00000  Uiso   1.00
O1000  O     0.26877   0.75745   0.91807   0.00000  Uiso   1.00
C1001  C     0.26124   0.71797   0.94180   0.00000  Uiso   1.00
H1002  H     0.22535   0.70444   0.94193   0.00000  Uiso   1.00
H1003  H     0.26216   0.71923   0.98279   0.00000  Uiso   1.00
C1004  C     0.30220   0.68945   0.91121   0.00000  Uiso   1.00
H1005  H     0.00523   0.70165   0.91120   0.00000  Uiso   1.00
H1006  H     0.29688   0.99167   0.92947   0.00000  Uiso   1.00
H1007  H     0.30170   0.68695   0.87020   0.00000  Uiso   1.00
Br1008 Br    0.18987   0.74778   0.86578   0.00000  Uiso   1.00
C1009  C     0.50001   0.91265   0.74995   0.00000  Uiso   1.00
C1010  C     0.47742   0.83053   0.98967   0.00000  Uiso   1.00
C1011  C     0.48681   0.81645   0.93754   0.00000  Uiso   1.00
C1012  C     0.51347   0.82339   0.51546   0.00000  Uiso   1.00
C1013  C     0.55759   0.80229   0.98897   0.00000  Uiso   1.00
C1014  C     0.56187   0.78223   0.94166   0.00000  Uiso   1.00
C1015  C     0.52552   0.78789   0.91733   0.00000  Uiso   1.00
C1016  C     0.50699   0.83626   0.56698   0.00000  Uiso   1.00
C1017  C     0.58829   0.81158   0.56308   0.00000  Uiso   1.00
C1018  C     0.45645   0.83090   0.90796   0.00000  Uiso   1.00
C1019  C     0.54369   0.97869   0.74569   0.00000  Uiso   1.00
C1020  C     0.47342   0.83158   0.85026   0.00000  Uiso   1.00
C1021  C     0.54382   0.68793   0.74518   0.00000  Uiso   1.00
C1022  C     0.50030   0.70941   0.74879   0.00000  Uiso   1.00
C1023  C     0.45672   0.68799   0.75257   0.00000  Uiso   1.00
C1024  C     0.45662   0.97875   0.75296   0.00000  Uiso   1.00
C1025  C     0.50008   0.95727   0.74959   0.00000  Uiso   1.00
C1026  C     0.63365   0.86184   0.77802   0.00000  Uiso   1.00
C1027  C     0.34991   0.86176   0.77814   0.00000  Uiso   1.00
C1028  C     0.36628   0.80469   0.72222   0.00000  Uiso   1.00
C1029  C     0.64992   0.80454   0.72254   0.00000  Uiso   1.00
C1030  C     0.50022   0.75403   0.74916   0.00000  Uiso   1.00
C1031  C     0.52665   0.83274   0.64962   0.00000  Uiso   1.00
C1032  C     0.59564   0.79934   0.51171   0.00000  Uiso   1.00
C1033  C     0.54226   0.82809   0.59221   0.00000  Uiso   1.00
C1034  C     0.41202   0.85095   0.93335   0.00000  Uiso   1.00
C1035  C     0.39968   0.86013   0.98605   0.00000  Uiso   1.00
C1036  C     0.43244   0.85141   0.51364   0.00000  Uiso   1.00
Cu1037 Cu    0.45311   0.83333   0.75000   0.00000  Uiso   1.00
Cu1038 Cu    0.54689   0.83334   0.75000   0.00000  Uiso   1.00
H1039  H     0.57790   0.70394   0.74212   0.00000  Uiso   1.00
H1040  H     0.42267   0.70404   0.75549   0.00000  Uiso   1.00
H1041  H     0.42252   0.96275   0.75609   0.00000  Uiso   1.00
H1042  H     0.60837   0.88465   0.80054   0.00000  Uiso   1.00
H1043  H     0.36198   0.88447   0.80076   0.00000  Uiso   1.00
H1044  H     0.39149   0.78177   0.69987   0.00000  Uiso   1.00
H1045  H     0.63760   0.78127   0.70088   0.00000  Uiso   1.00
H1046  H     0.63068   0.78559   0.99045   0.00000  Uiso   1.00
H1047  H     0.47373   0.85135   0.58952   0.00000  Uiso   1.00
H1048  H     0.38770   0.86135   0.91188   0.00000  Uiso   1.00
H1049  H     0.42104   0.86142   0.55366   0.00000  Uiso   1.00
H1050  H     0.36548   0.87601   0.50509   0.00000  Uiso   1.00
H1051  H     0.57770   0.96264   0.74294   0.00000  Uiso   1.00
N1052  N     0.38265   0.83332   0.74999   0.00000  Uiso   1.00
N1053  N     0.61735   0.83335   0.75000   0.00000  Uiso   1.00
O1054  O     0.46042   0.89345   0.75001   0.00000  Uiso   1.00
O1055  O     0.53961   0.89346   0.75001   0.00000  Uiso   1.00
O1056  O     0.44108   0.83332   0.82549   0.00000  Uiso   1.00
O1057  O     0.52027   0.83333   0.82549   0.00000  Uiso   1.00
O1058  O     0.46039   0.77321   0.75000   0.00000  Uiso   1.00
O1059  O     0.53958   0.77322   0.75000   0.00000  Uiso   1.00
O1060  O     0.47973   0.83334   0.67451   0.00000  Uiso   1.00
O1061  O     0.55892   0.83335   0.67451   0.00000  Uiso   1.00
Br1062 Br    0.64171   0.80146   0.59076   0.00000  Uiso   1.00
O1063  O     0.60211   0.75745   0.91807   0.00000  Uiso   1.00
C1064  C     0.59457   0.71797   0.94180   0.00000  Uiso   1.00
H1065  H     0.55869   0.70444   0.94193   0.00000  Uiso   1.00
H1066  H     0.59549   0.71923   0.98279   0.00000  Uiso   1.00
C1067  C     0.63554   0.68945   0.91121   0.00000  Uiso   1.00
H1068  H     0.33856   0.70165   0.91120   0.00000  Uiso   1.00
H1069  H     0.63021   0.99167   0.92947   0.00000  Uiso   1.00
H1070  H     0.63503   0.68695   0.87020   0.00000  Uiso   1.00
Br1071 Br    0.52320   0.74778   0.86578   0.00000  Uiso   1.00
C1072  C     0.83334   0.91265   0.74995   0.00000  Uiso   1.00
C1073  C     0.81075   0.83053   0.98967   0.00000  Uiso   1.00
C1074  C     0.82014   0.81645   0.93754   0.00000  Uiso   1.00
C1075  C     0.84680   0.82339   0.51546   0.00000  Uiso   1.00
C1076  C     0.89092   0.80229   0.98897   0.00000  Uiso   1.00
C1077  C     0.89520   0.78223   0.94166   0.00000  Uiso   1.00
C1078  C     0.85885   0.78789   0.91733   0.00000  Uiso   1.00
C1079  C     0.84033   0.83626   0.56698   0.00000  Uiso   1.00
C1080  C     0.92162   0.81158   0.56308   0.00000  Uiso   1.00
C1081  C     0.78978   0.83090   0.90796   0.00000  Uiso   1.00
C1082  C     0.87702   0.97869   0.74569   0.00000  Uiso   1.00
C1083  C     0.80676   0.83158   0.85026   0.00000  Uiso   1.00
C1084  C     0.87715   0.68793   0.74518   0.00000  Uiso   1.00
C1085  C     0.83363   0.70941   0.74879   0.00000  Uiso   1.00
C1086  C     0.79005   0.68799   0.75257   0.00000  Uiso   1.00
C1087  C     0.78995   0.97875   0.75296   0.00000  Uiso   1.00
C1088  C     0.83342   0.95727   0.74959   0.00000  Uiso   1.00
C1089  C     0.96698   0.86184   0.77802   0.00000  Uiso   1.00
C1090  C     0.68324   0.86176   0.77814   0.00000  Uiso   1.00
C1091  C     0.69961   0.80469   0.72222   0.00000  Uiso   1.00
C1092  C     0.98325   0.80454   0.72254   0.00000  Uiso   1.00
C1093  C     0.83356   0.75403   0.74916   0.00000  Uiso   1.00
C1094  C     0.85998   0.83274   0.64962   0.00000  Uiso   1.00
C1095  C     0.92897   0.79934   0.51171   0.00000  Uiso   1.00
C1096  C     0.87560   0.82809   0.59221   0.00000  Uiso   1.00
C1097  C     0.74535   0.85095   0.93335   0.00000  Uiso   1.00
C1098  C     0.73301   0.86013   0.98605   0.00000  Uiso   1.00
C1099  C     0.76577   0.85141   0.51364   0.00000  Uiso   1.00
Cu1100 Cu    0.78645   0.83333   0.75000   0.00000  Uiso   1.00
Cu1101 Cu    0.88022   0.83334   0.75000   0.00000  Uiso   1.00
H1102  H     0.91123   0.70394   0.74212   0.00000  Uiso   1.00
H1103  H     0.75601   0.70404   0.75549   0.00000  Uiso   1.00
H1104  H     0.75585   0.96275   0.75609   0.00000  Uiso   1.00
H1105  H     0.94170   0.88465   0.80054   0.00000  Uiso   1.00
H1106  H     0.69532   0.88447   0.80076   0.00000  Uiso   1.00
H1107  H     0.72483   0.78177   0.69987   0.00000  Uiso   1.00
H1108  H     0.97094   0.78127   0.70088   0.00000  Uiso   1.00
H1109  H     0.96401   0.78559   0.99045   0.00000  Uiso   1.00
H1110  H     0.80706   0.85135   0.58952   0.00000  Uiso   1.00
H1111  H     0.72104   0.86135   0.91188   0.00000  Uiso   1.00
H1112  H     0.75437   0.86142   0.55366   0.00000  Uiso   1.00
H1113  H     0.69881   0.87601   0.50509   0.00000  Uiso   1.00
H1114  H     0.91103   0.96264   0.74294   0.00000  Uiso   1.00
N1115  N     0.71598   0.83332   0.74999   0.00000  Uiso   1.00
N1116  N     0.95069   0.83335   0.75000   0.00000  Uiso   1.00
O1117  O     0.79375   0.89345   0.75001   0.00000  Uiso   1.00
O1118  O     0.87294   0.89346   0.75001   0.00000  Uiso   1.00
O1119  O     0.77441   0.83332   0.82549   0.00000  Uiso   1.00
O1120  O     0.85360   0.83333   0.82549   0.00000  Uiso   1.00
O1121  O     0.79373   0.77321   0.75000   0.00000  Uiso   1.00
O1122  O     0.87292   0.77322   0.75000   0.00000  Uiso   1.00
O1123  O     0.81306   0.83334   0.67451   0.00000  Uiso   1.00
O1124  O     0.89225   0.83335   0.67451   0.00000  Uiso   1.00
Br1125 Br    0.97505   0.80146   0.59076   0.00000  Uiso   1.00
O1126  O     0.93544   0.75745   0.91807   0.00000  Uiso   1.00
C1127  C     0.92790   0.71797   0.94180   0.00000  Uiso   1.00
H1128  H     0.89202   0.70444   0.94193   0.00000  Uiso   1.00
H1129  H     0.92882   0.71923   0.98279   0.00000  Uiso   1.00
C1130  C     0.96887   0.68945   0.91121   0.00000  Uiso   1.00
H1131  H     0.67189   0.70165   0.91120   0.00000  Uiso   1.00
H1132  H     0.96354   0.99167   0.92947   0.00000  Uiso   1.00
H1133  H     0.96837   0.68695   0.87020   0.00000  Uiso   1.00
Br1134 Br    0.85654   0.74778   0.86578   0.00000  Uiso   1.00
loop_
_geom_bond_atom_site_label_1
_geom_bond_atom_site_label_2
_geom_bond_distance
_geom_bond_site_symmetry_2
_ccdc_geom_bond_type
C1     C17     1.449   .     S
C1     O47     1.290   .     A
C1     O46     1.291   .     A
C2     C3      1.422   .     A
C2     C571    1.426   .     S
C2     C595    1.419   .     S
C3     C10     1.423   .     A
C3     C7      1.417   .     A
C4     C8      1.406   .     A
C4     C569    1.426   1_554 S
C4     C572    1.418   1_554 S
C5     C6      1.405   .     A
C5     C571    1.418   .     S
C5     C591    1.404   .     S
C6     C7      1.398   .     A
C6     O55     1.386   .     S
C7     Br63    1.925   .     S
C8     H39     1.075   .     S
C8     C25     1.401   .     A
C9     C24     1.392   .     A
C9     C25     1.411   .     A
C9     Br54    1.920   .     S
C10    C26     1.402   .     A
C10    C12     1.475   .     S
C11    H43     1.083   .     S
C11    C17     1.401   .     A
C11    C202    1.383   .     S
C12    O48     1.296   .     A
C12    O49     1.297   .     A
C13    C14     1.401   .     A
C13    H31     1.083   .     S
C13    C389    1.383   1_545 S
C14    C22     1.450   .     S
C14    C15     1.401   .     A
C15    H32     1.083   .     S
C15    C394    1.383   1_545 S
C16    H33     1.083   .     S
C16    C17     1.401   .     A
C16    C204    1.383   .     S
C18    H34     1.082   .     S
C18    N45     1.367   .     A
C18    C82     1.416   .     S
C19    H35     1.082   .     S
C19    N44     1.367   .     A
C19    C144    1.416   1_455 S
C20    N44     1.367   .     A
C20    H36     1.082   .     S
C20    C147    1.415   1_455 S
C21    N45     1.366   .     A
C21    H37     1.081   .     S
C21    C83     1.415   .     S
C22    O50     1.290   .     A
C22    O51     1.292   .     A
C23    O52     1.298   .     A
C23    O53     1.296   .     A
C23    C25     1.477   .     S
C24    C572    1.404   1_554 S
C24    H605    1.083   1_554 S
C26    C27     1.385   .     A
C26    H40     1.084   .     S
C27    C595    1.390   .     S
C27    H609    1.083   .     S
C28    H41     1.076   .     S
C28    C594    1.390   1_554 S
C28    C569    1.419   1_554 S
Cu29   O46     1.964   .     S
Cu29   Cu30    2.676   .     S
Cu29   O50     1.964   .     S
Cu29   N44     2.011   .     S
Cu29   O48     1.951   .     S
Cu29   O52     1.935   .     S
Cu30   N45     2.010   .     S
Cu30   O49     1.935   .     S
Cu30   O53     1.951   .     S
Cu30   O51     1.964   .     S
Cu30   O47     1.964   .     S
H38    C591    1.083   .     S
H42    C594    1.083   1_554 S
O55    C56     1.415   .     S
C56    C59     1.521   .     S
C56    H57     1.114   .     S
C56    H58     1.112   .     S
C59    H62     1.111   .     S
C59    H123    1.111   .     S
C59    H439    1.111   1_545 S
H60    C185    1.111   1_455 S
H61    C248    1.111   .     S
C64    C80     1.449   .     S
C64    O110    1.290   .     A
C64    O109    1.291   .     A
C65    C66     1.422   .     A
C65    C634    1.426   .     S
C65    C658    1.419   .     S
C66    C73     1.423   .     A
C66    C70     1.417   .     A
C67    C71     1.406   .     A
C67    C632    1.426   1_554 S
C67    C635    1.418   1_554 S
C68    C69     1.405   .     A
C68    C634    1.418   .     S
C68    C654    1.404   .     S
C69    C70     1.398   .     A
C69    O118    1.386   .     S
C70    Br126   1.925   .     S
C71    H102    1.075   .     S
C71    C88     1.401   .     A
C72    C87     1.392   .     A
C72    C88     1.411   .     A
C72    Br117   1.920   .     S
C73    C89     1.402   .     A
C73    C75     1.475   .     S
C74    H106    1.083   .     S
C74    C80     1.401   .     A
C74    C265    1.383   .     S
C75    O111    1.296   .     A
C75    O112    1.297   .     A
C76    C77     1.401   .     A
C76    H94     1.083   .     S
C76    C452    1.383   1_545 S
C77    C85     1.450   .     S
C77    C78     1.401   .     A
C78    H95     1.083   .     S
C78    C457    1.383   1_545 S
C79    H96     1.083   .     S
C79    C80     1.401   .     A
C79    C267    1.383   .     S
C81    H97     1.082   .     S
C81    N108    1.367   .     A
C81    C145    1.416   .     S
C82    H98     1.082   .     S
C82    N107    1.367   .     A
C83    N107    1.367   .     A
C83    H99     1.082   .     S
C84    N108    1.366   .     A
C84    H100    1.081   .     S
C84    C146    1.415   .     S
C85    O113    1.290   .     A
C85    O114    1.292   .     A
C86    O115    1.298   .     A
C86    O116    1.296   .     A
C86    C88     1.477   .     S
C87    C635    1.404   1_554 S
C87    H668    1.083   1_554 S
C89    C90     1.385   .     A
C89    H103    1.084   .     S
C90    C658    1.390   .     S
C90    H672    1.083   .     S
C91    H104    1.076   .     S
C91    C657    1.390   1_554 S
C91    C632    1.419   1_554 S
Cu92   O109    1.964   .     S
Cu92   Cu93    2.676   .     S
Cu92   O113    1.964   .     S
Cu92   N107    2.011   .     S
Cu92   O111    1.951   .     S
Cu92   O115    1.935   .     S
Cu93   N108    2.010   .     S
Cu93   O112    1.935   .     S
Cu93   O116    1.951   .     S
Cu93   O114    1.964   .     S
Cu93   O110    1.964   .     S
H101   C654    1.083   .     S
H105   C657    1.083   1_554 S
O118   C119    1.415   .     S
C119   C122    1.521   .     S
C119   H120    1.114   .     S
C119   H121    1.112   .     S
C122   H125    1.111   .     S
C122   H186    1.111   .     S
C122   H502    1.111   1_545 S
H124   C311    1.111   .     S
C127   C143    1.449   .     S
C127   O173    1.290   .     A
C127   O172    1.291   .     A
C128   C129    1.422   .     A
C128   C697    1.426   .     S
C128   C721    1.419   .     S
C129   C136    1.423   .     A
C129   C133    1.417   .     A
C130   C134    1.406   .     A
C130   C695    1.426   1_554 S
C130   C698    1.418   1_554 S
C131   C132    1.405   .     A
C131   C697    1.418   .     S
C131   C717    1.404   .     S
C132   C133    1.398   .     A
C132   O181    1.386   .     S
C133   Br189   1.925   .     S
C134   H165    1.075   .     S
C134   C151    1.401   .     A
C135   C150    1.392   .     A
C135   C151    1.411   .     A
C135   Br180   1.920   .     S
C136   C152    1.402   .     A
C136   C138    1.475   .     S
C137   H169    1.083   .     S
C137   C143    1.401   .     A
C137   C328    1.383   .     S
C138   O174    1.296   .     A
C138   O175    1.297   .     A
C139   C140    1.401   .     A
C139   H157    1.083   .     S
C139   C515    1.383   1_545 S
C140   C148    1.450   .     S
C140   C141    1.401   .     A
C141   H158    1.083   .     S
C141   C520    1.383   1_545 S
C142   H159    1.083   .     S
C142   C143    1.401   .     A
C142   C330    1.383   .     S
C144   H160    1.082   .     S
C144   N171    1.367   .     A
C144   C19     1.416   1_655 S
C145   H161    1.082   .     S
C145   N170    1.367   .     A
C146   N170    1.367   .     A
C146   H162    1.082   .     S
C147   N171    1.366   .     A
C147   H163    1.081   .     S
C147   C20     1.415   1_655 S
C148   O176    1.290   .     A
C148   O177    1.292   .     A
C149   O178    1.298   .     A
C149   O179    1.296   .     A
C149   C151    1.477   .     S
C150   C698    1.404   1_554 S
C150   H731    1.083   1_554 S
C152   C153    1.385   .     A
C152   H166    1.084   .     S
C153   C721    1.390   .     S
C153   H735    1.083   .     S
C154   H167    1.076   .     S
C154   C720    1.390   1_554 S
C154   C695    1.419   1_554 S
Cu155  O172    1.964   .     S
Cu155  Cu156   2.676   .     S
Cu155  O176    1.964   .     S
Cu155  N170    2.011   .     S
Cu155  O174    1.951   .     S
Cu155  O178    1.935   .     S
Cu156  N171    2.010   .     S
Cu156  O175    1.935   .     S
Cu156  O179    1.951   .     S
Cu156  O177    1.964   .     S
Cu156  O173    1.964   .     S
H164   C717    1.083   .     S
H168   C720    1.083   1_554 S
O181   C182    1.415   .     S
C182   C185    1.521   .     S
C182   H183    1.114   .     S
C182   H184    1.112   .     S
C185   H188    1.111   .     S
C185   H60     1.111   1_655 S
C185   H565    1.111   1_545 S
H187   C374    1.111   .     S
C190   C206    1.449   .     S
C190   O236    1.290   .     A
C190   O235    1.291   .     A
C191   C192    1.422   .     A
C191   C760    1.426   .     S
C191   C784    1.419   .     S
C192   C199    1.423   .     A
C192   C196    1.417   .     A
C193   C197    1.406   .     A
C193   C758    1.426   1_554 S
C193   C761    1.418   1_554 S
C194   C195    1.405   .     A
C194   C760    1.418   .     S
C194   C780    1.404   .     S
C195   C196    1.398   .     A
C195   O244    1.386   .     S
C196   Br252   1.925   .     S
C197   H228    1.075   .     S
C197   C214    1.401   .     A
C198   C213    1.392   .     A
C198   C214    1.411   .     A
C198   Br243   1.920   .     S
C199   C215    1.402   .     A
C199   C201    1.475   .     S
C200   H232    1.083   .     S
C200   C206    1.401   .     A
C200   C391    1.383   .     S
C201   O237    1.296   .     A
C201   O238    1.297   .     A
C202   C203    1.401   .     A
C202   H220    1.083   .     S
C203   C211    1.450   .     S
C203   C204    1.401   .     A
C204   H221    1.083   .     S
C205   H222    1.083   .     S
C205   C206    1.401   .     A
C205   C393    1.383   .     S
C207   H223    1.082   .     S
C207   N234    1.367   .     A
C207   C271    1.416   .     S
C208   H224    1.082   .     S
C208   N233    1.367   .     A
C208   C333    1.416   1_455 S
C209   N233    1.367   .     A
C209   H225    1.082   .     S
C209   C336    1.415   1_455 S
C210   N234    1.366   .     A
C210   H226    1.081   .     S
C210   C272    1.415   .     S
C211   O239    1.290   .     A
C211   O240    1.292   .     A
C212   O241    1.298   .     A
C212   O242    1.296   .     A
C212   C214    1.477   .     S
C213   C761    1.404   1_554 S
C213   H794    1.083   1_554 S
C215   C216    1.385   .     A
C215   H229    1.084   .     S
C216   C784    1.390   .     S
C216   H798    1.083   .     S
C217   H230    1.076   .     S
C217   C783    1.390   1_554 S
C217   C758    1.419   1_554 S
Cu218  O235    1.964   .     S
Cu218  Cu219   2.676   .     S
Cu218  O239    1.964   .     S
Cu218  N233    2.011   .     S
Cu218  O237    1.951   .     S
Cu218  O241    1.935   .     S
Cu219  N234    2.010   .     S
Cu219  O238    1.935   .     S
Cu219  O242    1.951   .     S
Cu219  O240    1.964   .     S
Cu219  O236    1.964   .     S
H227   C780    1.083   .     S
H231   C783    1.083   1_554 S
O244   C245    1.415   .     S
C245   C248    1.521   .     S
C245   H246    1.114   .     S
C245   H247    1.112   .     S
C248   H251    1.111   .     S
C248   H312    1.111   .     S
H249   C374    1.111   1_455 S
H250   C437    1.111   .     S
C253   C269    1.449   .     S
C253   O299    1.290   .     A
C253   O298    1.291   .     A
C254   C255    1.422   .     A
C254   C823    1.426   .     S
C254   C847    1.419   .     S
C255   C262    1.423   .     A
C255   C259    1.417   .     A
C256   C260    1.406   .     A
C256   C821    1.426   1_554 S
C256   C824    1.418   1_554 S
C257   C258    1.405   .     A
C257   C823    1.418   .     S
C257   C843    1.404   .     S
C258   C259    1.398   .     A
C258   O307    1.386   .     S
C259   Br315   1.925   .     S
C260   H291    1.075   .     S
C260   C277    1.401   .     A
C261   C276    1.392   .     A
C261   C277    1.411   .     A
C261   Br306   1.920   .     S
C262   C278    1.402   .     A
C262   C264    1.475   .     S
C263   H295    1.083   .     S
C263   C269    1.401   .     A
C263   C454    1.383   .     S
C264   O300    1.296   .     A
C264   O301    1.297   .     A
C265   C266    1.401   .     A
C265   H283    1.083   .     S
C266   C274    1.450   .     S
C266   C267    1.401   .     A
C267   H284    1.083   .     S
C268   H285    1.083   .     S
C268   C269    1.401   .     A
C268   C456    1.383   .     S
C270   H286    1.082   .     S
C270   N297    1.367   .     A
C270   C334    1.416   .     S
C271   H287    1.082   .     S
C271   N296    1.367   .     A
C272   N296    1.367   .     A
C272   H288    1.082   .     S
C273   N297    1.366   .     A
C273   H289    1.081   .     S
C273   C335    1.415   .     S
C274   O302    1.290   .     A
C274   O303    1.292   .     A
C275   O304    1.298   .     A
C275   O305    1.296   .     A
C275   C277    1.477   .     S
C276   C824    1.404   1_554 S
C276   H857    1.083   1_554 S
C278   C279    1.385   .     A
C278   H292    1.084   .     S
C279   C847    1.390   .     S
C279   H861    1.083   .     S
C280   H293    1.076   .     S
C280   C846    1.390   1_554 S
C280   C821    1.419   1_554 S
Cu281  O298    1.964   .     S
Cu281  Cu282   2.676   .     S
Cu281  O302    1.964   .     S
Cu281  N296    2.011   .     S
Cu281  O300    1.951   .     S
Cu281  O304    1.935   .     S
Cu282  N297    2.010   .     S
Cu282  O301    1.935   .     S
Cu282  O305    1.951   .     S
Cu282  O303    1.964   .     S
Cu282  O299    1.964   .     S
H290   C843    1.083   .     S
H294   C846    1.083   1_554 S
O307   C308    1.415   .     S
C308   C311    1.521   .     S
C308   H309    1.114   .     S
C308   H310    1.112   .     S
C311   H314    1.111   .     S
C311   H375    1.111   .     S
H313   C500    1.111   .     S
C316   C332    1.449   .     S
C316   O362    1.290   .     A
C316   O361    1.291   .     A
C317   C318    1.422   .     A
C317   C886    1.426   .     S
C317   C910    1.419   .     S
C318   C325    1.423   .     A
C318   C322    1.417   .     A
C319   C323    1.406   .     A
C319   C884    1.426   1_554 S
C319   C887    1.418   1_554 S
C320   C321    1.405   .     A
C320   C886    1.418   .     S
C320   C906    1.404   .     S
C321   C322    1.398   .     A
C321   O370    1.386   .     S
C322   Br378   1.925   .     S
C323   H354    1.075   .     S
C323   C340    1.401   .     A
C324   C339    1.392   .     A
C324   C340    1.411   .     A
C324   Br369   1.920   .     S
C325   C341    1.402   .     A
C325   C327    1.475   .     S
C326   H358    1.083   .     S
C326   C332    1.401   .     A
C326   C517    1.383   .     S
C327   O363    1.296   .     A
C327   O364    1.297   .     A
C328   C329    1.401   .     A
C328   H346    1.083   .     S
C329   C337    1.450   .     S
C329   C330    1.401   .     A
C330   H347    1.083   .     S
C331   H348    1.083   .     S
C331   C332    1.401   .     A
C331   C519    1.383   .     S
C333   H349    1.082   .     S
C333   N360    1.367   .     A
C333   C208    1.416   1_655 S
C334   H350    1.082   .     S
C334   N359    1.367   .     A
C335   N359    1.367   .     A
C335   H351    1.082   .     S
C336   N360    1.366   .     A
C336   H352    1.081   .     S
C336   C209    1.415   1_655 S
C337   O365    1.290   .     A
C337   O366    1.292   .     A
C338   O367    1.298   .     A
C338   O368    1.296   .     A
C338   C340    1.477   .     S
C339   C887    1.404   1_554 S
C339   H920    1.083   1_554 S
C341   C342    1.385   .     A
C341   H355    1.084   .     S
C342   C910    1.390   .     S
C342   H924    1.083   .     S
C343   H356    1.076   .     S
C343   C909    1.390   1_554 S
C343   C884    1.419   1_554 S
Cu344  O361    1.964   .     S
Cu344  Cu345   2.676   .     S
Cu344  O365    1.964   .     S
Cu344  N359    2.011   .     S
Cu344  O363    1.951   .     S
Cu344  O367    1.935   .     S
Cu345  N360    2.010   .     S
Cu345  O364    1.935   .     S
Cu345  O368    1.951   .     S
Cu345  O366    1.964   .     S
Cu345  O362    1.964   .     S
H353   C906    1.083   .     S
H357   C909    1.083   1_554 S
O370   C371    1.415   .     S
C371   C374    1.521   .     S
C371   H372    1.114   .     S
C371   H373    1.112   .     S
C374   H377    1.111   .     S
C374   H249    1.111   1_655 S
H376   C563    1.111   .     S
C379   C395    1.449   .     S
C379   O425    1.290   .     A
C379   O424    1.291   .     A
C380   C381    1.422   .     A
C380   C949    1.426   .     S
C380   C973    1.419   .     S
C381   C388    1.423   .     A
C381   C385    1.417   .     A
C382   C386    1.406   .     A
C382   C947    1.426   1_554 S
C382   C950    1.418   1_554 S
C383   C384    1.405   .     A
C383   C949    1.418   .     S
C383   C969    1.404   .     S
C384   C385    1.398   .     A
C384   O433    1.386   .     S
C385   Br441   1.925   .     S
C386   H417    1.075   .     S
C386   C403    1.401   .     A
C387   C402    1.392   .     A
C387   C403    1.411   .     A
C387   Br432   1.920   .     S
C388   C404    1.402   .     A
C388   C390    1.475   .     S
C389   H421    1.083   .     S
C389   C395    1.401   .     A
C389   C13     1.383   1_565 S
C390   O426    1.296   .     A
C390   O427    1.297   .     A
C391   C392    1.401   .     A
C391   H409    1.083   .     S
C392   C400    1.450   .     S
C392   C393    1.401   .     A
C393   H410    1.083   .     S
C394   H411    1.083   .     S
C394   C395    1.401   .     A
C394   C15     1.383   1_565 S
C396   H412    1.082   .     S
C396   N423    1.367   .     A
C396   C460    1.416   .     S
C397   H413    1.082   .     S
C397   N422    1.367   .     A
C397   C522    1.416   1_455 S
C398   N422    1.367   .     A
C398   H414    1.082   .     S
C398   C525    1.415   1_455 S
C399   N423    1.366   .     A
C399   H415    1.081   .     S
C399   C461    1.415   .     S
C400   O428    1.290   .     A
C400   O429    1.292   .     A
C401   O430    1.298   .     A
C401   O431    1.296   .     A
C401   C403    1.477   .     S
C402   C950    1.404   1_554 S
C402   H983    1.083   1_554 S
C404   C405    1.385   .     A
C404   H418    1.084   .     S
C405   C973    1.390   .     S
C405   H987    1.083   .     S
C406   H419    1.076   .     S
C406   C972    1.390   1_554 S
C406   C947    1.419   1_554 S
Cu407  O424    1.964   .     S
Cu407  Cu408   2.676   .     S
Cu407  O428    1.964   .     S
Cu407  N422    2.011   .     S
Cu407  O426    1.951   .     S
Cu407  O430    1.935   .     S
Cu408  N423    2.010   .     S
Cu408  O427    1.935   .     S
Cu408  O431    1.951   .     S
Cu408  O429    1.964   .     S
Cu408  O425    1.964   .     S
H416   C969    1.083   .     S
H420   C972    1.083   1_554 S
O433   C434    1.415   .     S
C434   C437    1.521   .     S
C434   H435    1.114   .     S
C434   H436    1.112   .     S
C437   H440    1.111   .     S
C437   H501    1.111   .     S
H438   C563    1.111   1_455 S
H439   C59     1.111   1_565 S
C442   C458    1.449   .     S
C442   O488    1.290   .     A
C442   O487    1.291   .     A
C443   C444    1.422   .     A
C443   C1012   1.426   .     S
C443   C1036   1.419   .     S
C444   C451    1.423   .     A
C444   C448    1.417   .     A
C445   C449    1.406   .     A
C445   C1010   1.426   1_554 S
C445   C1013   1.418   1_554 S
C446   C447    1.405   .     A
C446   C1012   1.418   .     S
C446   C1032   1.404   .     S
C447   C448    1.398   .     A
C447   O496    1.386   .     S
C448   Br504   1.925   .     S
C449   H480    1.075   .     S
C449   C466    1.401   .     A
C450   C465    1.392   .     A
C450   C466    1.411   .     A
C450   Br495   1.920   .     S
C451   C467    1.402   .     A
C451   C453    1.475   .     S
C452   H484    1.083   .     S
C452   C458    1.401   .     A
C452   C76     1.383   1_565 S
C453   O489    1.296   .     A
C453   O490    1.297   .     A
C454   C455    1.401   .     A
C454   H472    1.083   .     S
C455   C463    1.450   .     S
C455   C456    1.401   .     A
C456   H473    1.083   .     S
C457   H474    1.083   .     S
C457   C458    1.401   .     A
C457   C78     1.383   1_565 S
C459   H475    1.082   .     S
C459   N486    1.367   .     A
C459   C523    1.416   .     S
C460   H476    1.082   .     S
C460   N485    1.367   .     A
C461   N485    1.367   .     A
C461   H477    1.082   .     S
C462   N486    1.366   .     A
C462   H478    1.081   .     S
C462   C524    1.415   .     S
C463   O491    1.290   .     A
C463   O492    1.292   .     A
C464   O493    1.298   .     A
C464   O494    1.296   .     A
C464   C466    1.477   .     S
C465   C1013   1.404   1_554 S
C465   H1046   1.083   1_554 S
C467   C468    1.385   .     A
C467   H481    1.084   .     S
C468   C1036   1.390   .     S
C468   H1050   1.083   .     S
C469   H482    1.076   .     S
C469   C1035   1.390   1_554 S
C469   C1010   1.419   1_554 S
Cu470  O487    1.964   .     S
Cu470  Cu471   2.676   .     S
Cu470  O491    1.964   .     S
Cu470  N485    2.011   .     S
Cu470  O489    1.951   .     S
Cu470  O493    1.935   .     S
Cu471  N486    2.010   .     S
Cu471  O490    1.935   .     S
Cu471  O494    1.951   .     S
Cu471  O492    1.964   .     S
Cu471  O488    1.964   .     S
H479   C1032   1.083   .     S
H483   C1035   1.083   1_554 S
O496   C497    1.415   .     S
C497   C500    1.521   .     S
C497   H498    1.114   .     S
C497   H499    1.112   .     S
C500   H503    1.111   .     S
C500   H564    1.111   .     S
H502   C122    1.111   1_565 S
C505   C521    1.449   .     S
C505   O551    1.290   .     A
C505   O550    1.291   .     A
C506   C507    1.422   .     A
C506   C1075   1.426   .     S
C506   C1099   1.419   .     S
C507   C514    1.423   .     A
C507   C511    1.417   .     A
C508   C512    1.406   .     A
C508   C1073   1.426   1_554 S
C508   C1076   1.418   1_554 S
C509   C510    1.405   .     A
C509   C1075   1.418   .     S
C509   C1095   1.404   .     S
C510   C511    1.398   .     A
C510   O559    1.386   .     S
C511   Br567   1.925   .     S
C512   H543    1.075   .     S
C512   C529    1.401   .     A
C513   C528    1.392   .     A
C513   C529    1.411   .     A
C513   Br558   1.920   .     S
C514   C530    1.402   .     A
C514   C516    1.475   .     S
C515   H547    1.083   .     S
C515   C521    1.401   .     A
C515   C139    1.383   1_565 S
C516   O552    1.296   .     A
C516   O553    1.297   .     A
C517   C518    1.401   .     A
C517   H535    1.083   .     S
C518   C526    1.450   .     S
C518   C519    1.401   .     A
C519   H536    1.083   .     S
C520   H537    1.083   .     S
C520   C521    1.401   .     A
C520   C141    1.383   1_565 S
C522   H538    1.082   .     S
C522   N549    1.367   .     A
C522   C397    1.416   1_655 S
C523   H539    1.082   .     S
C523   N548    1.367   .     A
C524   N548    1.367   .     A
C524   H540    1.082   .     S
C525   N549    1.366   .     A
C525   H541    1.081   .     S
C525   C398    1.415   1_655 S
C526   O554    1.290   .     A
C526   O555    1.292   .     A
C527   O556    1.298   .     A
C527   O557    1.296   .     A
C527   C529    1.477   .     S
C528   C1076   1.404   1_554 S
C528   H1109   1.083   1_554 S
C530   C531    1.385   .     A
C530   H544    1.084   .     S
C531   C1099   1.390   .     S
C531   H1113   1.083   .     S
C532   H545    1.076   .     S
C532   C1098   1.390   1_554 S
C532   C1073   1.419   1_554 S
Cu533  O550    1.964   .     S
Cu533  Cu534   2.676   .     S
Cu533  O554    1.964   .     S
Cu533  N548    2.011   .     S
Cu533  O552    1.951   .     S
Cu533  O556    1.935   .     S
Cu534  N549    2.010   .     S
Cu534  O553    1.935   .     S
Cu534  O557    1.951   .     S
Cu534  O555    1.964   .     S
Cu534  O551    1.964   .     S
H542   C1095   1.083   .     S
H546   C1098   1.083   1_554 S
O559   C560    1.415   .     S
C560   C563    1.521   .     S
C560   H561    1.114   .     S
C560   H562    1.112   .     S
C563   H566    1.111   .     S
C563   H438    1.111   1_655 S
H565   C185    1.111   1_565 S
C568   C584    1.449   .     S
C568   O614    1.290   .     A
C568   O613    1.291   .     A
C569   C570    1.422   .     A
C569   C4      1.426   1_556 S
C569   C28     1.419   1_556 S
C570   C577    1.423   .     A
C570   C574    1.417   .     A
C571   C575    1.406   .     A
C572   C573    1.405   .     A
C572   C4      1.418   1_556 S
C572   C24     1.404   1_556 S
C573   C574    1.398   .     A
C573   O622    1.386   .     S
C574   Br630   1.925   .     S
C575   H606    1.075   .     S
C575   C592    1.401   .     A
C576   C591    1.392   .     A
C576   C592    1.411   .     A
C576   Br621   1.920   .     S
C577   C593    1.402   .     A
C577   C579    1.475   .     S
C578   H610    1.083   .     S
C578   C584    1.401   .     A
C578   C769    1.383   .     S
C579   O615    1.296   .     A
C579   O616    1.297   .     A
C580   C581    1.401   .     A
C580   H598    1.083   .     S
C580   C956    1.383   1_545 S
C581   C589    1.450   .     S
C581   C582    1.401   .     A
C582   H599    1.083   .     S
C582   C961    1.383   1_545 S
C583   H600    1.083   .     S
C583   C584    1.401   .     A
C583   C771    1.383   .     S
C585   H601    1.082   .     S
C585   N612    1.367   .     A
C585   C649    1.416   .     S
C586   H602    1.082   .     S
C586   N611    1.367   .     A
C586   C711    1.416   1_455 S
C587   N611    1.367   .     A
C587   H603    1.082   .     S
C587   C714    1.415   1_455 S
C588   N612    1.366   .     A
C588   H604    1.081   .     S
C588   C650    1.415   .     S
C589   O617    1.290   .     A
C589   O618    1.292   .     A
C590   O619    1.298   .     A
C590   O620    1.296   .     A
C590   C592    1.477   .     S
C593   C594    1.385   .     A
C593   H607    1.084   .     S
C594   C28     1.390   1_556 S
C594   H42     1.083   1_556 S
C595   H608    1.076   .     S
Cu596  O613    1.964   .     S
Cu596  Cu597   2.676   .     S
Cu596  O617    1.964   .     S
Cu596  N611    2.011   .     S
Cu596  O615    1.951   .     S
Cu596  O619    1.935   .     S
Cu597  N612    2.010   .     S
Cu597  O616    1.935   .     S
Cu597  O620    1.951   .     S
Cu597  O618    1.964   .     S
Cu597  O614    1.964   .     S
H605   C24     1.083   1_556 S
O622   C623    1.415   .     S
C623   C626    1.521   .     S
C623   H624    1.114   .     S
C623   H625    1.112   .     S
C626   H629    1.111   .     S
C626   H690    1.111   .     S
C626   H1006   1.111   1_545 S
H627   C752    1.111   1_455 S
H628   C815    1.111   .     S
C631   C647    1.449   .     S
C631   O677    1.290   .     A
C631   O676    1.291   .     A
C632   C633    1.422   .     A
C632   C67     1.426   1_556 S
C632   C91     1.419   1_556 S
C633   C640    1.423   .     A
C633   C637    1.417   .     A
C634   C638    1.406   .     A
C635   C636    1.405   .     A
C635   C67     1.418   1_556 S
C635   C87     1.404   1_556 S
C636   C637    1.398   .     A
C636   O685    1.386   .     S
C637   Br693   1.925   .     S
C638   H669    1.075   .     S
C638   C655    1.401   .     A
C639   C654    1.392   .     A
C639   C655    1.411   .     A
C639   Br684   1.920   .     S
C640   C656    1.402   .     A
C640   C642    1.475   .     S
C641   H673    1.083   .     S
C641   C647    1.401   .     A
C641   C832    1.383   .     S
C642   O678    1.296   .     A
C642   O679    1.297   .     A
C643   C644    1.401   .     A
C643   H661    1.083   .     S
C643   C1019   1.383   1_545 S
C644   C652    1.450   .     S
C644   C645    1.401   .     A
C645   H662    1.083   .     S
C645   C1024   1.383   1_545 S
C646   H663    1.083   .     S
C646   C647    1.401   .     A
C646   C834    1.383   .     S
C648   H664    1.082   .     S
C648   N675    1.367   .     A
C648   C712    1.416   .     S
C649   H665    1.082   .     S
C649   N674    1.367   .     A
C650   N674    1.367   .     A
C650   H666    1.082   .     S
C651   N675    1.366   .     A
C651   H667    1.081   .     S
C651   C713    1.415   .     S
C652   O680    1.290   .     A
C652   O681    1.292   .     A
C653   O682    1.298   .     A
C653   O683    1.296   .     A
C653   C655    1.477   .     S
C656   C657    1.385   .     A
C656   H670    1.084   .     S
C657   C91     1.390   1_556 S
C657   H105    1.083   1_556 S
C658   H671    1.076   .     S
Cu659  O676    1.964   .     S
Cu659  Cu660   2.676   .     S
Cu659  O680    1.964   .     S
Cu659  N674    2.011   .     S
Cu659  O678    1.951   .     S
Cu659  O682    1.935   .     S
Cu660  N675    2.010   .     S
Cu660  O679    1.935   .     S
Cu660  O683    1.951   .     S
Cu660  O681    1.964   .     S
Cu660  O677    1.964   .     S
H668   C87     1.083   1_556 S
O685   C686    1.415   .     S
C686   C689    1.521   .     S
C686   H687    1.114   .     S
C686   H688    1.112   .     S
C689   H692    1.111   .     S
C689   H753    1.111   .     S
C689   H1069   1.111   1_545 S
H691   C878    1.111   .     S
C694   C710    1.449   .     S
C694   O740    1.290   .     A
C694   O739    1.291   .     A
C695   C696    1.422   .     A
C695   C130    1.426   1_556 S
C695   C154    1.419   1_556 S
C696   C703    1.423   .     A
C696   C700    1.417   .     A
C697   C701    1.406   .     A
C698   C699    1.405   .     A
C698   C130    1.418   1_556 S
C698   C150    1.404   1_556 S
C699   C700    1.398   .     A
C699   O748    1.386   .     S
C700   Br756   1.925   .     S
C701   H732    1.075   .     S
C701   C718    1.401   .     A
C702   C717    1.392   .     A
C702   C718    1.411   .     A
C702   Br747   1.920   .     S
C703   C719    1.402   .     A
C703   C705    1.475   .     S
C704   H736    1.083   .     S
C704   C710    1.401   .     A
C704   C895    1.383   .     S
C705   O741    1.296   .     A
C705   O742    1.297   .     A
C706   C707    1.401   .     A
C706   H724    1.083   .     S
C706   C1082   1.383   1_545 S
C707   C715    1.450   .     S
C707   C708    1.401   .     A
C708   H725    1.083   .     S
C708   C1087   1.383   1_545 S
C709   H726    1.083   .     S
C709   C710    1.401   .     A
C709   C897    1.383   .     S
C711   H727    1.082   .     S
C711   N738    1.367   .     A
C711   C586    1.416   1_655 S
C712   H728    1.082   .     S
C712   N737    1.367   .     A
C713   N737    1.367   .     A
C713   H729    1.082   .     S
C714   N738    1.366   .     A
C714   H730    1.081   .     S
C714   C587    1.415   1_655 S
C715   O743    1.290   .     A
C715   O744    1.292   .     A
C716   O745    1.298   .     A
C716   O746    1.296   .     A
C716   C718    1.477   .     S
C719   C720    1.385   .     A
C719   H733    1.084   .     S
C720   C154    1.390   1_556 S
C720   H168    1.083   1_556 S
C721   H734    1.076   .     S
Cu722  O739    1.964   .     S
Cu722  Cu723   2.676   .     S
Cu722  O743    1.964   .     S
Cu722  N737    2.011   .     S
Cu722  O741    1.951   .     S
Cu722  O745    1.935   .     S
Cu723  N738    2.010   .     S
Cu723  O742    1.935   .     S
Cu723  O746    1.951   .     S
Cu723  O744    1.964   .     S
Cu723  O740    1.964   .     S
H731   C150    1.083   1_556 S
O748   C749    1.415   .     S
C749   C752    1.521   .     S
C749   H750    1.114   .     S
C749   H751    1.112   .     S
C752   H755    1.111   .     S
C752   H627    1.111   1_655 S
C752   H1132   1.111   1_545 S
H754   C941    1.111   .     S
C757   C773    1.449   .     S
C757   O803    1.290   .     A
C757   O802    1.291   .     A
C758   C759    1.422   .     A
C758   C193    1.426   1_556 S
C758   C217    1.419   1_556 S
C759   C766    1.423   .     A
C759   C763    1.417   .     A
C760   C764    1.406   .     A
C761   C762    1.405   .     A
C761   C193    1.418   1_556 S
C761   C213    1.404   1_556 S
C762   C763    1.398   .     A
C762   O811    1.386   .     S
C763   Br819   1.925   .     S
C764   H795    1.075   .     S
C764   C781    1.401   .     A
C765   C780    1.392   .     A
C765   C781    1.411   .     A
C765   Br810   1.920   .     S
C766   C782    1.402   .     A
C766   C768    1.475   .     S
C767   H799    1.083   .     S
C767   C773    1.401   .     A
C767   C958    1.383   .     S
C768   O804    1.296   .     A
C768   O805    1.297   .     A
C769   C770    1.401   .     A
C769   H787    1.083   .     S
C770   C778    1.450   .     S
C770   C771    1.401   .     A
C771   H788    1.083   .     S
C772   H789    1.083   .     S
C772   C773    1.401   .     A
C772   C960    1.383   .     S
C774   H790    1.082   .     S
C774   N801    1.367   .     A
C774   C838    1.416   .     S
C775   H791    1.082   .     S
C775   N800    1.367   .     A
C775   C900    1.416   1_455 S
C776   N800    1.367   .     A
C776   H792    1.082   .     S
C776   C903    1.415   1_455 S
C777   N801    1.366   .     A
C777   H793    1.081   .     S
C777   C839    1.415   .     S
C778   O806    1.290   .     A
C778   O807    1.292   .     A
C779   O808    1.298   .     A
C779   O809    1.296   .     A
C779   C781    1.477   .     S
C782   C783    1.385   .     A
C782   H796    1.084   .     S
C783   C217    1.390   1_556 S
C783   H231    1.083   1_556 S
C784   H797    1.076   .     S
Cu785  O802    1.964   .     S
Cu785  Cu786   2.676   .     S
Cu785  O806    1.964   .     S
Cu785  N800    2.011   .     S
Cu785  O804    1.951   .     S
Cu785  O808    1.935   .     S
Cu786  N801    2.010   .     S
Cu786  O805    1.935   .     S
Cu786  O809    1.951   .     S
Cu786  O807    1.964   .     S
Cu786  O803    1.964   .     S
H794   C213    1.083   1_556 S
O811   C812    1.415   .     S
C812   C815    1.521   .     S
C812   H813    1.114   .     S
C812   H814    1.112   .     S
C815   H818    1.111   .     S
C815   H879    1.111   .     S
H816   C941    1.111   1_455 S
H817   C1004   1.111   .     S
C820   C836    1.449   .     S
C820   O866    1.290   .     A
C820   O865    1.291   .     A
C821   C822    1.422   .     A
C821   C256    1.426   1_556 S
C821   C280    1.419   1_556 S
C822   C829    1.423   .     A
C822   C826    1.417   .     A
C823   C827    1.406   .     A
C824   C825    1.405   .     A
C824   C256    1.418   1_556 S
C824   C276    1.404   1_556 S
C825   C826    1.398   .     A
C825   O874    1.386   .     S
C826   Br882   1.925   .     S
C827   H858    1.075   .     S
C827   C844    1.401   .     A
C828   C843    1.392   .     A
C828   C844    1.411   .     A
C828   Br873   1.920   .     S
C829   C845    1.402   .     A
C829   C831    1.475   .     S
C830   H862    1.083   .     S
C830   C836    1.401   .     A
C830   C1021   1.383   .     S
C831   O867    1.296   .     A
C831   O868    1.297   .     A
C832   C833    1.401   .     A
C832   H850    1.083   .     S
C833   C841    1.450   .     S
C833   C834    1.401   .     A
C834   H851    1.083   .     S
C835   H852    1.083   .     S
C835   C836    1.401   .     A
C835   C1023   1.383   .     S
C837   H853    1.082   .     S
C837   N864    1.367   .     A
C837   C901    1.416   .     S
C838   H854    1.082   .     S
C838   N863    1.367   .     A
C839   N863    1.367   .     A
C839   H855    1.082   .     S
C840   N864    1.366   .     A
C840   H856    1.081   .     S
C840   C902    1.415   .     S
C841   O869    1.290   .     A
C841   O870    1.292   .     A
C842   O871    1.298   .     A
C842   O872    1.296   .     A
C842   C844    1.477   .     S
C845   C846    1.385   .     A
C845   H859    1.084   .     S
C846   C280    1.390   1_556 S
C846   H294    1.083   1_556 S
C847   H860    1.076   .     S
Cu848  O865    1.964   .     S
Cu848  Cu849   2.676   .     S
Cu848  O869    1.964   .     S
Cu848  N863    2.011   .     S
Cu848  O867    1.951   .     S
Cu848  O871    1.935   .     S
Cu849  N864    2.010   .     S
Cu849  O868    1.935   .     S
Cu849  O872    1.951   .     S
Cu849  O870    1.964   .     S
Cu849  O866    1.964   .     S
H857   C276    1.083   1_556 S
O874   C875    1.415   .     S
C875   C878    1.521   .     S
C875   H876    1.114   .     S
C875   H877    1.112   .     S
C878   H881    1.111   .     S
C878   H942    1.111   .     S
H880   C1067   1.111   .     S
C883   C899    1.449   .     S
C883   O929    1.290   .     A
C883   O928    1.291   .     A
C884   C885    1.422   .     A
C884   C319    1.426   1_556 S
C884   C343    1.419   1_556 S
C885   C892    1.423   .     A
C885   C889    1.417   .     A
C886   C890    1.406   .     A
C887   C888    1.405   .     A
C887   C319    1.418   1_556 S
C887   C339    1.404   1_556 S
C888   C889    1.398   .     A
C888   O937    1.386   .     S
C889   Br945   1.925   .     S
C890   H921    1.075   .     S
C890   C907    1.401   .     A
C891   C906    1.392   .     A
C891   C907    1.411   .     A
C891   Br936   1.920   .     S
C892   C908    1.402   .     A
C892   C894    1.475   .     S
C893   H925    1.083   .     S
C893   C899    1.401   .     A
C893   C1084   1.383   .     S
C894   O930    1.296   .     A
C894   O931    1.297   .     A
C895   C896    1.401   .     A
C895   H913    1.083   .     S
C896   C904    1.450   .     S
C896   C897    1.401   .     A
C897   H914    1.083   .     S
C898   H915    1.083   .     S
C898   C899    1.401   .     A
C898   C1086   1.383   .     S
C900   H916    1.082   .     S
C900   N927    1.367   .     A
C900   C775    1.416   1_655 S
C901   H917    1.082   .     S
C901   N926    1.367   .     A
C902   N926    1.367   .     A
C902   H918    1.082   .     S
C903   N927    1.366   .     A
C903   H919    1.081   .     S
C903   C776    1.415   1_655 S
C904   O932    1.290   .     A
C904   O933    1.292   .     A
C905   O934    1.298   .     A
C905   O935    1.296   .     A
C905   C907    1.477   .     S
C908   C909    1.385   .     A
C908   H922    1.084   .     S
C909   C343    1.390   1_556 S
C909   H357    1.083   1_556 S
C910   H923    1.076   .     S
Cu911  O928    1.964   .     S
Cu911  Cu912   2.676   .     S
Cu911  O932    1.964   .     S
Cu911  N926    2.011   .     S
Cu911  O930    1.951   .     S
Cu911  O934    1.935   .     S
Cu912  N927    2.010   .     S
Cu912  O931    1.935   .     S
Cu912  O935    1.951   .     S
Cu912  O933    1.964   .     S
Cu912  O929    1.964   .     S
H920   C339    1.083   1_556 S
O937   C938    1.415   .     S
C938   C941    1.521   .     S
C938   H939    1.114   .     S
C938   H940    1.112   .     S
C941   H944    1.111   .     S
C941   H816    1.111   1_655 S
H943   C1130   1.111   .     S
C946   C962    1.449   .     S
C946   O992    1.290   .     A
C946   O991    1.291   .     A
C947   C948    1.422   .     A
C947   C382    1.426   1_556 S
C947   C406    1.419   1_556 S
C948   C955    1.423   .     A
C948   C952    1.417   .     A
C949   C953    1.406   .     A
C950   C951    1.405   .     A
C950   C382    1.418   1_556 S
C950   C402    1.404   1_556 S
C951   C952    1.398   .     A
C951   O1000   1.386   .     S
C952   Br1008  1.925   .     S
C953   H984    1.075   .     S
C953   C970    1.401   .     A
C954   C969    1.392   .     A
C954   C970    1.411   .     A
C954   Br999   1.920   .     S
C955   C971    1.402   .     A
C955   C957    1.475   .     S
C956   H988    1.083   .     S
C956   C962    1.401   .     A
C956   C580    1.383   1_565 S
C957   O993    1.296   .     A
C957   O994    1.297   .     A
C958   C959    1.401   .     A
C958   H976    1.083   .     S
C959   C967    1.450   .     S
C959   C960    1.401   .     A
C960   H977    1.083   .     S
C961   H978    1.083   .     S
C961   C962    1.401   .     A
C961   C582    1.383   1_565 S
C963   H979    1.082   .     S
C963   N990    1.367   .     A
C963   C1027   1.416   .     S
C964   H980    1.082   .     S
C964   N989    1.367   .     A
C964   C1089   1.416   1_455 S
C965   N989    1.367   .     A
C965   H981    1.082   .     S
C965   C1092   1.415   1_455 S
C966   N990    1.366   .     A
C966   H982    1.081   .     S
C966   C1028   1.415   .     S
C967   O995    1.290   .     A
C967   O996    1.292   .     A
C968   O997    1.298   .     A
C968   O998    1.296   .     A
C968   C970    1.477   .     S
C971   C972    1.385   .     A
C971   H985    1.084   .     S
C972   C406    1.390   1_556 S
C972   H420    1.083   1_556 S
C973   H986    1.076   .     S
Cu974  O991    1.964   .     S
Cu974  Cu975   2.676   .     S
Cu974  O995    1.964   .     S
Cu974  N989    2.011   .     S
Cu974  O993    1.951   .     S
Cu974  O997    1.935   .     S
Cu975  N990    2.010   .     S
Cu975  O994    1.935   .     S
Cu975  O998    1.951   .     S
Cu975  O996    1.964   .     S
Cu975  O992    1.964   .     S
H983   C402    1.083   1_556 S
O1000  C1001   1.415   .     S
C1001  C1004   1.521   .     S
C1001  H1002   1.114   .     S
C1001  H1003   1.112   .     S
C1004  H1007   1.111   .     S
C1004  H1068   1.111   .     S
H1005  C1130   1.111   1_455 S
H1006  C626    1.111   1_565 S
C1009  C1025   1.449   .     S
C1009  O1055   1.290   .     A
C1009  O1054   1.291   .     A
C1010  C1011   1.422   .     A
C1010  C445    1.426   1_556 S
C1010  C469    1.419   1_556 S
C1011  C1018   1.423   .     A
C1011  C1015   1.417   .     A
C1012  C1016   1.406   .     A
C1013  C1014   1.405   .     A
C1013  C445    1.418   1_556 S
C1013  C465    1.404   1_556 S
C1014  C1015   1.398   .     A
C1014  O1063   1.386   .     S
C1015  Br1071  1.925   .     S
C1016  H1047   1.075   .     S
C1016  C1033   1.401   .     A
C1017  C1032   1.392   .     A
C1017  C1033   1.411   .     A
C1017  Br1062  1.920   .     S
C1018  C1034   1.402   .     A
C1018  C1020   1.475   .     S
C1019  H1051   1.083   .     S
C1019  C1025   1.401   .     A
C1019  C643    1.383   1_565 S
C1020  O1056   1.296   .     A
C1020  O1057   1.297   .     A
C1021  C1022   1.401   .     A
C1021  H1039   1.083   .     S
C1022  C1030   1.450   .     S
C1022  C1023   1.401   .     A
C1023  H1040   1.083   .     S
C1024  H1041   1.083   .     S
C1024  C1025   1.401   .     A
C1024  C645    1.383   1_565 S
C1026  H1042   1.082   .     S
C1026  N1053   1.367   .     A
C1026  C1090   1.416   .     S
C1027  H1043   1.082   .     S
C1027  N1052   1.367   .     A
C1028  N1052   1.367   .     A
C1028  H1044   1.082   .     S
C1029  N1053   1.366   .     A
C1029  H1045   1.081   .     S
C1029  C1091   1.415   .     S
C1030  O1058   1.290   .     A
C1030  O1059   1.292   .     A
C1031  O1060   1.298   .     A
C1031  O1061   1.296   .     A
C1031  C1033   1.477   .     S
C1034  C1035   1.385   .     A
C1034  H1048   1.084   .     S
C1035  C469    1.390   1_556 S
C1035  H483    1.083   1_556 S
C1036  H1049   1.076   .     S
Cu1037 O1054   1.964   .     S
Cu1037 Cu1038  2.676   .     S
Cu1037 O1058   1.964   .     S
Cu1037 N1052   2.011   .     S
Cu1037 O1056   1.951   .     S
Cu1037 O1060   1.935   .     S
Cu1038 N1053   2.010   .     S
Cu1038 O1057   1.935   .     S
Cu1038 O1061   1.951   .     S
Cu1038 O1059   1.964   .     S
Cu1038 O1055   1.964   .     S
H1046  C465    1.083   1_556 S
O1063  C1064   1.415   .     S
C1064  C1067   1.521   .     S
C1064  H1065   1.114   .     S
C1064  H1066   1.112   .     S
C1067  H1070   1.111   .     S
C1067  H1131   1.111   .     S
H1069  C689    1.111   1_565 S
C1072  C1088   1.449   .     S
C1072  O1118   1.290   .     A
C1072  O1117   1.291   .     A
C1073  C1074   1.422   .     A
C1073  C508    1.426   1_556 S
C1073  C532    1.419   1_556 S
C1074  C1081   1.423   .     A
C1074  C1078   1.417   .     A
C1075  C1079   1.406   .     A
C1076  C1077   1.405   .     A
C1076  C508    1.418   1_556 S
C1076  C528    1.404   1_556 S
C1077  C1078   1.398   .     A
C1077  O1126   1.386   .     S
C1078  Br1134  1.925   .     S
C1079  H1110   1.075   .     S
C1079  C1096   1.401   .     A
C1080  C1095   1.392   .     A
C1080  C1096   1.411   .     A
C1080  Br1125  1.920   .     S
C1081  C1097   1.402   .     A
C1081  C1083   1.475   .     S
C1082  H1114   1.083   .     S
C1082  C1088   1.401   .     A
C1082  C706    1.383   1_565 S
C1083  O1119   1.296   .     A
C1083  O1120   1.297   .     A
C1084  C1085   1.401   .     A
C1084  H1102   1.083   .     S
C1085  C1093   1.450   .     S
C1085  C1086   1.401   .     A
C1086  H1103   1.083   .     S
C1087  H1104   1.083   .     S
C1087  C1088   1.401   .     A
C1087  C708    1.383   1_565 S
C1089  H1105   1.082   .     S
C1089  N1116   1.367   .     A
C1089  C964    1.416   1_655 S
C1090  H1106   1.082   .     S
C1090  N1115   1.367   .     A
C1091  N1115   1.367   .     A
C1091  H1107   1.082   .     S
C1092  N1116   1.366   .     A
C1092  H1108   1.081   .     S
C1092  C965    1.415   1_655 S
C1093  O1121   1.290   .     A
C1093  O1122   1.292   .     A
C1094  O1123   1.298   .     A
C1094  O1124   1.296   .     A
C1094  C1096   1.477   .     S
C1097  C1098   1.385   .     A
C1097  H1111   1.084   .     S
C1098  C532    1.390   1_556 S
C1098  H546    1.083   1_556 S
C1099  H1112   1.076   .     S
Cu1100 O1117   1.964   .     S
Cu1100 Cu1101  2.676   .     S
Cu1100 O1121   1.964   .     S
Cu1100 N1115   2.011   .     S
Cu1100 O1119   1.951   .     S
Cu1100 O1123   1.935   .     S
Cu1101 N1116   2.010   .     S
Cu1101 O1120   1.935   .     S
Cu1101 O1124   1.951   .     S
Cu1101 O1122   1.964   .     S
Cu1101 O1118   1.964   .     S
H1109  C528    1.083   1_556 S
O1126  C1127   1.415   .     S
C1127  C1130   1.521   .     S
C1127  H1128   1.114   .     S
C1127  H1129   1.112   .     S
C1130  H1133   1.111   .     S
C1130  H1005   1.111   1_655 S
H1132  C752    1.111   1_565 S
