data_str_m2_o10_o16_pcu_sym.22
_audit_creation_date              2020-01-03
_audit_creation_method            'Materials Studio'
_symmetry_space_group_name_H-M    'P1'
_symmetry_Int_Tables_number       1
_symmetry_cell_setting            triclinic
loop_
_symmetry_equiv_pos_as_xyz
  x,y,z
_cell_length_a                    22.4145
_cell_length_b                    26.1501
_cell_length_c                    26.8017
_cell_angle_alpha                 94.9408
_cell_angle_beta                  77.3063
_cell_angle_gamma                 103.3593
loop_
_atom_site_label
_atom_site_type_symbol
_atom_site_fract_x
_atom_site_fract_y
_atom_site_fract_z
_atom_site_U_iso_or_equiv
_atom_site_adp_type
_atom_site_occupancy
C1     C     0.18091   0.26653   0.25365   0.00000  Uiso   1.00
C2     C     0.11153   0.16372   0.40387   0.00000  Uiso   1.00
C3     C     0.18652   0.32218   0.26132   0.00000  Uiso   1.00
C4     C     0.13296   0.16541   0.34738   0.00000  Uiso   1.00
C5     C     0.14409   0.01071   0.24782   0.00000  Uiso   1.00
C6     C     0.15145   0.06667   0.24908   0.00000  Uiso   1.00
C7     C     0.20048   0.17016   0.15302   0.00000  Uiso   1.00
C8     C     0.29239   0.22492   0.02713   0.00000  Uiso   1.00
C9     C     0.22081   0.17813   0.09798   0.00000  Uiso   1.00
C10    C     0.04936   0.13806   0.42519   0.00000  Uiso   1.00
C11    C     0.03277   0.12781   0.47740   0.00000  Uiso   1.00
C12    C     0.13927   0.16709   0.48808   0.00000  Uiso   1.00
C13    C     0.07700   0.14075   0.00801   0.00000  Uiso   1.00
C14    C     0.01182   0.08181   0.18275   0.00000  Uiso   1.00
C15    C     0.21824   0.01966   0.33512   0.00000  Uiso   1.00
C16    C     0.15459   0.18287   0.43669   0.00000  Uiso   1.00
C17    C     0.18645   0.17956   0.01792   0.00000  Uiso   1.00
C18    C     0.24586   0.21165   0.49778   0.00000  Uiso   1.00
C19    C     0.25739   0.23171   0.44932   0.00000  Uiso   1.00
C20    C     0.21207   0.21844   0.41975   0.00000  Uiso   1.00
C21    C     0.17625   0.16147   0.06748   0.00000  Uiso   1.00
C22    C     0.27976   0.20857   0.07725   0.00000  Uiso   1.00
Cu23   Cu    0.10710   0.16105   0.24435   0.00000  Uiso   1.00
Cu24   Cu    0.22623   0.17228   0.25564   0.00000  Uiso   1.00
H25    H     0.31481   0.22172   0.10039   0.00000  Uiso   1.00
H26    H     0.00147   0.05847   0.21753   0.00000  Uiso   1.00
H27    H     0.06122   0.08573   0.16254   0.00000  Uiso   1.00
H28    H     0.31573   0.05928   0.15649   0.00000  Uiso   1.00
H29    H     0.29777   0.10705   0.41588   0.00000  Uiso   1.00
H30    H     0.20161   0.31289   0.35063   0.00000  Uiso   1.00
H31    H     0.18141   0.04285   0.34805   0.00000  Uiso   1.00
H32    H     0.25953   0.03947   0.35125   0.00000  Uiso   1.00
H33    H     0.10396   0.32033   0.23392   0.00000  Uiso   1.00
H34    H     0.30146   0.25824   0.43433   0.00000  Uiso   1.00
H35    H     0.00451   0.24936   0.01187   0.00000  Uiso   1.00
H36    H     0.13319   0.13521   0.08407   0.00000  Uiso   1.00
H37    H     0.06007   0.13113   0.04764   0.00000  Uiso   1.00
H38    H     0.31864   0.10846   0.49446   0.00000  Uiso   1.00
H39    H     0.22194   0.23793   0.38409   0.00000  Uiso   1.00
H40    H     0.30694   0.22783   0.31972   0.00000  Uiso   1.00
N41    N     0.31574   0.18074   0.26416   0.00000  Uiso   1.00
N42    N     0.01759   0.15259   0.23584   0.00000  Uiso   1.00
O43    O     0.12797   0.23807   0.24633   0.00000  Uiso   1.00
O44    O     0.32965   0.13116   0.19381   0.00000  Uiso   1.00
O45    O     0.00575   0.12254   0.39448   0.00000  Uiso   1.00
O46    O     0.23655   0.01794   0.28131   0.00000  Uiso   1.00
O47    O     0.22858   0.24755   0.25586   0.00000  Uiso   1.00
O48    O     0.09181   0.15960   0.31839   0.00000  Uiso   1.00
O49    O     0.19242   0.16908   0.32793   0.00000  Uiso   1.00
O50    O     0.10476   0.08578   0.24413   0.00000  Uiso   1.00
O51    O     0.20536   0.09526   0.25367   0.00000  Uiso   1.00
O52    O     0.14092   0.16425   0.17207   0.00000  Uiso   1.00
O53    O     0.24152   0.17373   0.18160   0.00000  Uiso   1.00
O54    O     0.00589   0.20848   0.30246   0.00000  Uiso   1.00
C55    C     0.51424   0.26653   0.25365   0.00000  Uiso   1.00
C56    C     0.44486   0.16372   0.40387   0.00000  Uiso   1.00
C57    C     0.51986   0.32218   0.26132   0.00000  Uiso   1.00
C58    C     0.46630   0.16541   0.34738   0.00000  Uiso   1.00
C59    C     0.47743   0.01071   0.24782   0.00000  Uiso   1.00
C60    C     0.48479   0.06667   0.24908   0.00000  Uiso   1.00
C61    C     0.53381   0.17016   0.15302   0.00000  Uiso   1.00
C62    C     0.62572   0.22492   0.02713   0.00000  Uiso   1.00
C63    C     0.55415   0.17813   0.09798   0.00000  Uiso   1.00
C64    C     0.38270   0.13806   0.42519   0.00000  Uiso   1.00
C65    C     0.36610   0.12781   0.47740   0.00000  Uiso   1.00
C66    C     0.47260   0.16709   0.48808   0.00000  Uiso   1.00
C67    C     0.41034   0.14075   0.00801   0.00000  Uiso   1.00
C68    C     0.34516   0.08181   0.18275   0.00000  Uiso   1.00
C69    C     0.55157   0.01966   0.33512   0.00000  Uiso   1.00
C70    C     0.48793   0.18287   0.43669   0.00000  Uiso   1.00
C71    C     0.51978   0.17956   0.01792   0.00000  Uiso   1.00
C72    C     0.57919   0.21165   0.49778   0.00000  Uiso   1.00
C73    C     0.59072   0.23171   0.44932   0.00000  Uiso   1.00
C74    C     0.54540   0.21844   0.41975   0.00000  Uiso   1.00
C75    C     0.50958   0.16147   0.06748   0.00000  Uiso   1.00
C76    C     0.61309   0.20857   0.07725   0.00000  Uiso   1.00
Cu77   Cu    0.44043   0.16105   0.24435   0.00000  Uiso   1.00
Cu78   Cu    0.55957   0.17228   0.25564   0.00000  Uiso   1.00
H79    H     0.64815   0.22172   0.10039   0.00000  Uiso   1.00
H80    H     0.33480   0.05847   0.21753   0.00000  Uiso   1.00
H81    H     0.39455   0.08573   0.16254   0.00000  Uiso   1.00
H82    H     0.64907   0.05928   0.15649   0.00000  Uiso   1.00
H83    H     0.63110   0.10705   0.41588   0.00000  Uiso   1.00
H84    H     0.53494   0.31289   0.35063   0.00000  Uiso   1.00
H85    H     0.51474   0.04285   0.34805   0.00000  Uiso   1.00
H86    H     0.59287   0.03947   0.35125   0.00000  Uiso   1.00
H87    H     0.43729   0.32033   0.23392   0.00000  Uiso   1.00
H88    H     0.63480   0.25824   0.43433   0.00000  Uiso   1.00
H89    H     0.33784   0.24936   0.01187   0.00000  Uiso   1.00
H90    H     0.46652   0.13521   0.08407   0.00000  Uiso   1.00
H91    H     0.39340   0.13113   0.04764   0.00000  Uiso   1.00
H92    H     0.65198   0.10846   0.49446   0.00000  Uiso   1.00
H93    H     0.55527   0.23793   0.38409   0.00000  Uiso   1.00
H94    H     0.64027   0.22783   0.31972   0.00000  Uiso   1.00
N95    N     0.64908   0.18074   0.26416   0.00000  Uiso   1.00
N96    N     0.35092   0.15259   0.23584   0.00000  Uiso   1.00
O97    O     0.46131   0.23807   0.24633   0.00000  Uiso   1.00
O98    O     0.66298   0.13116   0.19381   0.00000  Uiso   1.00
O99    O     0.33908   0.12254   0.39448   0.00000  Uiso   1.00
O100   O     0.56988   0.01794   0.28131   0.00000  Uiso   1.00
O101   O     0.56191   0.24755   0.25586   0.00000  Uiso   1.00
O102   O     0.42515   0.15960   0.31839   0.00000  Uiso   1.00
O103   O     0.52575   0.16908   0.32793   0.00000  Uiso   1.00
O104   O     0.43809   0.08578   0.24413   0.00000  Uiso   1.00
O105   O     0.53869   0.09526   0.25367   0.00000  Uiso   1.00
O106   O     0.47425   0.16425   0.17207   0.00000  Uiso   1.00
O107   O     0.57485   0.17373   0.18160   0.00000  Uiso   1.00
O108   O     0.33922   0.20848   0.30246   0.00000  Uiso   1.00
C109   C     0.84758   0.26653   0.25365   0.00000  Uiso   1.00
C110   C     0.77819   0.16372   0.40387   0.00000  Uiso   1.00
C111   C     0.85319   0.32218   0.26132   0.00000  Uiso   1.00
C112   C     0.79963   0.16541   0.34738   0.00000  Uiso   1.00
C113   C     0.81076   0.01071   0.24782   0.00000  Uiso   1.00
C114   C     0.81812   0.06667   0.24908   0.00000  Uiso   1.00
C115   C     0.86714   0.17016   0.15302   0.00000  Uiso   1.00
C116   C     0.95906   0.22492   0.02713   0.00000  Uiso   1.00
C117   C     0.88748   0.17813   0.09798   0.00000  Uiso   1.00
C118   C     0.71603   0.13806   0.42519   0.00000  Uiso   1.00
C119   C     0.69943   0.12781   0.47740   0.00000  Uiso   1.00
C120   C     0.80593   0.16709   0.48808   0.00000  Uiso   1.00
C121   C     0.74367   0.14075   0.00801   0.00000  Uiso   1.00
C122   C     0.67849   0.08181   0.18275   0.00000  Uiso   1.00
C123   C     0.88491   0.01966   0.33512   0.00000  Uiso   1.00
C124   C     0.82126   0.18287   0.43669   0.00000  Uiso   1.00
C125   C     0.85311   0.17956   0.01792   0.00000  Uiso   1.00
C126   C     0.91253   0.21165   0.49778   0.00000  Uiso   1.00
C127   C     0.92406   0.23171   0.44932   0.00000  Uiso   1.00
C128   C     0.87873   0.21844   0.41975   0.00000  Uiso   1.00
C129   C     0.84292   0.16147   0.06748   0.00000  Uiso   1.00
C130   C     0.94642   0.20857   0.07725   0.00000  Uiso   1.00
Cu131  Cu    0.77377   0.16105   0.24435   0.00000  Uiso   1.00
Cu132  Cu    0.89290   0.17228   0.25564   0.00000  Uiso   1.00
H133   H     0.98148   0.22172   0.10039   0.00000  Uiso   1.00
H134   H     0.66813   0.05847   0.21753   0.00000  Uiso   1.00
H135   H     0.72789   0.08573   0.16254   0.00000  Uiso   1.00
H136   H     0.98240   0.05928   0.15649   0.00000  Uiso   1.00
H137   H     0.96443   0.10705   0.41588   0.00000  Uiso   1.00
H138   H     0.86827   0.31289   0.35063   0.00000  Uiso   1.00
H139   H     0.84808   0.04285   0.34805   0.00000  Uiso   1.00
H140   H     0.92620   0.03947   0.35125   0.00000  Uiso   1.00
H141   H     0.77062   0.32033   0.23392   0.00000  Uiso   1.00
H142   H     0.96813   0.25824   0.43433   0.00000  Uiso   1.00
H143   H     0.67118   0.24936   0.01187   0.00000  Uiso   1.00
H144   H     0.79986   0.13521   0.08407   0.00000  Uiso   1.00
H145   H     0.72674   0.13113   0.04764   0.00000  Uiso   1.00
H146   H     0.98531   0.10846   0.49446   0.00000  Uiso   1.00
H147   H     0.88860   0.23793   0.38409   0.00000  Uiso   1.00
H148   H     0.97360   0.22783   0.31972   0.00000  Uiso   1.00
N149   N     0.98241   0.18074   0.26416   0.00000  Uiso   1.00
N150   N     0.68426   0.15259   0.23584   0.00000  Uiso   1.00
O151   O     0.79464   0.23807   0.24633   0.00000  Uiso   1.00
O152   O     0.99632   0.13116   0.19381   0.00000  Uiso   1.00
O153   O     0.67242   0.12254   0.39448   0.00000  Uiso   1.00
O154   O     0.90322   0.01794   0.28131   0.00000  Uiso   1.00
O155   O     0.89524   0.24755   0.25586   0.00000  Uiso   1.00
O156   O     0.75848   0.15960   0.31839   0.00000  Uiso   1.00
O157   O     0.85908   0.16908   0.32793   0.00000  Uiso   1.00
O158   O     0.77142   0.08578   0.24413   0.00000  Uiso   1.00
O159   O     0.87203   0.09526   0.25367   0.00000  Uiso   1.00
O160   O     0.80758   0.16425   0.17207   0.00000  Uiso   1.00
O161   O     0.90819   0.17373   0.18160   0.00000  Uiso   1.00
O162   O     0.67256   0.20848   0.30246   0.00000  Uiso   1.00
C163   C     0.18091   0.59986   0.25365   0.00000  Uiso   1.00
C164   C     0.11153   0.49706   0.40387   0.00000  Uiso   1.00
C165   C     0.18652   0.65551   0.26132   0.00000  Uiso   1.00
C166   C     0.13296   0.49874   0.34738   0.00000  Uiso   1.00
C167   C     0.14409   0.34405   0.24782   0.00000  Uiso   1.00
C168   C     0.15145   0.40000   0.24908   0.00000  Uiso   1.00
C169   C     0.20048   0.50349   0.15302   0.00000  Uiso   1.00
C170   C     0.29239   0.55825   0.02713   0.00000  Uiso   1.00
C171   C     0.22081   0.51147   0.09798   0.00000  Uiso   1.00
C172   C     0.04936   0.47139   0.42519   0.00000  Uiso   1.00
C173   C     0.03277   0.46115   0.47740   0.00000  Uiso   1.00
C174   C     0.13927   0.50042   0.48808   0.00000  Uiso   1.00
C175   C     0.07700   0.47409   0.00801   0.00000  Uiso   1.00
C176   C     0.01182   0.41515   0.18275   0.00000  Uiso   1.00
C177   C     0.21824   0.35300   0.33512   0.00000  Uiso   1.00
C178   C     0.15459   0.51620   0.43669   0.00000  Uiso   1.00
C179   C     0.18645   0.51290   0.01792   0.00000  Uiso   1.00
C180   C     0.24586   0.54499   0.49778   0.00000  Uiso   1.00
C181   C     0.25739   0.56505   0.44932   0.00000  Uiso   1.00
C182   C     0.21207   0.55177   0.41975   0.00000  Uiso   1.00
C183   C     0.17625   0.49481   0.06748   0.00000  Uiso   1.00
C184   C     0.27976   0.54190   0.07725   0.00000  Uiso   1.00
Cu185  Cu    0.10710   0.49439   0.24435   0.00000  Uiso   1.00
Cu186  Cu    0.22623   0.50561   0.25564   0.00000  Uiso   1.00
H187   H     0.31481   0.55505   0.10039   0.00000  Uiso   1.00
H188   H     0.00147   0.39180   0.21753   0.00000  Uiso   1.00
H189   H     0.06122   0.41906   0.16254   0.00000  Uiso   1.00
H190   H     0.31573   0.39261   0.15649   0.00000  Uiso   1.00
H191   H     0.29777   0.44038   0.41588   0.00000  Uiso   1.00
H192   H     0.20161   0.64623   0.35063   0.00000  Uiso   1.00
H193   H     0.18141   0.37618   0.34805   0.00000  Uiso   1.00
H194   H     0.25953   0.37281   0.35125   0.00000  Uiso   1.00
H195   H     0.10396   0.65367   0.23392   0.00000  Uiso   1.00
H196   H     0.30146   0.59157   0.43433   0.00000  Uiso   1.00
H197   H     0.00451   0.58270   0.01187   0.00000  Uiso   1.00
H198   H     0.13319   0.46855   0.08407   0.00000  Uiso   1.00
H199   H     0.06007   0.46447   0.04764   0.00000  Uiso   1.00
H200   H     0.31864   0.44179   0.49446   0.00000  Uiso   1.00
H201   H     0.22194   0.57126   0.38409   0.00000  Uiso   1.00
H202   H     0.30694   0.56116   0.31972   0.00000  Uiso   1.00
N203   N     0.31574   0.51407   0.26416   0.00000  Uiso   1.00
N204   N     0.01759   0.48593   0.23584   0.00000  Uiso   1.00
O205   O     0.12797   0.57141   0.24633   0.00000  Uiso   1.00
O206   O     0.32965   0.46449   0.19381   0.00000  Uiso   1.00
O207   O     0.00575   0.45587   0.39448   0.00000  Uiso   1.00
O208   O     0.23655   0.35127   0.28131   0.00000  Uiso   1.00
O209   O     0.22858   0.58089   0.25586   0.00000  Uiso   1.00
O210   O     0.09181   0.49293   0.31839   0.00000  Uiso   1.00
O211   O     0.19242   0.50241   0.32793   0.00000  Uiso   1.00
O212   O     0.10476   0.41911   0.24413   0.00000  Uiso   1.00
O213   O     0.20536   0.42859   0.25367   0.00000  Uiso   1.00
O214   O     0.14092   0.49759   0.17207   0.00000  Uiso   1.00
O215   O     0.24152   0.50707   0.18160   0.00000  Uiso   1.00
O216   O     0.00589   0.54181   0.30246   0.00000  Uiso   1.00
C217   C     0.51424   0.59986   0.25365   0.00000  Uiso   1.00
C218   C     0.44486   0.49706   0.40387   0.00000  Uiso   1.00
C219   C     0.51986   0.65551   0.26132   0.00000  Uiso   1.00
C220   C     0.46630   0.49874   0.34738   0.00000  Uiso   1.00
C221   C     0.47743   0.34405   0.24782   0.00000  Uiso   1.00
C222   C     0.48479   0.40000   0.24908   0.00000  Uiso   1.00
C223   C     0.53381   0.50349   0.15302   0.00000  Uiso   1.00
C224   C     0.62572   0.55825   0.02713   0.00000  Uiso   1.00
C225   C     0.55415   0.51147   0.09798   0.00000  Uiso   1.00
C226   C     0.38270   0.47139   0.42519   0.00000  Uiso   1.00
C227   C     0.36610   0.46115   0.47740   0.00000  Uiso   1.00
C228   C     0.47260   0.50042   0.48808   0.00000  Uiso   1.00
C229   C     0.41034   0.47409   0.00801   0.00000  Uiso   1.00
C230   C     0.34516   0.41515   0.18275   0.00000  Uiso   1.00
C231   C     0.55157   0.35300   0.33512   0.00000  Uiso   1.00
C232   C     0.48793   0.51620   0.43669   0.00000  Uiso   1.00
C233   C     0.51978   0.51290   0.01792   0.00000  Uiso   1.00
C234   C     0.57919   0.54499   0.49778   0.00000  Uiso   1.00
C235   C     0.59072   0.56505   0.44932   0.00000  Uiso   1.00
C236   C     0.54540   0.55177   0.41975   0.00000  Uiso   1.00
C237   C     0.50958   0.49481   0.06748   0.00000  Uiso   1.00
C238   C     0.61309   0.54190   0.07725   0.00000  Uiso   1.00
Cu239  Cu    0.44043   0.49439   0.24435   0.00000  Uiso   1.00
Cu240  Cu    0.55957   0.50561   0.25564   0.00000  Uiso   1.00
H241   H     0.64815   0.55505   0.10039   0.00000  Uiso   1.00
H242   H     0.33480   0.39180   0.21753   0.00000  Uiso   1.00
H243   H     0.39455   0.41906   0.16254   0.00000  Uiso   1.00
H244   H     0.64907   0.39261   0.15649   0.00000  Uiso   1.00
H245   H     0.63110   0.44038   0.41588   0.00000  Uiso   1.00
H246   H     0.53494   0.64623   0.35063   0.00000  Uiso   1.00
H247   H     0.51474   0.37618   0.34805   0.00000  Uiso   1.00
H248   H     0.59287   0.37281   0.35125   0.00000  Uiso   1.00
H249   H     0.43729   0.65367   0.23392   0.00000  Uiso   1.00
H250   H     0.63480   0.59157   0.43433   0.00000  Uiso   1.00
H251   H     0.33784   0.58270   0.01187   0.00000  Uiso   1.00
H252   H     0.46652   0.46855   0.08407   0.00000  Uiso   1.00
H253   H     0.39340   0.46447   0.04764   0.00000  Uiso   1.00
H254   H     0.65198   0.44179   0.49446   0.00000  Uiso   1.00
H255   H     0.55527   0.57126   0.38409   0.00000  Uiso   1.00
H256   H     0.64027   0.56116   0.31972   0.00000  Uiso   1.00
N257   N     0.64908   0.51407   0.26416   0.00000  Uiso   1.00
N258   N     0.35092   0.48593   0.23584   0.00000  Uiso   1.00
O259   O     0.46131   0.57141   0.24633   0.00000  Uiso   1.00
O260   O     0.66298   0.46449   0.19381   0.00000  Uiso   1.00
O261   O     0.33908   0.45587   0.39448   0.00000  Uiso   1.00
O262   O     0.56988   0.35127   0.28131   0.00000  Uiso   1.00
O263   O     0.56191   0.58089   0.25586   0.00000  Uiso   1.00
O264   O     0.42515   0.49293   0.31839   0.00000  Uiso   1.00
O265   O     0.52575   0.50241   0.32793   0.00000  Uiso   1.00
O266   O     0.43809   0.41911   0.24413   0.00000  Uiso   1.00
O267   O     0.53869   0.42859   0.25367   0.00000  Uiso   1.00
O268   O     0.47425   0.49759   0.17207   0.00000  Uiso   1.00
O269   O     0.57485   0.50707   0.18160   0.00000  Uiso   1.00
O270   O     0.33922   0.54181   0.30246   0.00000  Uiso   1.00
C271   C     0.84758   0.59986   0.25365   0.00000  Uiso   1.00
C272   C     0.77819   0.49706   0.40387   0.00000  Uiso   1.00
C273   C     0.85319   0.65551   0.26132   0.00000  Uiso   1.00
C274   C     0.79963   0.49874   0.34738   0.00000  Uiso   1.00
C275   C     0.81076   0.34405   0.24782   0.00000  Uiso   1.00
C276   C     0.81812   0.40000   0.24908   0.00000  Uiso   1.00
C277   C     0.86714   0.50349   0.15302   0.00000  Uiso   1.00
C278   C     0.95906   0.55825   0.02713   0.00000  Uiso   1.00
C279   C     0.88748   0.51147   0.09798   0.00000  Uiso   1.00
C280   C     0.71603   0.47139   0.42519   0.00000  Uiso   1.00
C281   C     0.69943   0.46115   0.47740   0.00000  Uiso   1.00
C282   C     0.80593   0.50042   0.48808   0.00000  Uiso   1.00
C283   C     0.74367   0.47409   0.00801   0.00000  Uiso   1.00
C284   C     0.67849   0.41515   0.18275   0.00000  Uiso   1.00
C285   C     0.88491   0.35300   0.33512   0.00000  Uiso   1.00
C286   C     0.82126   0.51620   0.43669   0.00000  Uiso   1.00
C287   C     0.85311   0.51290   0.01792   0.00000  Uiso   1.00
C288   C     0.91253   0.54499   0.49778   0.00000  Uiso   1.00
C289   C     0.92406   0.56505   0.44932   0.00000  Uiso   1.00
C290   C     0.87873   0.55177   0.41975   0.00000  Uiso   1.00
C291   C     0.84292   0.49481   0.06748   0.00000  Uiso   1.00
C292   C     0.94642   0.54190   0.07725   0.00000  Uiso   1.00
Cu293  Cu    0.77377   0.49439   0.24435   0.00000  Uiso   1.00
Cu294  Cu    0.89290   0.50561   0.25564   0.00000  Uiso   1.00
H295   H     0.98148   0.55505   0.10039   0.00000  Uiso   1.00
H296   H     0.66813   0.39180   0.21753   0.00000  Uiso   1.00
H297   H     0.72789   0.41906   0.16254   0.00000  Uiso   1.00
H298   H     0.98240   0.39261   0.15649   0.00000  Uiso   1.00
H299   H     0.96443   0.44038   0.41588   0.00000  Uiso   1.00
H300   H     0.86827   0.64623   0.35063   0.00000  Uiso   1.00
H301   H     0.84808   0.37618   0.34805   0.00000  Uiso   1.00
H302   H     0.92620   0.37281   0.35125   0.00000  Uiso   1.00
H303   H     0.77062   0.65367   0.23392   0.00000  Uiso   1.00
H304   H     0.96813   0.59157   0.43433   0.00000  Uiso   1.00
H305   H     0.67118   0.58270   0.01187   0.00000  Uiso   1.00
H306   H     0.79986   0.46855   0.08407   0.00000  Uiso   1.00
H307   H     0.72674   0.46447   0.04764   0.00000  Uiso   1.00
H308   H     0.98531   0.44179   0.49446   0.00000  Uiso   1.00
H309   H     0.88860   0.57126   0.38409   0.00000  Uiso   1.00
H310   H     0.97360   0.56116   0.31972   0.00000  Uiso   1.00
N311   N     0.98241   0.51407   0.26416   0.00000  Uiso   1.00
N312   N     0.68426   0.48593   0.23584   0.00000  Uiso   1.00
O313   O     0.79464   0.57141   0.24633   0.00000  Uiso   1.00
O314   O     0.99632   0.46449   0.19381   0.00000  Uiso   1.00
O315   O     0.67242   0.45587   0.39448   0.00000  Uiso   1.00
O316   O     0.90322   0.35127   0.28131   0.00000  Uiso   1.00
O317   O     0.89524   0.58089   0.25586   0.00000  Uiso   1.00
O318   O     0.75848   0.49293   0.31839   0.00000  Uiso   1.00
O319   O     0.85908   0.50241   0.32793   0.00000  Uiso   1.00
O320   O     0.77142   0.41911   0.24413   0.00000  Uiso   1.00
O321   O     0.87203   0.42859   0.25367   0.00000  Uiso   1.00
O322   O     0.80758   0.49759   0.17207   0.00000  Uiso   1.00
O323   O     0.90819   0.50707   0.18160   0.00000  Uiso   1.00
O324   O     0.67256   0.54181   0.30246   0.00000  Uiso   1.00
C325   C     0.18091   0.93319   0.25365   0.00000  Uiso   1.00
C326   C     0.11153   0.83039   0.40387   0.00000  Uiso   1.00
C327   C     0.18652   0.98885   0.26132   0.00000  Uiso   1.00
C328   C     0.13296   0.83207   0.34738   0.00000  Uiso   1.00
C329   C     0.14409   0.67738   0.24782   0.00000  Uiso   1.00
C330   C     0.15145   0.73334   0.24908   0.00000  Uiso   1.00
C331   C     0.20048   0.83682   0.15302   0.00000  Uiso   1.00
C332   C     0.29239   0.89158   0.02713   0.00000  Uiso   1.00
C333   C     0.22081   0.84480   0.09798   0.00000  Uiso   1.00
C334   C     0.04936   0.80473   0.42519   0.00000  Uiso   1.00
C335   C     0.03277   0.79448   0.47740   0.00000  Uiso   1.00
C336   C     0.13927   0.83376   0.48808   0.00000  Uiso   1.00
C337   C     0.07700   0.80742   0.00801   0.00000  Uiso   1.00
C338   C     0.01182   0.74848   0.18275   0.00000  Uiso   1.00
C339   C     0.21824   0.68633   0.33512   0.00000  Uiso   1.00
C340   C     0.15459   0.84954   0.43669   0.00000  Uiso   1.00
C341   C     0.18645   0.84623   0.01792   0.00000  Uiso   1.00
C342   C     0.24586   0.87832   0.49778   0.00000  Uiso   1.00
C343   C     0.25739   0.89838   0.44932   0.00000  Uiso   1.00
C344   C     0.21207   0.88511   0.41975   0.00000  Uiso   1.00
C345   C     0.17625   0.82814   0.06748   0.00000  Uiso   1.00
C346   C     0.27976   0.87523   0.07725   0.00000  Uiso   1.00
Cu347  Cu    0.10710   0.82772   0.24435   0.00000  Uiso   1.00
Cu348  Cu    0.22623   0.83895   0.25564   0.00000  Uiso   1.00
H349   H     0.31481   0.88838   0.10039   0.00000  Uiso   1.00
H350   H     0.00147   0.72513   0.21753   0.00000  Uiso   1.00
H351   H     0.06122   0.75239   0.16254   0.00000  Uiso   1.00
H352   H     0.31573   0.72594   0.15649   0.00000  Uiso   1.00
H353   H     0.29777   0.77372   0.41588   0.00000  Uiso   1.00
H354   H     0.20161   0.97956   0.35063   0.00000  Uiso   1.00
H355   H     0.18141   0.70952   0.34805   0.00000  Uiso   1.00
H356   H     0.25953   0.70614   0.35125   0.00000  Uiso   1.00
H357   H     0.10396   0.98700   0.23392   0.00000  Uiso   1.00
H358   H     0.30146   0.92491   0.43433   0.00000  Uiso   1.00
H359   H     0.00451   0.91603   0.01187   0.00000  Uiso   1.00
H360   H     0.13319   0.80188   0.08407   0.00000  Uiso   1.00
H361   H     0.06007   0.79780   0.04764   0.00000  Uiso   1.00
H362   H     0.31864   0.77513   0.49446   0.00000  Uiso   1.00
H363   H     0.22194   0.90460   0.38409   0.00000  Uiso   1.00
H364   H     0.30694   0.89450   0.31972   0.00000  Uiso   1.00
N365   N     0.31574   0.84741   0.26416   0.00000  Uiso   1.00
N366   N     0.01759   0.81926   0.23584   0.00000  Uiso   1.00
O367   O     0.12797   0.90474   0.24633   0.00000  Uiso   1.00
O368   O     0.32965   0.79783   0.19381   0.00000  Uiso   1.00
O369   O     0.00575   0.78921   0.39448   0.00000  Uiso   1.00
O370   O     0.23655   0.68461   0.28131   0.00000  Uiso   1.00
O371   O     0.22858   0.91422   0.25586   0.00000  Uiso   1.00
O372   O     0.09181   0.82627   0.31839   0.00000  Uiso   1.00
O373   O     0.19242   0.83575   0.32793   0.00000  Uiso   1.00
O374   O     0.10476   0.75245   0.24413   0.00000  Uiso   1.00
O375   O     0.20536   0.76193   0.25367   0.00000  Uiso   1.00
O376   O     0.14092   0.83092   0.17207   0.00000  Uiso   1.00
O377   O     0.24152   0.84040   0.18160   0.00000  Uiso   1.00
O378   O     0.00589   0.87515   0.30246   0.00000  Uiso   1.00
C379   C     0.51424   0.93319   0.25365   0.00000  Uiso   1.00
C380   C     0.44486   0.83039   0.40387   0.00000  Uiso   1.00
C381   C     0.51986   0.98885   0.26132   0.00000  Uiso   1.00
C382   C     0.46630   0.83207   0.34738   0.00000  Uiso   1.00
C383   C     0.47743   0.67738   0.24782   0.00000  Uiso   1.00
C384   C     0.48479   0.73334   0.24908   0.00000  Uiso   1.00
C385   C     0.53381   0.83682   0.15302   0.00000  Uiso   1.00
C386   C     0.62572   0.89158   0.02713   0.00000  Uiso   1.00
C387   C     0.55415   0.84480   0.09798   0.00000  Uiso   1.00
C388   C     0.38270   0.80473   0.42519   0.00000  Uiso   1.00
C389   C     0.36610   0.79448   0.47740   0.00000  Uiso   1.00
C390   C     0.47260   0.83376   0.48808   0.00000  Uiso   1.00
C391   C     0.41034   0.80742   0.00801   0.00000  Uiso   1.00
C392   C     0.34516   0.74848   0.18275   0.00000  Uiso   1.00
C393   C     0.55157   0.68633   0.33512   0.00000  Uiso   1.00
C394   C     0.48793   0.84954   0.43669   0.00000  Uiso   1.00
C395   C     0.51978   0.84623   0.01792   0.00000  Uiso   1.00
C396   C     0.57919   0.87832   0.49778   0.00000  Uiso   1.00
C397   C     0.59072   0.89838   0.44932   0.00000  Uiso   1.00
C398   C     0.54540   0.88511   0.41975   0.00000  Uiso   1.00
C399   C     0.50958   0.82814   0.06748   0.00000  Uiso   1.00
C400   C     0.61309   0.87523   0.07725   0.00000  Uiso   1.00
Cu401  Cu    0.44043   0.82772   0.24435   0.00000  Uiso   1.00
Cu402  Cu    0.55957   0.83895   0.25564   0.00000  Uiso   1.00
H403   H     0.64815   0.88838   0.10039   0.00000  Uiso   1.00
H404   H     0.33480   0.72513   0.21753   0.00000  Uiso   1.00
H405   H     0.39455   0.75239   0.16254   0.00000  Uiso   1.00
H406   H     0.64907   0.72594   0.15649   0.00000  Uiso   1.00
H407   H     0.63110   0.77372   0.41588   0.00000  Uiso   1.00
H408   H     0.53494   0.97956   0.35063   0.00000  Uiso   1.00
H409   H     0.51474   0.70952   0.34805   0.00000  Uiso   1.00
H410   H     0.59287   0.70614   0.35125   0.00000  Uiso   1.00
H411   H     0.43729   0.98700   0.23392   0.00000  Uiso   1.00
H412   H     0.63480   0.92491   0.43433   0.00000  Uiso   1.00
H413   H     0.33784   0.91603   0.01187   0.00000  Uiso   1.00
H414   H     0.46652   0.80188   0.08407   0.00000  Uiso   1.00
H415   H     0.39340   0.79780   0.04764   0.00000  Uiso   1.00
H416   H     0.65198   0.77513   0.49446   0.00000  Uiso   1.00
H417   H     0.55527   0.90460   0.38409   0.00000  Uiso   1.00
H418   H     0.64027   0.89450   0.31972   0.00000  Uiso   1.00
N419   N     0.64908   0.84741   0.26416   0.00000  Uiso   1.00
N420   N     0.35092   0.81926   0.23584   0.00000  Uiso   1.00
O421   O     0.46131   0.90474   0.24633   0.00000  Uiso   1.00
O422   O     0.66298   0.79783   0.19381   0.00000  Uiso   1.00
O423   O     0.33908   0.78921   0.39448   0.00000  Uiso   1.00
O424   O     0.56988   0.68461   0.28131   0.00000  Uiso   1.00
O425   O     0.56191   0.91422   0.25586   0.00000  Uiso   1.00
O426   O     0.42515   0.82627   0.31839   0.00000  Uiso   1.00
O427   O     0.52575   0.83575   0.32793   0.00000  Uiso   1.00
O428   O     0.43809   0.75245   0.24413   0.00000  Uiso   1.00
O429   O     0.53869   0.76193   0.25367   0.00000  Uiso   1.00
O430   O     0.47425   0.83092   0.17207   0.00000  Uiso   1.00
O431   O     0.57485   0.84040   0.18160   0.00000  Uiso   1.00
O432   O     0.33922   0.87515   0.30246   0.00000  Uiso   1.00
C433   C     0.84758   0.93319   0.25365   0.00000  Uiso   1.00
C434   C     0.77819   0.83039   0.40387   0.00000  Uiso   1.00
C435   C     0.85319   0.98885   0.26132   0.00000  Uiso   1.00
C436   C     0.79963   0.83207   0.34738   0.00000  Uiso   1.00
C437   C     0.81076   0.67738   0.24782   0.00000  Uiso   1.00
C438   C     0.81812   0.73334   0.24908   0.00000  Uiso   1.00
C439   C     0.86714   0.83682   0.15302   0.00000  Uiso   1.00
C440   C     0.95906   0.89158   0.02713   0.00000  Uiso   1.00
C441   C     0.88748   0.84480   0.09798   0.00000  Uiso   1.00
C442   C     0.71603   0.80473   0.42519   0.00000  Uiso   1.00
C443   C     0.69943   0.79448   0.47740   0.00000  Uiso   1.00
C444   C     0.80593   0.83376   0.48808   0.00000  Uiso   1.00
C445   C     0.74367   0.80742   0.00801   0.00000  Uiso   1.00
C446   C     0.67849   0.74848   0.18275   0.00000  Uiso   1.00
C447   C     0.88491   0.68633   0.33512   0.00000  Uiso   1.00
C448   C     0.82126   0.84954   0.43669   0.00000  Uiso   1.00
C449   C     0.85311   0.84623   0.01792   0.00000  Uiso   1.00
C450   C     0.91253   0.87832   0.49778   0.00000  Uiso   1.00
C451   C     0.92406   0.89838   0.44932   0.00000  Uiso   1.00
C452   C     0.87873   0.88511   0.41975   0.00000  Uiso   1.00
C453   C     0.84292   0.82814   0.06748   0.00000  Uiso   1.00
C454   C     0.94642   0.87523   0.07725   0.00000  Uiso   1.00
Cu455  Cu    0.77377   0.82772   0.24435   0.00000  Uiso   1.00
Cu456  Cu    0.89290   0.83895   0.25564   0.00000  Uiso   1.00
H457   H     0.98148   0.88838   0.10039   0.00000  Uiso   1.00
H458   H     0.66813   0.72513   0.21753   0.00000  Uiso   1.00
H459   H     0.72789   0.75239   0.16254   0.00000  Uiso   1.00
H460   H     0.98240   0.72594   0.15649   0.00000  Uiso   1.00
H461   H     0.96443   0.77372   0.41588   0.00000  Uiso   1.00
H462   H     0.86827   0.97956   0.35063   0.00000  Uiso   1.00
H463   H     0.84808   0.70952   0.34805   0.00000  Uiso   1.00
H464   H     0.92620   0.70614   0.35125   0.00000  Uiso   1.00
H465   H     0.77062   0.98700   0.23392   0.00000  Uiso   1.00
H466   H     0.96813   0.92491   0.43433   0.00000  Uiso   1.00
H467   H     0.67118   0.91603   0.01187   0.00000  Uiso   1.00
H468   H     0.79986   0.80188   0.08407   0.00000  Uiso   1.00
H469   H     0.72674   0.79780   0.04764   0.00000  Uiso   1.00
H470   H     0.98531   0.77513   0.49446   0.00000  Uiso   1.00
H471   H     0.88860   0.90460   0.38409   0.00000  Uiso   1.00
H472   H     0.97360   0.89450   0.31972   0.00000  Uiso   1.00
N473   N     0.98241   0.84741   0.26416   0.00000  Uiso   1.00
N474   N     0.68426   0.81926   0.23584   0.00000  Uiso   1.00
O475   O     0.79464   0.90474   0.24633   0.00000  Uiso   1.00
O476   O     0.99632   0.79783   0.19381   0.00000  Uiso   1.00
O477   O     0.67242   0.78921   0.39448   0.00000  Uiso   1.00
O478   O     0.90322   0.68461   0.28131   0.00000  Uiso   1.00
O479   O     0.89524   0.91422   0.25586   0.00000  Uiso   1.00
O480   O     0.75848   0.82627   0.31839   0.00000  Uiso   1.00
O481   O     0.85908   0.83575   0.32793   0.00000  Uiso   1.00
O482   O     0.77142   0.75245   0.24413   0.00000  Uiso   1.00
O483   O     0.87203   0.76193   0.25367   0.00000  Uiso   1.00
O484   O     0.80758   0.83092   0.17207   0.00000  Uiso   1.00
O485   O     0.90819   0.84040   0.18160   0.00000  Uiso   1.00
O486   O     0.67256   0.87515   0.30246   0.00000  Uiso   1.00
C487   C     0.18091   0.26653   0.75365   0.00000  Uiso   1.00
C488   C     0.11153   0.16372   0.90387   0.00000  Uiso   1.00
C489   C     0.18652   0.32218   0.76132   0.00000  Uiso   1.00
C490   C     0.13296   0.16541   0.84738   0.00000  Uiso   1.00
C491   C     0.14409   0.01071   0.74782   0.00000  Uiso   1.00
C492   C     0.15145   0.06667   0.74908   0.00000  Uiso   1.00
C493   C     0.20048   0.17016   0.65302   0.00000  Uiso   1.00
C494   C     0.29239   0.22492   0.52713   0.00000  Uiso   1.00
C495   C     0.22081   0.17813   0.59798   0.00000  Uiso   1.00
C496   C     0.04936   0.13806   0.92519   0.00000  Uiso   1.00
C497   C     0.03277   0.12781   0.97740   0.00000  Uiso   1.00
C498   C     0.13927   0.16709   0.98808   0.00000  Uiso   1.00
C499   C     0.07700   0.14075   0.50801   0.00000  Uiso   1.00
C500   C     0.01182   0.08181   0.68275   0.00000  Uiso   1.00
C501   C     0.21824   0.01966   0.83512   0.00000  Uiso   1.00
C502   C     0.15459   0.18287   0.93669   0.00000  Uiso   1.00
C503   C     0.18645   0.17956   0.51792   0.00000  Uiso   1.00
C504   C     0.24586   0.21165   0.99778   0.00000  Uiso   1.00
C505   C     0.25739   0.23171   0.94932   0.00000  Uiso   1.00
C506   C     0.21207   0.21844   0.91975   0.00000  Uiso   1.00
C507   C     0.17625   0.16147   0.56748   0.00000  Uiso   1.00
C508   C     0.27976   0.20857   0.57725   0.00000  Uiso   1.00
Cu509  Cu    0.10710   0.16105   0.74435   0.00000  Uiso   1.00
Cu510  Cu    0.22623   0.17228   0.75564   0.00000  Uiso   1.00
H511   H     0.31481   0.22172   0.60039   0.00000  Uiso   1.00
H512   H     0.00147   0.05847   0.71753   0.00000  Uiso   1.00
H513   H     0.06122   0.08573   0.66254   0.00000  Uiso   1.00
H514   H     0.31573   0.05928   0.65649   0.00000  Uiso   1.00
H515   H     0.29777   0.10705   0.91588   0.00000  Uiso   1.00
H516   H     0.20161   0.31289   0.85063   0.00000  Uiso   1.00
H517   H     0.18141   0.04285   0.84805   0.00000  Uiso   1.00
H518   H     0.25953   0.03947   0.85125   0.00000  Uiso   1.00
H519   H     0.10396   0.32033   0.73392   0.00000  Uiso   1.00
H520   H     0.30146   0.25824   0.93433   0.00000  Uiso   1.00
H521   H     0.00451   0.24936   0.51187   0.00000  Uiso   1.00
H522   H     0.13319   0.13521   0.58407   0.00000  Uiso   1.00
H523   H     0.06007   0.13113   0.54764   0.00000  Uiso   1.00
H524   H     0.31864   0.10846   0.99446   0.00000  Uiso   1.00
H525   H     0.22194   0.23793   0.88409   0.00000  Uiso   1.00
H526   H     0.30694   0.22783   0.81972   0.00000  Uiso   1.00
N527   N     0.31574   0.18074   0.76416   0.00000  Uiso   1.00
N528   N     0.01759   0.15259   0.73584   0.00000  Uiso   1.00
O529   O     0.12797   0.23807   0.74633   0.00000  Uiso   1.00
O530   O     0.32965   0.13116   0.69381   0.00000  Uiso   1.00
O531   O     0.00575   0.12254   0.89448   0.00000  Uiso   1.00
O532   O     0.23655   0.01794   0.78131   0.00000  Uiso   1.00
O533   O     0.22858   0.24755   0.75586   0.00000  Uiso   1.00
O534   O     0.09181   0.15960   0.81839   0.00000  Uiso   1.00
O535   O     0.19242   0.16908   0.82793   0.00000  Uiso   1.00
O536   O     0.10476   0.08578   0.74413   0.00000  Uiso   1.00
O537   O     0.20536   0.09526   0.75367   0.00000  Uiso   1.00
O538   O     0.14092   0.16425   0.67207   0.00000  Uiso   1.00
O539   O     0.24152   0.17373   0.68160   0.00000  Uiso   1.00
O540   O     0.00589   0.20848   0.80246   0.00000  Uiso   1.00
C541   C     0.51424   0.26653   0.75365   0.00000  Uiso   1.00
C542   C     0.44486   0.16372   0.90387   0.00000  Uiso   1.00
C543   C     0.51986   0.32218   0.76132   0.00000  Uiso   1.00
C544   C     0.46630   0.16541   0.84738   0.00000  Uiso   1.00
C545   C     0.47743   0.01071   0.74782   0.00000  Uiso   1.00
C546   C     0.48479   0.06667   0.74908   0.00000  Uiso   1.00
C547   C     0.53381   0.17016   0.65302   0.00000  Uiso   1.00
C548   C     0.62572   0.22492   0.52713   0.00000  Uiso   1.00
C549   C     0.55415   0.17813   0.59798   0.00000  Uiso   1.00
C550   C     0.38270   0.13806   0.92519   0.00000  Uiso   1.00
C551   C     0.36610   0.12781   0.97740   0.00000  Uiso   1.00
C552   C     0.47260   0.16709   0.98808   0.00000  Uiso   1.00
C553   C     0.41034   0.14075   0.50801   0.00000  Uiso   1.00
C554   C     0.34516   0.08181   0.68275   0.00000  Uiso   1.00
C555   C     0.55157   0.01966   0.83512   0.00000  Uiso   1.00
C556   C     0.48793   0.18287   0.93669   0.00000  Uiso   1.00
C557   C     0.51978   0.17956   0.51792   0.00000  Uiso   1.00
C558   C     0.57919   0.21165   0.99778   0.00000  Uiso   1.00
C559   C     0.59072   0.23171   0.94932   0.00000  Uiso   1.00
C560   C     0.54540   0.21844   0.91975   0.00000  Uiso   1.00
C561   C     0.50958   0.16147   0.56748   0.00000  Uiso   1.00
C562   C     0.61309   0.20857   0.57725   0.00000  Uiso   1.00
Cu563  Cu    0.44043   0.16105   0.74435   0.00000  Uiso   1.00
Cu564  Cu    0.55957   0.17228   0.75564   0.00000  Uiso   1.00
H565   H     0.64815   0.22172   0.60039   0.00000  Uiso   1.00
H566   H     0.33480   0.05847   0.71753   0.00000  Uiso   1.00
H567   H     0.39455   0.08573   0.66254   0.00000  Uiso   1.00
H568   H     0.64907   0.05928   0.65649   0.00000  Uiso   1.00
H569   H     0.63110   0.10705   0.91588   0.00000  Uiso   1.00
H570   H     0.53494   0.31289   0.85063   0.00000  Uiso   1.00
H571   H     0.51474   0.04285   0.84805   0.00000  Uiso   1.00
H572   H     0.59287   0.03947   0.85125   0.00000  Uiso   1.00
H573   H     0.43729   0.32033   0.73392   0.00000  Uiso   1.00
H574   H     0.63480   0.25824   0.93433   0.00000  Uiso   1.00
H575   H     0.33784   0.24936   0.51187   0.00000  Uiso   1.00
H576   H     0.46652   0.13521   0.58407   0.00000  Uiso   1.00
H577   H     0.39340   0.13113   0.54764   0.00000  Uiso   1.00
H578   H     0.65198   0.10846   0.99446   0.00000  Uiso   1.00
H579   H     0.55527   0.23793   0.88409   0.00000  Uiso   1.00
H580   H     0.64027   0.22783   0.81972   0.00000  Uiso   1.00
N581   N     0.64908   0.18074   0.76416   0.00000  Uiso   1.00
N582   N     0.35092   0.15259   0.73584   0.00000  Uiso   1.00
O583   O     0.46131   0.23807   0.74633   0.00000  Uiso   1.00
O584   O     0.66298   0.13116   0.69381   0.00000  Uiso   1.00
O585   O     0.33908   0.12254   0.89448   0.00000  Uiso   1.00
O586   O     0.56988   0.01794   0.78131   0.00000  Uiso   1.00
O587   O     0.56191   0.24755   0.75586   0.00000  Uiso   1.00
O588   O     0.42515   0.15960   0.81839   0.00000  Uiso   1.00
O589   O     0.52575   0.16908   0.82793   0.00000  Uiso   1.00
O590   O     0.43809   0.08578   0.74413   0.00000  Uiso   1.00
O591   O     0.53869   0.09526   0.75367   0.00000  Uiso   1.00
O592   O     0.47425   0.16425   0.67207   0.00000  Uiso   1.00
O593   O     0.57485   0.17373   0.68160   0.00000  Uiso   1.00
O594   O     0.33922   0.20848   0.80246   0.00000  Uiso   1.00
C595   C     0.84758   0.26653   0.75365   0.00000  Uiso   1.00
C596   C     0.77819   0.16372   0.90387   0.00000  Uiso   1.00
C597   C     0.85319   0.32218   0.76132   0.00000  Uiso   1.00
C598   C     0.79963   0.16541   0.84738   0.00000  Uiso   1.00
C599   C     0.81076   0.01071   0.74782   0.00000  Uiso   1.00
C600   C     0.81812   0.06667   0.74908   0.00000  Uiso   1.00
C601   C     0.86714   0.17016   0.65302   0.00000  Uiso   1.00
C602   C     0.95906   0.22492   0.52713   0.00000  Uiso   1.00
C603   C     0.88748   0.17813   0.59798   0.00000  Uiso   1.00
C604   C     0.71603   0.13806   0.92519   0.00000  Uiso   1.00
C605   C     0.69943   0.12781   0.97740   0.00000  Uiso   1.00
C606   C     0.80593   0.16709   0.98808   0.00000  Uiso   1.00
C607   C     0.74367   0.14075   0.50801   0.00000  Uiso   1.00
C608   C     0.67849   0.08181   0.68275   0.00000  Uiso   1.00
C609   C     0.88491   0.01966   0.83512   0.00000  Uiso   1.00
C610   C     0.82126   0.18287   0.93669   0.00000  Uiso   1.00
C611   C     0.85311   0.17956   0.51792   0.00000  Uiso   1.00
C612   C     0.91253   0.21165   0.99778   0.00000  Uiso   1.00
C613   C     0.92406   0.23171   0.94932   0.00000  Uiso   1.00
C614   C     0.87873   0.21844   0.91975   0.00000  Uiso   1.00
C615   C     0.84292   0.16147   0.56748   0.00000  Uiso   1.00
C616   C     0.94642   0.20857   0.57725   0.00000  Uiso   1.00
Cu617  Cu    0.77377   0.16105   0.74435   0.00000  Uiso   1.00
Cu618  Cu    0.89290   0.17228   0.75564   0.00000  Uiso   1.00
H619   H     0.98148   0.22172   0.60039   0.00000  Uiso   1.00
H620   H     0.66813   0.05847   0.71753   0.00000  Uiso   1.00
H621   H     0.72789   0.08573   0.66254   0.00000  Uiso   1.00
H622   H     0.98240   0.05928   0.65649   0.00000  Uiso   1.00
H623   H     0.96443   0.10705   0.91588   0.00000  Uiso   1.00
H624   H     0.86827   0.31289   0.85063   0.00000  Uiso   1.00
H625   H     0.84808   0.04285   0.84805   0.00000  Uiso   1.00
H626   H     0.92620   0.03947   0.85125   0.00000  Uiso   1.00
H627   H     0.77062   0.32033   0.73392   0.00000  Uiso   1.00
H628   H     0.96813   0.25824   0.93433   0.00000  Uiso   1.00
H629   H     0.67118   0.24936   0.51187   0.00000  Uiso   1.00
H630   H     0.79986   0.13521   0.58407   0.00000  Uiso   1.00
H631   H     0.72674   0.13113   0.54764   0.00000  Uiso   1.00
H632   H     0.98531   0.10846   0.99446   0.00000  Uiso   1.00
H633   H     0.88860   0.23793   0.88409   0.00000  Uiso   1.00
H634   H     0.97360   0.22783   0.81972   0.00000  Uiso   1.00
N635   N     0.98241   0.18074   0.76416   0.00000  Uiso   1.00
N636   N     0.68426   0.15259   0.73584   0.00000  Uiso   1.00
O637   O     0.79464   0.23807   0.74633   0.00000  Uiso   1.00
O638   O     0.99632   0.13116   0.69381   0.00000  Uiso   1.00
O639   O     0.67242   0.12254   0.89448   0.00000  Uiso   1.00
O640   O     0.90322   0.01794   0.78131   0.00000  Uiso   1.00
O641   O     0.89524   0.24755   0.75586   0.00000  Uiso   1.00
O642   O     0.75848   0.15960   0.81839   0.00000  Uiso   1.00
O643   O     0.85908   0.16908   0.82793   0.00000  Uiso   1.00
O644   O     0.77142   0.08578   0.74413   0.00000  Uiso   1.00
O645   O     0.87203   0.09526   0.75367   0.00000  Uiso   1.00
O646   O     0.80758   0.16425   0.67207   0.00000  Uiso   1.00
O647   O     0.90819   0.17373   0.68160   0.00000  Uiso   1.00
O648   O     0.67256   0.20848   0.80246   0.00000  Uiso   1.00
C649   C     0.18091   0.59986   0.75365   0.00000  Uiso   1.00
C650   C     0.11153   0.49706   0.90387   0.00000  Uiso   1.00
C651   C     0.18652   0.65551   0.76132   0.00000  Uiso   1.00
C652   C     0.13296   0.49874   0.84738   0.00000  Uiso   1.00
C653   C     0.14409   0.34405   0.74782   0.00000  Uiso   1.00
C654   C     0.15145   0.40000   0.74908   0.00000  Uiso   1.00
C655   C     0.20048   0.50349   0.65302   0.00000  Uiso   1.00
C656   C     0.29239   0.55825   0.52713   0.00000  Uiso   1.00
C657   C     0.22081   0.51147   0.59798   0.00000  Uiso   1.00
C658   C     0.04936   0.47139   0.92519   0.00000  Uiso   1.00
C659   C     0.03277   0.46115   0.97740   0.00000  Uiso   1.00
C660   C     0.13927   0.50042   0.98808   0.00000  Uiso   1.00
C661   C     0.07700   0.47409   0.50801   0.00000  Uiso   1.00
C662   C     0.01182   0.41515   0.68275   0.00000  Uiso   1.00
C663   C     0.21824   0.35300   0.83512   0.00000  Uiso   1.00
C664   C     0.15459   0.51620   0.93669   0.00000  Uiso   1.00
C665   C     0.18645   0.51290   0.51792   0.00000  Uiso   1.00
C666   C     0.24586   0.54499   0.99778   0.00000  Uiso   1.00
C667   C     0.25739   0.56505   0.94932   0.00000  Uiso   1.00
C668   C     0.21207   0.55177   0.91975   0.00000  Uiso   1.00
C669   C     0.17625   0.49481   0.56748   0.00000  Uiso   1.00
C670   C     0.27976   0.54190   0.57725   0.00000  Uiso   1.00
Cu671  Cu    0.10710   0.49439   0.74435   0.00000  Uiso   1.00
Cu672  Cu    0.22623   0.50561   0.75564   0.00000  Uiso   1.00
H673   H     0.31481   0.55505   0.60039   0.00000  Uiso   1.00
H674   H     0.00147   0.39180   0.71753   0.00000  Uiso   1.00
H675   H     0.06122   0.41906   0.66254   0.00000  Uiso   1.00
H676   H     0.31573   0.39261   0.65649   0.00000  Uiso   1.00
H677   H     0.29777   0.44038   0.91588   0.00000  Uiso   1.00
H678   H     0.20161   0.64623   0.85063   0.00000  Uiso   1.00
H679   H     0.18141   0.37618   0.84805   0.00000  Uiso   1.00
H680   H     0.25953   0.37281   0.85125   0.00000  Uiso   1.00
H681   H     0.10396   0.65367   0.73392   0.00000  Uiso   1.00
H682   H     0.30146   0.59157   0.93433   0.00000  Uiso   1.00
H683   H     0.00451   0.58270   0.51187   0.00000  Uiso   1.00
H684   H     0.13319   0.46855   0.58407   0.00000  Uiso   1.00
H685   H     0.06007   0.46447   0.54764   0.00000  Uiso   1.00
H686   H     0.31864   0.44179   0.99446   0.00000  Uiso   1.00
H687   H     0.22194   0.57126   0.88409   0.00000  Uiso   1.00
H688   H     0.30694   0.56116   0.81972   0.00000  Uiso   1.00
N689   N     0.31574   0.51407   0.76416   0.00000  Uiso   1.00
N690   N     0.01759   0.48593   0.73584   0.00000  Uiso   1.00
O691   O     0.12797   0.57141   0.74633   0.00000  Uiso   1.00
O692   O     0.32965   0.46449   0.69381   0.00000  Uiso   1.00
O693   O     0.00575   0.45587   0.89448   0.00000  Uiso   1.00
O694   O     0.23655   0.35127   0.78131   0.00000  Uiso   1.00
O695   O     0.22858   0.58089   0.75586   0.00000  Uiso   1.00
O696   O     0.09181   0.49293   0.81839   0.00000  Uiso   1.00
O697   O     0.19242   0.50241   0.82793   0.00000  Uiso   1.00
O698   O     0.10476   0.41911   0.74413   0.00000  Uiso   1.00
O699   O     0.20536   0.42859   0.75367   0.00000  Uiso   1.00
O700   O     0.14092   0.49759   0.67207   0.00000  Uiso   1.00
O701   O     0.24152   0.50707   0.68160   0.00000  Uiso   1.00
O702   O     0.00589   0.54181   0.80246   0.00000  Uiso   1.00
C703   C     0.51424   0.59986   0.75365   0.00000  Uiso   1.00
C704   C     0.44486   0.49706   0.90387   0.00000  Uiso   1.00
C705   C     0.51986   0.65551   0.76132   0.00000  Uiso   1.00
C706   C     0.46630   0.49874   0.84738   0.00000  Uiso   1.00
C707   C     0.47743   0.34405   0.74782   0.00000  Uiso   1.00
C708   C     0.48479   0.40000   0.74908   0.00000  Uiso   1.00
C709   C     0.53381   0.50349   0.65302   0.00000  Uiso   1.00
C710   C     0.62572   0.55825   0.52713   0.00000  Uiso   1.00
C711   C     0.55415   0.51147   0.59798   0.00000  Uiso   1.00
C712   C     0.38270   0.47139   0.92519   0.00000  Uiso   1.00
C713   C     0.36610   0.46115   0.97740   0.00000  Uiso   1.00
C714   C     0.47260   0.50042   0.98808   0.00000  Uiso   1.00
C715   C     0.41034   0.47409   0.50801   0.00000  Uiso   1.00
C716   C     0.34516   0.41515   0.68275   0.00000  Uiso   1.00
C717   C     0.55157   0.35300   0.83512   0.00000  Uiso   1.00
C718   C     0.48793   0.51620   0.93669   0.00000  Uiso   1.00
C719   C     0.51978   0.51290   0.51792   0.00000  Uiso   1.00
C720   C     0.57919   0.54499   0.99778   0.00000  Uiso   1.00
C721   C     0.59072   0.56505   0.94932   0.00000  Uiso   1.00
C722   C     0.54540   0.55177   0.91975   0.00000  Uiso   1.00
C723   C     0.50958   0.49481   0.56748   0.00000  Uiso   1.00
C724   C     0.61309   0.54190   0.57725   0.00000  Uiso   1.00
Cu725  Cu    0.44043   0.49439   0.74435   0.00000  Uiso   1.00
Cu726  Cu    0.55957   0.50561   0.75564   0.00000  Uiso   1.00
H727   H     0.64815   0.55505   0.60039   0.00000  Uiso   1.00
H728   H     0.33480   0.39180   0.71753   0.00000  Uiso   1.00
H729   H     0.39455   0.41906   0.66254   0.00000  Uiso   1.00
H730   H     0.64907   0.39261   0.65649   0.00000  Uiso   1.00
H731   H     0.63110   0.44038   0.91588   0.00000  Uiso   1.00
H732   H     0.53494   0.64623   0.85063   0.00000  Uiso   1.00
H733   H     0.51474   0.37618   0.84805   0.00000  Uiso   1.00
H734   H     0.59287   0.37281   0.85125   0.00000  Uiso   1.00
H735   H     0.43729   0.65367   0.73392   0.00000  Uiso   1.00
H736   H     0.63480   0.59157   0.93433   0.00000  Uiso   1.00
H737   H     0.33784   0.58270   0.51187   0.00000  Uiso   1.00
H738   H     0.46652   0.46855   0.58407   0.00000  Uiso   1.00
H739   H     0.39340   0.46447   0.54764   0.00000  Uiso   1.00
H740   H     0.65198   0.44179   0.99446   0.00000  Uiso   1.00
H741   H     0.55527   0.57126   0.88409   0.00000  Uiso   1.00
H742   H     0.64027   0.56116   0.81972   0.00000  Uiso   1.00
N743   N     0.64908   0.51407   0.76416   0.00000  Uiso   1.00
N744   N     0.35092   0.48593   0.73584   0.00000  Uiso   1.00
O745   O     0.46131   0.57141   0.74633   0.00000  Uiso   1.00
O746   O     0.66298   0.46449   0.69381   0.00000  Uiso   1.00
O747   O     0.33908   0.45587   0.89448   0.00000  Uiso   1.00
O748   O     0.56988   0.35127   0.78131   0.00000  Uiso   1.00
O749   O     0.56191   0.58089   0.75586   0.00000  Uiso   1.00
O750   O     0.42515   0.49293   0.81839   0.00000  Uiso   1.00
O751   O     0.52575   0.50241   0.82793   0.00000  Uiso   1.00
O752   O     0.43809   0.41911   0.74413   0.00000  Uiso   1.00
O753   O     0.53869   0.42859   0.75367   0.00000  Uiso   1.00
O754   O     0.47425   0.49759   0.67207   0.00000  Uiso   1.00
O755   O     0.57485   0.50707   0.68160   0.00000  Uiso   1.00
O756   O     0.33922   0.54181   0.80246   0.00000  Uiso   1.00
C757   C     0.84758   0.59986   0.75365   0.00000  Uiso   1.00
C758   C     0.77819   0.49706   0.90387   0.00000  Uiso   1.00
C759   C     0.85319   0.65551   0.76132   0.00000  Uiso   1.00
C760   C     0.79963   0.49874   0.84738   0.00000  Uiso   1.00
C761   C     0.81076   0.34405   0.74782   0.00000  Uiso   1.00
C762   C     0.81812   0.40000   0.74908   0.00000  Uiso   1.00
C763   C     0.86714   0.50349   0.65302   0.00000  Uiso   1.00
C764   C     0.95906   0.55825   0.52713   0.00000  Uiso   1.00
C765   C     0.88748   0.51147   0.59798   0.00000  Uiso   1.00
C766   C     0.71603   0.47139   0.92519   0.00000  Uiso   1.00
C767   C     0.69943   0.46115   0.97740   0.00000  Uiso   1.00
C768   C     0.80593   0.50042   0.98808   0.00000  Uiso   1.00
C769   C     0.74367   0.47409   0.50801   0.00000  Uiso   1.00
C770   C     0.67849   0.41515   0.68275   0.00000  Uiso   1.00
C771   C     0.88491   0.35300   0.83512   0.00000  Uiso   1.00
C772   C     0.82126   0.51620   0.93669   0.00000  Uiso   1.00
C773   C     0.85311   0.51290   0.51792   0.00000  Uiso   1.00
C774   C     0.91253   0.54499   0.99778   0.00000  Uiso   1.00
C775   C     0.92406   0.56505   0.94932   0.00000  Uiso   1.00
C776   C     0.87873   0.55177   0.91975   0.00000  Uiso   1.00
C777   C     0.84292   0.49481   0.56748   0.00000  Uiso   1.00
C778   C     0.94642   0.54190   0.57725   0.00000  Uiso   1.00
Cu779  Cu    0.77377   0.49439   0.74435   0.00000  Uiso   1.00
Cu780  Cu    0.89290   0.50561   0.75564   0.00000  Uiso   1.00
H781   H     0.98148   0.55505   0.60039   0.00000  Uiso   1.00
H782   H     0.66813   0.39180   0.71753   0.00000  Uiso   1.00
H783   H     0.72789   0.41906   0.66254   0.00000  Uiso   1.00
H784   H     0.98240   0.39261   0.65649   0.00000  Uiso   1.00
H785   H     0.96443   0.44038   0.91588   0.00000  Uiso   1.00
H786   H     0.86827   0.64623   0.85063   0.00000  Uiso   1.00
H787   H     0.84808   0.37618   0.84805   0.00000  Uiso   1.00
H788   H     0.92620   0.37281   0.85125   0.00000  Uiso   1.00
H789   H     0.77062   0.65367   0.73392   0.00000  Uiso   1.00
H790   H     0.96813   0.59157   0.93433   0.00000  Uiso   1.00
H791   H     0.67118   0.58270   0.51187   0.00000  Uiso   1.00
H792   H     0.79986   0.46855   0.58407   0.00000  Uiso   1.00
H793   H     0.72674   0.46447   0.54764   0.00000  Uiso   1.00
H794   H     0.98531   0.44179   0.99446   0.00000  Uiso   1.00
H795   H     0.88860   0.57126   0.88409   0.00000  Uiso   1.00
H796   H     0.97360   0.56116   0.81972   0.00000  Uiso   1.00
N797   N     0.98241   0.51407   0.76416   0.00000  Uiso   1.00
N798   N     0.68426   0.48593   0.73584   0.00000  Uiso   1.00
O799   O     0.79464   0.57141   0.74633   0.00000  Uiso   1.00
O800   O     0.99632   0.46449   0.69381   0.00000  Uiso   1.00
O801   O     0.67242   0.45587   0.89448   0.00000  Uiso   1.00
O802   O     0.90322   0.35127   0.78131   0.00000  Uiso   1.00
O803   O     0.89524   0.58089   0.75586   0.00000  Uiso   1.00
O804   O     0.75848   0.49293   0.81839   0.00000  Uiso   1.00
O805   O     0.85908   0.50241   0.82793   0.00000  Uiso   1.00
O806   O     0.77142   0.41911   0.74413   0.00000  Uiso   1.00
O807   O     0.87203   0.42859   0.75367   0.00000  Uiso   1.00
O808   O     0.80758   0.49759   0.67207   0.00000  Uiso   1.00
O809   O     0.90819   0.50707   0.68160   0.00000  Uiso   1.00
O810   O     0.67256   0.54181   0.80246   0.00000  Uiso   1.00
C811   C     0.18091   0.93319   0.75365   0.00000  Uiso   1.00
C812   C     0.11153   0.83039   0.90387   0.00000  Uiso   1.00
C813   C     0.18652   0.98885   0.76132   0.00000  Uiso   1.00
C814   C     0.13296   0.83207   0.84738   0.00000  Uiso   1.00
C815   C     0.14409   0.67738   0.74782   0.00000  Uiso   1.00
C816   C     0.15145   0.73334   0.74908   0.00000  Uiso   1.00
C817   C     0.20048   0.83682   0.65302   0.00000  Uiso   1.00
C818   C     0.29239   0.89158   0.52713   0.00000  Uiso   1.00
C819   C     0.22081   0.84480   0.59798   0.00000  Uiso   1.00
C820   C     0.04936   0.80473   0.92519   0.00000  Uiso   1.00
C821   C     0.03277   0.79448   0.97740   0.00000  Uiso   1.00
C822   C     0.13927   0.83376   0.98808   0.00000  Uiso   1.00
C823   C     0.07700   0.80742   0.50801   0.00000  Uiso   1.00
C824   C     0.01182   0.74848   0.68275   0.00000  Uiso   1.00
C825   C     0.21824   0.68633   0.83512   0.00000  Uiso   1.00
C826   C     0.15459   0.84954   0.93669   0.00000  Uiso   1.00
C827   C     0.18645   0.84623   0.51792   0.00000  Uiso   1.00
C828   C     0.24586   0.87832   0.99778   0.00000  Uiso   1.00
C829   C     0.25739   0.89838   0.94932   0.00000  Uiso   1.00
C830   C     0.21207   0.88511   0.91975   0.00000  Uiso   1.00
C831   C     0.17625   0.82814   0.56748   0.00000  Uiso   1.00
C832   C     0.27976   0.87523   0.57725   0.00000  Uiso   1.00
Cu833  Cu    0.10710   0.82772   0.74435   0.00000  Uiso   1.00
Cu834  Cu    0.22623   0.83895   0.75564   0.00000  Uiso   1.00
H835   H     0.31481   0.88838   0.60039   0.00000  Uiso   1.00
H836   H     0.00147   0.72513   0.71753   0.00000  Uiso   1.00
H837   H     0.06122   0.75239   0.66254   0.00000  Uiso   1.00
H838   H     0.31573   0.72594   0.65649   0.00000  Uiso   1.00
H839   H     0.29777   0.77372   0.91588   0.00000  Uiso   1.00
H840   H     0.20161   0.97956   0.85063   0.00000  Uiso   1.00
H841   H     0.18141   0.70952   0.84805   0.00000  Uiso   1.00
H842   H     0.25953   0.70614   0.85125   0.00000  Uiso   1.00
H843   H     0.10396   0.98700   0.73392   0.00000  Uiso   1.00
H844   H     0.30146   0.92491   0.93433   0.00000  Uiso   1.00
H845   H     0.00451   0.91603   0.51187   0.00000  Uiso   1.00
H846   H     0.13319   0.80188   0.58407   0.00000  Uiso   1.00
H847   H     0.06007   0.79780   0.54764   0.00000  Uiso   1.00
H848   H     0.31864   0.77513   0.99446   0.00000  Uiso   1.00
H849   H     0.22194   0.90460   0.88409   0.00000  Uiso   1.00
H850   H     0.30694   0.89450   0.81972   0.00000  Uiso   1.00
N851   N     0.31574   0.84741   0.76416   0.00000  Uiso   1.00
N852   N     0.01759   0.81926   0.73584   0.00000  Uiso   1.00
O853   O     0.12797   0.90474   0.74633   0.00000  Uiso   1.00
O854   O     0.32965   0.79783   0.69381   0.00000  Uiso   1.00
O855   O     0.00575   0.78921   0.89448   0.00000  Uiso   1.00
O856   O     0.23655   0.68461   0.78131   0.00000  Uiso   1.00
O857   O     0.22858   0.91422   0.75586   0.00000  Uiso   1.00
O858   O     0.09181   0.82627   0.81839   0.00000  Uiso   1.00
O859   O     0.19242   0.83575   0.82793   0.00000  Uiso   1.00
O860   O     0.10476   0.75245   0.74413   0.00000  Uiso   1.00
O861   O     0.20536   0.76193   0.75367   0.00000  Uiso   1.00
O862   O     0.14092   0.83092   0.67207   0.00000  Uiso   1.00
O863   O     0.24152   0.84040   0.68160   0.00000  Uiso   1.00
O864   O     0.00589   0.87515   0.80246   0.00000  Uiso   1.00
C865   C     0.51424   0.93319   0.75365   0.00000  Uiso   1.00
C866   C     0.44486   0.83039   0.90387   0.00000  Uiso   1.00
C867   C     0.51986   0.98885   0.76132   0.00000  Uiso   1.00
C868   C     0.46630   0.83207   0.84738   0.00000  Uiso   1.00
C869   C     0.47743   0.67738   0.74782   0.00000  Uiso   1.00
C870   C     0.48479   0.73334   0.74908   0.00000  Uiso   1.00
C871   C     0.53381   0.83682   0.65302   0.00000  Uiso   1.00
C872   C     0.62572   0.89158   0.52713   0.00000  Uiso   1.00
C873   C     0.55415   0.84480   0.59798   0.00000  Uiso   1.00
C874   C     0.38270   0.80473   0.92519   0.00000  Uiso   1.00
C875   C     0.36610   0.79448   0.97740   0.00000  Uiso   1.00
C876   C     0.47260   0.83376   0.98808   0.00000  Uiso   1.00
C877   C     0.41034   0.80742   0.50801   0.00000  Uiso   1.00
C878   C     0.34516   0.74848   0.68275   0.00000  Uiso   1.00
C879   C     0.55157   0.68633   0.83512   0.00000  Uiso   1.00
C880   C     0.48793   0.84954   0.93669   0.00000  Uiso   1.00
C881   C     0.51978   0.84623   0.51792   0.00000  Uiso   1.00
C882   C     0.57919   0.87832   0.99778   0.00000  Uiso   1.00
C883   C     0.59072   0.89838   0.94932   0.00000  Uiso   1.00
C884   C     0.54540   0.88511   0.91975   0.00000  Uiso   1.00
C885   C     0.50958   0.82814   0.56748   0.00000  Uiso   1.00
C886   C     0.61309   0.87523   0.57725   0.00000  Uiso   1.00
Cu887  Cu    0.44043   0.82772   0.74435   0.00000  Uiso   1.00
Cu888  Cu    0.55957   0.83895   0.75564   0.00000  Uiso   1.00
H889   H     0.64815   0.88838   0.60039   0.00000  Uiso   1.00
H890   H     0.33480   0.72513   0.71753   0.00000  Uiso   1.00
H891   H     0.39455   0.75239   0.66254   0.00000  Uiso   1.00
H892   H     0.64907   0.72594   0.65649   0.00000  Uiso   1.00
H893   H     0.63110   0.77372   0.91588   0.00000  Uiso   1.00
H894   H     0.53494   0.97956   0.85063   0.00000  Uiso   1.00
H895   H     0.51474   0.70952   0.84805   0.00000  Uiso   1.00
H896   H     0.59287   0.70614   0.85125   0.00000  Uiso   1.00
H897   H     0.43729   0.98700   0.73392   0.00000  Uiso   1.00
H898   H     0.63480   0.92491   0.93433   0.00000  Uiso   1.00
H899   H     0.33784   0.91603   0.51187   0.00000  Uiso   1.00
H900   H     0.46652   0.80188   0.58407   0.00000  Uiso   1.00
H901   H     0.39340   0.79780   0.54764   0.00000  Uiso   1.00
H902   H     0.65198   0.77513   0.99446   0.00000  Uiso   1.00
H903   H     0.55527   0.90460   0.88409   0.00000  Uiso   1.00
H904   H     0.64027   0.89450   0.81972   0.00000  Uiso   1.00
N905   N     0.64908   0.84741   0.76416   0.00000  Uiso   1.00
N906   N     0.35092   0.81926   0.73584   0.00000  Uiso   1.00
O907   O     0.46131   0.90474   0.74633   0.00000  Uiso   1.00
O908   O     0.66298   0.79783   0.69381   0.00000  Uiso   1.00
O909   O     0.33908   0.78921   0.89448   0.00000  Uiso   1.00
O910   O     0.56988   0.68461   0.78131   0.00000  Uiso   1.00
O911   O     0.56191   0.91422   0.75586   0.00000  Uiso   1.00
O912   O     0.42515   0.82627   0.81839   0.00000  Uiso   1.00
O913   O     0.52575   0.83575   0.82793   0.00000  Uiso   1.00
O914   O     0.43809   0.75245   0.74413   0.00000  Uiso   1.00
O915   O     0.53869   0.76193   0.75367   0.00000  Uiso   1.00
O916   O     0.47425   0.83092   0.67207   0.00000  Uiso   1.00
O917   O     0.57485   0.84040   0.68160   0.00000  Uiso   1.00
O918   O     0.33922   0.87515   0.80246   0.00000  Uiso   1.00
C919   C     0.84758   0.93319   0.75365   0.00000  Uiso   1.00
C920   C     0.77819   0.83039   0.90387   0.00000  Uiso   1.00
C921   C     0.85319   0.98885   0.76132   0.00000  Uiso   1.00
C922   C     0.79963   0.83207   0.84738   0.00000  Uiso   1.00
C923   C     0.81076   0.67738   0.74782   0.00000  Uiso   1.00
C924   C     0.81812   0.73334   0.74908   0.00000  Uiso   1.00
C925   C     0.86714   0.83682   0.65302   0.00000  Uiso   1.00
C926   C     0.95906   0.89158   0.52713   0.00000  Uiso   1.00
C927   C     0.88748   0.84480   0.59798   0.00000  Uiso   1.00
C928   C     0.71603   0.80473   0.92519   0.00000  Uiso   1.00
C929   C     0.69943   0.79448   0.97740   0.00000  Uiso   1.00
C930   C     0.80593   0.83376   0.98808   0.00000  Uiso   1.00
C931   C     0.74367   0.80742   0.50801   0.00000  Uiso   1.00
C932   C     0.67849   0.74848   0.68275   0.00000  Uiso   1.00
C933   C     0.88491   0.68633   0.83512   0.00000  Uiso   1.00
C934   C     0.82126   0.84954   0.93669   0.00000  Uiso   1.00
C935   C     0.85311   0.84623   0.51792   0.00000  Uiso   1.00
C936   C     0.91253   0.87832   0.99778   0.00000  Uiso   1.00
C937   C     0.92406   0.89838   0.94932   0.00000  Uiso   1.00
C938   C     0.87873   0.88511   0.91975   0.00000  Uiso   1.00
C939   C     0.84292   0.82814   0.56748   0.00000  Uiso   1.00
C940   C     0.94642   0.87523   0.57725   0.00000  Uiso   1.00
Cu941  Cu    0.77377   0.82772   0.74435   0.00000  Uiso   1.00
Cu942  Cu    0.89290   0.83895   0.75564   0.00000  Uiso   1.00
H943   H     0.98148   0.88838   0.60039   0.00000  Uiso   1.00
H944   H     0.66813   0.72513   0.71753   0.00000  Uiso   1.00
H945   H     0.72789   0.75239   0.66254   0.00000  Uiso   1.00
H946   H     0.98240   0.72594   0.65649   0.00000  Uiso   1.00
H947   H     0.96443   0.77372   0.91588   0.00000  Uiso   1.00
H948   H     0.86827   0.97956   0.85063   0.00000  Uiso   1.00
H949   H     0.84808   0.70952   0.84805   0.00000  Uiso   1.00
H950   H     0.92620   0.70614   0.85125   0.00000  Uiso   1.00
H951   H     0.77062   0.98700   0.73392   0.00000  Uiso   1.00
H952   H     0.96813   0.92491   0.93433   0.00000  Uiso   1.00
H953   H     0.67118   0.91603   0.51187   0.00000  Uiso   1.00
H954   H     0.79986   0.80188   0.58407   0.00000  Uiso   1.00
H955   H     0.72674   0.79780   0.54764   0.00000  Uiso   1.00
H956   H     0.98531   0.77513   0.99446   0.00000  Uiso   1.00
H957   H     0.88860   0.90460   0.88409   0.00000  Uiso   1.00
H958   H     0.97360   0.89450   0.81972   0.00000  Uiso   1.00
N959   N     0.98241   0.84741   0.76416   0.00000  Uiso   1.00
N960   N     0.68426   0.81926   0.73584   0.00000  Uiso   1.00
O961   O     0.79464   0.90474   0.74633   0.00000  Uiso   1.00
O962   O     0.99632   0.79783   0.69381   0.00000  Uiso   1.00
O963   O     0.67242   0.78921   0.89448   0.00000  Uiso   1.00
O964   O     0.90322   0.68461   0.78131   0.00000  Uiso   1.00
O965   O     0.89524   0.91422   0.75586   0.00000  Uiso   1.00
O966   O     0.75848   0.82627   0.81839   0.00000  Uiso   1.00
O967   O     0.85908   0.83575   0.82793   0.00000  Uiso   1.00
O968   O     0.77142   0.75245   0.74413   0.00000  Uiso   1.00
O969   O     0.87203   0.76193   0.75367   0.00000  Uiso   1.00
O970   O     0.80758   0.83092   0.67207   0.00000  Uiso   1.00
O971   O     0.90819   0.84040   0.68160   0.00000  Uiso   1.00
O972   O     0.67256   0.87515   0.80246   0.00000  Uiso   1.00
loop_
_geom_bond_atom_site_label_1
_geom_bond_atom_site_label_2
_geom_bond_distance
_geom_bond_site_symmetry_2
_ccdc_geom_bond_type
C1     O47     1.292   .     A
C1     O43     1.292   .     A
C1     C3      1.432   .     S
C2     C16     1.425   .     A
C2     C4      1.486   .     S
C2     C10     1.415   .     A
C3     C167    1.342   .     S
C3     O208    1.387   .     S
C4     O49     1.304   .     A
C4     O48     1.307   .     A
C5     C6      1.432   .     S
C5     C327    1.342   1_545 S
C5     H357    1.087   1_545 S
C6     O51     1.291   .     A
C6     O50     1.295   .     A
C7     O52     1.298   .     A
C7     O53     1.304   .     A
C7     C9      1.463   .     S
C8     C22     1.394   .     A
C8     C504    1.405   1_554 S
C8     H89     1.084   .     S
C9     C21     1.397   .     A
C9     C22     1.398   .     A
C10    O45     1.382   .     S
C10    C11     1.399   .     A
C11    C499    1.388   .     S
C11    H146    1.084   1_455 S
C12    C16     1.418   .     A
C12    C499    1.414   .     S
C12    C503    1.425   .     S
C13    H37     1.077   .     S
C13    C497    1.388   1_554 S
C13    C498    1.414   1_554 S
C14    H26     1.110   .     S
C14    H27     1.106   .     S
C14    H136    1.109   1_455 S
C14    O152    1.403   1_455 S
C15    H31     1.113   .     S
C15    H32     1.108   .     S
C15    O46     1.410   .     S
C15    H354    1.113   1_545 S
C16    C20     1.412   .     A
C17    C21     1.402   .     A
C17    C498    1.425   1_554 S
C17    C504    1.419   1_554 S
C18    C19     1.391   .     A
C18    C503    1.419   .     S
C18    C494    1.405   .     S
C19    H34     1.084   .     S
C19    C20     1.387   .     A
C20    H39     1.077   .     S
C21    H36     1.076   .     S
C22    H25     1.083   .     S
Cu23   Cu24    2.699   .     S
Cu23   O52     1.920   .     S
Cu23   N42     2.028   .     S
Cu23   O43     1.958   .     S
Cu23   O50     1.956   .     S
Cu23   O48     1.940   .     S
Cu24   N41     2.028   .     S
Cu24   O51     1.958   .     S
Cu24   O49     1.920   .     S
Cu24   O53     1.940   .     S
Cu24   O47     1.956   .     S
H28    C68     1.109   .     S
H29    O99     0.992   .     S
H30    C177    1.113   .     S
H33    C167    1.087   .     S
H35    C116    1.084   1_455 S
H38    C65     1.084   .     S
H40    O108    0.988   .     S
N41    N96     1.284   .     S
N41    O108    1.338   .     S
N42    N149    1.284   1_455 S
N42    O152    1.347   1_455 S
O44    C68     1.403   .     S
O44    N96     1.347   .     S
O45    H137    0.992   1_455 S
O46    C327    1.387   1_545 S
O54    N149    1.338   1_455 S
O54    H148    0.988   1_455 S
C55    O101    1.292   .     A
C55    O97     1.292   .     A
C55    C57     1.432   .     S
C56    C70     1.425   .     A
C56    C58     1.486   .     S
C56    C64     1.415   .     A
C57    C221    1.342   .     S
C57    O262    1.387   .     S
C58    O103    1.304   .     A
C58    O102    1.307   .     A
C59    C60     1.432   .     S
C59    C381    1.342   1_545 S
C59    H411    1.087   1_545 S
C60    O105    1.291   .     A
C60    O104    1.295   .     A
C61    O106    1.298   .     A
C61    O107    1.304   .     A
C61    C63     1.463   .     S
C62    C76     1.394   .     A
C62    C558    1.405   1_554 S
C62    H143    1.084   .     S
C63    C75     1.397   .     A
C63    C76     1.398   .     A
C64    O99     1.382   .     S
C64    C65     1.399   .     A
C65    C553    1.388   .     S
C66    C70     1.418   .     A
C66    C553    1.414   .     S
C66    C557    1.425   .     S
C67    H91     1.077   .     S
C67    C551    1.388   1_554 S
C67    C552    1.414   1_554 S
C68    H80     1.110   .     S
C68    H81     1.106   .     S
C69    H85     1.113   .     S
C69    H86     1.108   .     S
C69    O100    1.410   .     S
C69    H408    1.113   1_545 S
C70    C74     1.412   .     A
C71    C75     1.402   .     A
C71    C552    1.425   1_554 S
C71    C558    1.419   1_554 S
C72    C73     1.391   .     A
C72    C557    1.419   .     S
C72    C548    1.405   .     S
C73    H88     1.084   .     S
C73    C74     1.387   .     A
C74    H93     1.077   .     S
C75    H90     1.076   .     S
C76    H79     1.083   .     S
Cu77   Cu78    2.699   .     S
Cu77   O106    1.920   .     S
Cu77   N96     2.028   .     S
Cu77   O97     1.958   .     S
Cu77   O104    1.956   .     S
Cu77   O102    1.940   .     S
Cu78   N95     2.028   .     S
Cu78   O105    1.958   .     S
Cu78   O103    1.920   .     S
Cu78   O107    1.940   .     S
Cu78   O101    1.956   .     S
H82    C122    1.109   .     S
H83    O153    0.992   .     S
H84    C231    1.113   .     S
H87    C221    1.087   .     S
H92    C119    1.084   .     S
H94    O162    0.988   .     S
N95    N150    1.284   .     S
N95    O162    1.338   .     S
O98    C122    1.403   .     S
O98    N150    1.347   .     S
O100   C381    1.387   1_545 S
C109   O155    1.292   .     A
C109   O151    1.292   .     A
C109   C111    1.432   .     S
C110   C124    1.425   .     A
C110   C112    1.486   .     S
C110   C118    1.415   .     A
C111   C275    1.342   .     S
C111   O316    1.387   .     S
C112   O157    1.304   .     A
C112   O156    1.307   .     A
C113   C114    1.432   .     S
C113   C435    1.342   1_545 S
C113   H465    1.087   1_545 S
C114   O159    1.291   .     A
C114   O158    1.295   .     A
C115   O160    1.298   .     A
C115   O161    1.304   .     A
C115   C117    1.463   .     S
C116   C130    1.394   .     A
C116   C612    1.405   1_554 S
C116   H35     1.084   1_655 S
C117   C129    1.397   .     A
C117   C130    1.398   .     A
C118   O153    1.382   .     S
C118   C119    1.399   .     A
C119   C607    1.388   .     S
C120   C124    1.418   .     A
C120   C607    1.414   .     S
C120   C611    1.425   .     S
C121   H145    1.077   .     S
C121   C605    1.388   1_554 S
C121   C606    1.414   1_554 S
C122   H134    1.110   .     S
C122   H135    1.106   .     S
C123   H139    1.113   .     S
C123   H140    1.108   .     S
C123   O154    1.410   .     S
C123   H462    1.113   1_545 S
C124   C128    1.412   .     A
C125   C129    1.402   .     A
C125   C606    1.425   1_554 S
C125   C612    1.419   1_554 S
C126   C127    1.391   .     A
C126   C611    1.419   .     S
C126   C602    1.405   .     S
C127   H142    1.084   .     S
C127   C128    1.387   .     A
C128   H147    1.077   .     S
C129   H144    1.076   .     S
C130   H133    1.083   .     S
Cu131  Cu132   2.699   .     S
Cu131  O160    1.920   .     S
Cu131  N150    2.028   .     S
Cu131  O151    1.958   .     S
Cu131  O158    1.956   .     S
Cu131  O156    1.940   .     S
Cu132  N149    2.028   .     S
Cu132  O159    1.958   .     S
Cu132  O157    1.920   .     S
Cu132  O161    1.940   .     S
Cu132  O155    1.956   .     S
H136   C14     1.109   1_655 S
H137   O45     0.992   1_655 S
H138   C285    1.113   .     S
H141   C275    1.087   .     S
H146   C11     1.084   1_655 S
H148   O54     0.988   1_655 S
N149   N42     1.284   1_655 S
N149   O54     1.338   1_655 S
O152   C14     1.403   1_655 S
O152   N42     1.347   1_655 S
O154   C435    1.387   1_545 S
C163   O209    1.292   .     A
C163   O205    1.292   .     A
C163   C165    1.432   .     S
C164   C178    1.425   .     A
C164   C166    1.486   .     S
C164   C172    1.415   .     A
C165   C329    1.342   .     S
C165   O370    1.387   .     S
C166   O211    1.304   .     A
C166   O210    1.307   .     A
C167   C168    1.432   .     S
C168   O213    1.291   .     A
C168   O212    1.295   .     A
C169   O214    1.298   .     A
C169   O215    1.304   .     A
C169   C171    1.463   .     S
C170   C184    1.394   .     A
C170   C666    1.405   1_554 S
C170   H251    1.084   .     S
C171   C183    1.397   .     A
C171   C184    1.398   .     A
C172   O207    1.382   .     S
C172   C173    1.399   .     A
C173   C661    1.388   .     S
C173   H308    1.084   1_455 S
C174   C178    1.418   .     A
C174   C661    1.414   .     S
C174   C665    1.425   .     S
C175   H199    1.077   .     S
C175   C659    1.388   1_554 S
C175   C660    1.414   1_554 S
C176   H188    1.110   .     S
C176   H189    1.106   .     S
C176   H298    1.109   1_455 S
C176   O314    1.403   1_455 S
C177   H193    1.113   .     S
C177   H194    1.108   .     S
C177   O208    1.410   .     S
C178   C182    1.412   .     A
C179   C183    1.402   .     A
C179   C660    1.425   1_554 S
C179   C666    1.419   1_554 S
C180   C181    1.391   .     A
C180   C665    1.419   .     S
C180   C656    1.405   .     S
C181   H196    1.084   .     S
C181   C182    1.387   .     A
C182   H201    1.077   .     S
C183   H198    1.076   .     S
C184   H187    1.083   .     S
Cu185  Cu186   2.699   .     S
Cu185  O214    1.920   .     S
Cu185  N204    2.028   .     S
Cu185  O205    1.958   .     S
Cu185  O212    1.956   .     S
Cu185  O210    1.940   .     S
Cu186  N203    2.028   .     S
Cu186  O213    1.958   .     S
Cu186  O211    1.920   .     S
Cu186  O215    1.940   .     S
Cu186  O209    1.956   .     S
H190   C230    1.109   .     S
H191   O261    0.992   .     S
H192   C339    1.113   .     S
H195   C329    1.087   .     S
H197   C278    1.084   1_455 S
H200   C227    1.084   .     S
H202   O270    0.988   .     S
N203   N258    1.284   .     S
N203   O270    1.338   .     S
N204   N311    1.284   1_455 S
N204   O314    1.347   1_455 S
O206   C230    1.403   .     S
O206   N258    1.347   .     S
O207   H299    0.992   1_455 S
O216   N311    1.338   1_455 S
O216   H310    0.988   1_455 S
C217   O263    1.292   .     A
C217   O259    1.292   .     A
C217   C219    1.432   .     S
C218   C232    1.425   .     A
C218   C220    1.486   .     S
C218   C226    1.415   .     A
C219   C383    1.342   .     S
C219   O424    1.387   .     S
C220   O265    1.304   .     A
C220   O264    1.307   .     A
C221   C222    1.432   .     S
C222   O267    1.291   .     A
C222   O266    1.295   .     A
C223   O268    1.298   .     A
C223   O269    1.304   .     A
C223   C225    1.463   .     S
C224   C238    1.394   .     A
C224   C720    1.405   1_554 S
C224   H305    1.084   .     S
C225   C237    1.397   .     A
C225   C238    1.398   .     A
C226   O261    1.382   .     S
C226   C227    1.399   .     A
C227   C715    1.388   .     S
C228   C232    1.418   .     A
C228   C715    1.414   .     S
C228   C719    1.425   .     S
C229   H253    1.077   .     S
C229   C713    1.388   1_554 S
C229   C714    1.414   1_554 S
C230   H242    1.110   .     S
C230   H243    1.106   .     S
C231   H247    1.113   .     S
C231   H248    1.108   .     S
C231   O262    1.410   .     S
C232   C236    1.412   .     A
C233   C237    1.402   .     A
C233   C714    1.425   1_554 S
C233   C720    1.419   1_554 S
C234   C235    1.391   .     A
C234   C719    1.419   .     S
C234   C710    1.405   .     S
C235   H250    1.084   .     S
C235   C236    1.387   .     A
C236   H255    1.077   .     S
C237   H252    1.076   .     S
C238   H241    1.083   .     S
Cu239  Cu240   2.699   .     S
Cu239  O268    1.920   .     S
Cu239  N258    2.028   .     S
Cu239  O259    1.958   .     S
Cu239  O266    1.956   .     S
Cu239  O264    1.940   .     S
Cu240  N257    2.028   .     S
Cu240  O267    1.958   .     S
Cu240  O265    1.920   .     S
Cu240  O269    1.940   .     S
Cu240  O263    1.956   .     S
H244   C284    1.109   .     S
H245   O315    0.992   .     S
H246   C393    1.113   .     S
H249   C383    1.087   .     S
H254   C281    1.084   .     S
H256   O324    0.988   .     S
N257   N312    1.284   .     S
N257   O324    1.338   .     S
O260   C284    1.403   .     S
O260   N312    1.347   .     S
C271   O317    1.292   .     A
C271   O313    1.292   .     A
C271   C273    1.432   .     S
C272   C286    1.425   .     A
C272   C274    1.486   .     S
C272   C280    1.415   .     A
C273   C437    1.342   .     S
C273   O478    1.387   .     S
C274   O319    1.304   .     A
C274   O318    1.307   .     A
C275   C276    1.432   .     S
C276   O321    1.291   .     A
C276   O320    1.295   .     A
C277   O322    1.298   .     A
C277   O323    1.304   .     A
C277   C279    1.463   .     S
C278   C292    1.394   .     A
C278   C774    1.405   1_554 S
C278   H197    1.084   1_655 S
C279   C291    1.397   .     A
C279   C292    1.398   .     A
C280   O315    1.382   .     S
C280   C281    1.399   .     A
C281   C769    1.388   .     S
C282   C286    1.418   .     A
C282   C769    1.414   .     S
C282   C773    1.425   .     S
C283   H307    1.077   .     S
C283   C767    1.388   1_554 S
C283   C768    1.414   1_554 S
C284   H296    1.110   .     S
C284   H297    1.106   .     S
C285   H301    1.113   .     S
C285   H302    1.108   .     S
C285   O316    1.410   .     S
C286   C290    1.412   .     A
C287   C291    1.402   .     A
C287   C768    1.425   1_554 S
C287   C774    1.419   1_554 S
C288   C289    1.391   .     A
C288   C773    1.419   .     S
C288   C764    1.405   .     S
C289   H304    1.084   .     S
C289   C290    1.387   .     A
C290   H309    1.077   .     S
C291   H306    1.076   .     S
C292   H295    1.083   .     S
Cu293  Cu294   2.699   .     S
Cu293  O322    1.920   .     S
Cu293  N312    2.028   .     S
Cu293  O313    1.958   .     S
Cu293  O320    1.956   .     S
Cu293  O318    1.940   .     S
Cu294  N311    2.028   .     S
Cu294  O321    1.958   .     S
Cu294  O319    1.920   .     S
Cu294  O323    1.940   .     S
Cu294  O317    1.956   .     S
H298   C176    1.109   1_655 S
H299   O207    0.992   1_655 S
H300   C447    1.113   .     S
H303   C437    1.087   .     S
H308   C173    1.084   1_655 S
H310   O216    0.988   1_655 S
N311   N204    1.284   1_655 S
N311   O216    1.338   1_655 S
O314   C176    1.403   1_655 S
O314   N204    1.347   1_655 S
C325   O371    1.292   .     A
C325   O367    1.292   .     A
C325   C327    1.432   .     S
C326   C340    1.425   .     A
C326   C328    1.486   .     S
C326   C334    1.415   .     A
C327   C5      1.342   1_565 S
C327   O46     1.387   1_565 S
C328   O373    1.304   .     A
C328   O372    1.307   .     A
C329   C330    1.432   .     S
C330   O375    1.291   .     A
C330   O374    1.295   .     A
C331   O376    1.298   .     A
C331   O377    1.304   .     A
C331   C333    1.463   .     S
C332   C346    1.394   .     A
C332   C828    1.405   1_554 S
C332   H413    1.084   .     S
C333   C345    1.397   .     A
C333   C346    1.398   .     A
C334   O369    1.382   .     S
C334   C335    1.399   .     A
C335   C823    1.388   .     S
C335   H470    1.084   1_455 S
C336   C340    1.418   .     A
C336   C823    1.414   .     S
C336   C827    1.425   .     S
C337   H361    1.077   .     S
C337   C821    1.388   1_554 S
C337   C822    1.414   1_554 S
C338   H350    1.110   .     S
C338   H351    1.106   .     S
C338   H460    1.109   1_455 S
C338   O476    1.403   1_455 S
C339   H355    1.113   .     S
C339   H356    1.108   .     S
C339   O370    1.410   .     S
C340   C344    1.412   .     A
C341   C345    1.402   .     A
C341   C822    1.425   1_554 S
C341   C828    1.419   1_554 S
C342   C343    1.391   .     A
C342   C827    1.419   .     S
C342   C818    1.405   .     S
C343   H358    1.084   .     S
C343   C344    1.387   .     A
C344   H363    1.077   .     S
C345   H360    1.076   .     S
C346   H349    1.083   .     S
Cu347  Cu348   2.699   .     S
Cu347  O376    1.920   .     S
Cu347  N366    2.028   .     S
Cu347  O367    1.958   .     S
Cu347  O374    1.956   .     S
Cu347  O372    1.940   .     S
Cu348  N365    2.028   .     S
Cu348  O375    1.958   .     S
Cu348  O373    1.920   .     S
Cu348  O377    1.940   .     S
Cu348  O371    1.956   .     S
H352   C392    1.109   .     S
H353   O423    0.992   .     S
H354   C15     1.113   1_565 S
H357   C5      1.087   1_565 S
H359   C440    1.084   1_455 S
H362   C389    1.084   .     S
H364   O432    0.988   .     S
N365   N420    1.284   .     S
N365   O432    1.338   .     S
N366   N473    1.284   1_455 S
N366   O476    1.347   1_455 S
O368   C392    1.403   .     S
O368   N420    1.347   .     S
O369   H461    0.992   1_455 S
O378   N473    1.338   1_455 S
O378   H472    0.988   1_455 S
C379   O425    1.292   .     A
C379   O421    1.292   .     A
C379   C381    1.432   .     S
C380   C394    1.425   .     A
C380   C382    1.486   .     S
C380   C388    1.415   .     A
C381   C59     1.342   1_565 S
C381   O100    1.387   1_565 S
C382   O427    1.304   .     A
C382   O426    1.307   .     A
C383   C384    1.432   .     S
C384   O429    1.291   .     A
C384   O428    1.295   .     A
C385   O430    1.298   .     A
C385   O431    1.304   .     A
C385   C387    1.463   .     S
C386   C400    1.394   .     A
C386   C882    1.405   1_554 S
C386   H467    1.084   .     S
C387   C399    1.397   .     A
C387   C400    1.398   .     A
C388   O423    1.382   .     S
C388   C389    1.399   .     A
C389   C877    1.388   .     S
C390   C394    1.418   .     A
C390   C877    1.414   .     S
C390   C881    1.425   .     S
C391   H415    1.077   .     S
C391   C875    1.388   1_554 S
C391   C876    1.414   1_554 S
C392   H404    1.110   .     S
C392   H405    1.106   .     S
C393   H409    1.113   .     S
C393   H410    1.108   .     S
C393   O424    1.410   .     S
C394   C398    1.412   .     A
C395   C399    1.402   .     A
C395   C876    1.425   1_554 S
C395   C882    1.419   1_554 S
C396   C397    1.391   .     A
C396   C881    1.419   .     S
C396   C872    1.405   .     S
C397   H412    1.084   .     S
C397   C398    1.387   .     A
C398   H417    1.077   .     S
C399   H414    1.076   .     S
C400   H403    1.083   .     S
Cu401  Cu402   2.699   .     S
Cu401  O430    1.920   .     S
Cu401  N420    2.028   .     S
Cu401  O421    1.958   .     S
Cu401  O428    1.956   .     S
Cu401  O426    1.940   .     S
Cu402  N419    2.028   .     S
Cu402  O429    1.958   .     S
Cu402  O427    1.920   .     S
Cu402  O431    1.940   .     S
Cu402  O425    1.956   .     S
H406   C446    1.109   .     S
H407   O477    0.992   .     S
H408   C69     1.113   1_565 S
H411   C59     1.087   1_565 S
H416   C443    1.084   .     S
H418   O486    0.988   .     S
N419   N474    1.284   .     S
N419   O486    1.338   .     S
O422   C446    1.403   .     S
O422   N474    1.347   .     S
C433   O479    1.292   .     A
C433   O475    1.292   .     A
C433   C435    1.432   .     S
C434   C448    1.425   .     A
C434   C436    1.486   .     S
C434   C442    1.415   .     A
C435   C113    1.342   1_565 S
C435   O154    1.387   1_565 S
C436   O481    1.304   .     A
C436   O480    1.307   .     A
C437   C438    1.432   .     S
C438   O483    1.291   .     A
C438   O482    1.295   .     A
C439   O484    1.298   .     A
C439   O485    1.304   .     A
C439   C441    1.463   .     S
C440   C454    1.394   .     A
C440   C936    1.405   1_554 S
C440   H359    1.084   1_655 S
C441   C453    1.397   .     A
C441   C454    1.398   .     A
C442   O477    1.382   .     S
C442   C443    1.399   .     A
C443   C931    1.388   .     S
C444   C448    1.418   .     A
C444   C931    1.414   .     S
C444   C935    1.425   .     S
C445   H469    1.077   .     S
C445   C929    1.388   1_554 S
C445   C930    1.414   1_554 S
C446   H458    1.110   .     S
C446   H459    1.106   .     S
C447   H463    1.113   .     S
C447   H464    1.108   .     S
C447   O478    1.410   .     S
C448   C452    1.412   .     A
C449   C453    1.402   .     A
C449   C930    1.425   1_554 S
C449   C936    1.419   1_554 S
C450   C451    1.391   .     A
C450   C935    1.419   .     S
C450   C926    1.405   .     S
C451   H466    1.084   .     S
C451   C452    1.387   .     A
C452   H471    1.077   .     S
C453   H468    1.076   .     S
C454   H457    1.083   .     S
Cu455  Cu456   2.699   .     S
Cu455  O484    1.920   .     S
Cu455  N474    2.028   .     S
Cu455  O475    1.958   .     S
Cu455  O482    1.956   .     S
Cu455  O480    1.940   .     S
Cu456  N473    2.028   .     S
Cu456  O483    1.958   .     S
Cu456  O481    1.920   .     S
Cu456  O485    1.940   .     S
Cu456  O479    1.956   .     S
H460   C338    1.109   1_655 S
H461   O369    0.992   1_655 S
H462   C123    1.113   1_565 S
H465   C113    1.087   1_565 S
H470   C335    1.084   1_655 S
H472   O378    0.988   1_655 S
N473   N366    1.284   1_655 S
N473   O378    1.338   1_655 S
O476   C338    1.403   1_655 S
O476   N366    1.347   1_655 S
C487   O533    1.292   .     A
C487   O529    1.292   .     A
C487   C489    1.432   .     S
C488   C502    1.425   .     A
C488   C490    1.486   .     S
C488   C496    1.415   .     A
C489   C653    1.342   .     S
C489   O694    1.387   .     S
C490   O535    1.304   .     A
C490   O534    1.307   .     A
C491   C492    1.432   .     S
C491   C813    1.342   1_545 S
C491   H843    1.087   1_545 S
C492   O537    1.291   .     A
C492   O536    1.295   .     A
C493   O538    1.298   .     A
C493   O539    1.304   .     A
C493   C495    1.463   .     S
C494   C508    1.394   .     A
C494   H575    1.084   .     S
C495   C507    1.397   .     A
C495   C508    1.398   .     A
C496   O531    1.382   .     S
C496   C497    1.399   .     A
C497   C13     1.388   1_556 S
C497   H632    1.084   1_455 S
C498   C502    1.418   .     A
C498   C13     1.414   1_556 S
C498   C17     1.425   1_556 S
C499   H523    1.077   .     S
C500   H512    1.110   .     S
C500   H513    1.106   .     S
C500   H622    1.109   1_455 S
C500   O638    1.403   1_455 S
C501   H517    1.113   .     S
C501   H518    1.108   .     S
C501   O532    1.410   .     S
C501   H840    1.113   1_545 S
C502   C506    1.412   .     A
C503   C507    1.402   .     A
C504   C505    1.391   .     A
C504   C17     1.419   1_556 S
C504   C8      1.405   1_556 S
C505   H520    1.084   .     S
C505   C506    1.387   .     A
C506   H525    1.077   .     S
C507   H522    1.076   .     S
C508   H511    1.083   .     S
Cu509  Cu510   2.699   .     S
Cu509  O538    1.920   .     S
Cu509  N528    2.028   .     S
Cu509  O529    1.958   .     S
Cu509  O536    1.956   .     S
Cu509  O534    1.940   .     S
Cu510  N527    2.028   .     S
Cu510  O537    1.958   .     S
Cu510  O535    1.920   .     S
Cu510  O539    1.940   .     S
Cu510  O533    1.956   .     S
H514   C554    1.109   .     S
H515   O585    0.992   .     S
H516   C663    1.113   .     S
H519   C653    1.087   .     S
H521   C602    1.084   1_455 S
H524   C551    1.084   .     S
H526   O594    0.988   .     S
N527   N582    1.284   .     S
N527   O594    1.338   .     S
N528   N635    1.284   1_455 S
N528   O638    1.347   1_455 S
O530   C554    1.403   .     S
O530   N582    1.347   .     S
O531   H623    0.992   1_455 S
O532   C813    1.387   1_545 S
O540   N635    1.338   1_455 S
O540   H634    0.988   1_455 S
C541   O587    1.292   .     A
C541   O583    1.292   .     A
C541   C543    1.432   .     S
C542   C556    1.425   .     A
C542   C544    1.486   .     S
C542   C550    1.415   .     A
C543   C707    1.342   .     S
C543   O748    1.387   .     S
C544   O589    1.304   .     A
C544   O588    1.307   .     A
C545   C546    1.432   .     S
C545   C867    1.342   1_545 S
C545   H897    1.087   1_545 S
C546   O591    1.291   .     A
C546   O590    1.295   .     A
C547   O592    1.298   .     A
C547   O593    1.304   .     A
C547   C549    1.463   .     S
C548   C562    1.394   .     A
C548   H629    1.084   .     S
C549   C561    1.397   .     A
C549   C562    1.398   .     A
C550   O585    1.382   .     S
C550   C551    1.399   .     A
C551   C67     1.388   1_556 S
C552   C556    1.418   .     A
C552   C67     1.414   1_556 S
C552   C71     1.425   1_556 S
C553   H577    1.077   .     S
C554   H566    1.110   .     S
C554   H567    1.106   .     S
C555   H571    1.113   .     S
C555   H572    1.108   .     S
C555   O586    1.410   .     S
C555   H894    1.113   1_545 S
C556   C560    1.412   .     A
C557   C561    1.402   .     A
C558   C559    1.391   .     A
C558   C71     1.419   1_556 S
C558   C62     1.405   1_556 S
C559   H574    1.084   .     S
C559   C560    1.387   .     A
C560   H579    1.077   .     S
C561   H576    1.076   .     S
C562   H565    1.083   .     S
Cu563  Cu564   2.699   .     S
Cu563  O592    1.920   .     S
Cu563  N582    2.028   .     S
Cu563  O583    1.958   .     S
Cu563  O590    1.956   .     S
Cu563  O588    1.940   .     S
Cu564  N581    2.028   .     S
Cu564  O591    1.958   .     S
Cu564  O589    1.920   .     S
Cu564  O593    1.940   .     S
Cu564  O587    1.956   .     S
H568   C608    1.109   .     S
H569   O639    0.992   .     S
H570   C717    1.113   .     S
H573   C707    1.087   .     S
H578   C605    1.084   .     S
H580   O648    0.988   .     S
N581   N636    1.284   .     S
N581   O648    1.338   .     S
O584   C608    1.403   .     S
O584   N636    1.347   .     S
O586   C867    1.387   1_545 S
C595   O641    1.292   .     A
C595   O637    1.292   .     A
C595   C597    1.432   .     S
C596   C610    1.425   .     A
C596   C598    1.486   .     S
C596   C604    1.415   .     A
C597   C761    1.342   .     S
C597   O802    1.387   .     S
C598   O643    1.304   .     A
C598   O642    1.307   .     A
C599   C600    1.432   .     S
C599   C921    1.342   1_545 S
C599   H951    1.087   1_545 S
C600   O645    1.291   .     A
C600   O644    1.295   .     A
C601   O646    1.298   .     A
C601   O647    1.304   .     A
C601   C603    1.463   .     S
C602   C616    1.394   .     A
C602   H521    1.084   1_655 S
C603   C615    1.397   .     A
C603   C616    1.398   .     A
C604   O639    1.382   .     S
C604   C605    1.399   .     A
C605   C121    1.388   1_556 S
C606   C610    1.418   .     A
C606   C121    1.414   1_556 S
C606   C125    1.425   1_556 S
C607   H631    1.077   .     S
C608   H620    1.110   .     S
C608   H621    1.106   .     S
C609   H625    1.113   .     S
C609   H626    1.108   .     S
C609   O640    1.410   .     S
C609   H948    1.113   1_545 S
C610   C614    1.412   .     A
C611   C615    1.402   .     A
C612   C613    1.391   .     A
C612   C125    1.419   1_556 S
C612   C116    1.405   1_556 S
C613   H628    1.084   .     S
C613   C614    1.387   .     A
C614   H633    1.077   .     S
C615   H630    1.076   .     S
C616   H619    1.083   .     S
Cu617  Cu618   2.699   .     S
Cu617  O646    1.920   .     S
Cu617  N636    2.028   .     S
Cu617  O637    1.958   .     S
Cu617  O644    1.956   .     S
Cu617  O642    1.940   .     S
Cu618  N635    2.028   .     S
Cu618  O645    1.958   .     S
Cu618  O643    1.920   .     S
Cu618  O647    1.940   .     S
Cu618  O641    1.956   .     S
H622   C500    1.109   1_655 S
H623   O531    0.992   1_655 S
H624   C771    1.113   .     S
H627   C761    1.087   .     S
H632   C497    1.084   1_655 S
H634   O540    0.988   1_655 S
N635   N528    1.284   1_655 S
N635   O540    1.338   1_655 S
O638   C500    1.403   1_655 S
O638   N528    1.347   1_655 S
O640   C921    1.387   1_545 S
C649   O695    1.292   .     A
C649   O691    1.292   .     A
C649   C651    1.432   .     S
C650   C664    1.425   .     A
C650   C652    1.486   .     S
C650   C658    1.415   .     A
C651   C815    1.342   .     S
C651   O856    1.387   .     S
C652   O697    1.304   .     A
C652   O696    1.307   .     A
C653   C654    1.432   .     S
C654   O699    1.291   .     A
C654   O698    1.295   .     A
C655   O700    1.298   .     A
C655   O701    1.304   .     A
C655   C657    1.463   .     S
C656   C670    1.394   .     A
C656   H737    1.084   .     S
C657   C669    1.397   .     A
C657   C670    1.398   .     A
C658   O693    1.382   .     S
C658   C659    1.399   .     A
C659   C175    1.388   1_556 S
C659   H794    1.084   1_455 S
C660   C664    1.418   .     A
C660   C175    1.414   1_556 S
C660   C179    1.425   1_556 S
C661   H685    1.077   .     S
C662   H674    1.110   .     S
C662   H675    1.106   .     S
C662   H784    1.109   1_455 S
C662   O800    1.403   1_455 S
C663   H679    1.113   .     S
C663   H680    1.108   .     S
C663   O694    1.410   .     S
C664   C668    1.412   .     A
C665   C669    1.402   .     A
C666   C667    1.391   .     A
C666   C179    1.419   1_556 S
C666   C170    1.405   1_556 S
C667   H682    1.084   .     S
C667   C668    1.387   .     A
C668   H687    1.077   .     S
C669   H684    1.076   .     S
C670   H673    1.083   .     S
Cu671  Cu672   2.699   .     S
Cu671  O700    1.920   .     S
Cu671  N690    2.028   .     S
Cu671  O691    1.958   .     S
Cu671  O698    1.956   .     S
Cu671  O696    1.940   .     S
Cu672  N689    2.028   .     S
Cu672  O699    1.958   .     S
Cu672  O697    1.920   .     S
Cu672  O701    1.940   .     S
Cu672  O695    1.956   .     S
H676   C716    1.109   .     S
H677   O747    0.992   .     S
H678   C825    1.113   .     S
H681   C815    1.087   .     S
H683   C764    1.084   1_455 S
H686   C713    1.084   .     S
H688   O756    0.988   .     S
N689   N744    1.284   .     S
N689   O756    1.338   .     S
N690   N797    1.284   1_455 S
N690   O800    1.347   1_455 S
O692   C716    1.403   .     S
O692   N744    1.347   .     S
O693   H785    0.992   1_455 S
O702   N797    1.338   1_455 S
O702   H796    0.988   1_455 S
C703   O749    1.292   .     A
C703   O745    1.292   .     A
C703   C705    1.432   .     S
C704   C718    1.425   .     A
C704   C706    1.486   .     S
C704   C712    1.415   .     A
C705   C869    1.342   .     S
C705   O910    1.387   .     S
C706   O751    1.304   .     A
C706   O750    1.307   .     A
C707   C708    1.432   .     S
C708   O753    1.291   .     A
C708   O752    1.295   .     A
C709   O754    1.298   .     A
C709   O755    1.304   .     A
C709   C711    1.463   .     S
C710   C724    1.394   .     A
C710   H791    1.084   .     S
C711   C723    1.397   .     A
C711   C724    1.398   .     A
C712   O747    1.382   .     S
C712   C713    1.399   .     A
C713   C229    1.388   1_556 S
C714   C718    1.418   .     A
C714   C229    1.414   1_556 S
C714   C233    1.425   1_556 S
C715   H739    1.077   .     S
C716   H728    1.110   .     S
C716   H729    1.106   .     S
C717   H733    1.113   .     S
C717   H734    1.108   .     S
C717   O748    1.410   .     S
C718   C722    1.412   .     A
C719   C723    1.402   .     A
C720   C721    1.391   .     A
C720   C233    1.419   1_556 S
C720   C224    1.405   1_556 S
C721   H736    1.084   .     S
C721   C722    1.387   .     A
C722   H741    1.077   .     S
C723   H738    1.076   .     S
C724   H727    1.083   .     S
Cu725  Cu726   2.699   .     S
Cu725  O754    1.920   .     S
Cu725  N744    2.028   .     S
Cu725  O745    1.958   .     S
Cu725  O752    1.956   .     S
Cu725  O750    1.940   .     S
Cu726  N743    2.028   .     S
Cu726  O753    1.958   .     S
Cu726  O751    1.920   .     S
Cu726  O755    1.940   .     S
Cu726  O749    1.956   .     S
H730   C770    1.109   .     S
H731   O801    0.992   .     S
H732   C879    1.113   .     S
H735   C869    1.087   .     S
H740   C767    1.084   .     S
H742   O810    0.988   .     S
N743   N798    1.284   .     S
N743   O810    1.338   .     S
O746   C770    1.403   .     S
O746   N798    1.347   .     S
C757   O803    1.292   .     A
C757   O799    1.292   .     A
C757   C759    1.432   .     S
C758   C772    1.425   .     A
C758   C760    1.486   .     S
C758   C766    1.415   .     A
C759   C923    1.342   .     S
C759   O964    1.387   .     S
C760   O805    1.304   .     A
C760   O804    1.307   .     A
C761   C762    1.432   .     S
C762   O807    1.291   .     A
C762   O806    1.295   .     A
C763   O808    1.298   .     A
C763   O809    1.304   .     A
C763   C765    1.463   .     S
C764   C778    1.394   .     A
C764   H683    1.084   1_655 S
C765   C777    1.397   .     A
C765   C778    1.398   .     A
C766   O801    1.382   .     S
C766   C767    1.399   .     A
C767   C283    1.388   1_556 S
C768   C772    1.418   .     A
C768   C283    1.414   1_556 S
C768   C287    1.425   1_556 S
C769   H793    1.077   .     S
C770   H782    1.110   .     S
C770   H783    1.106   .     S
C771   H787    1.113   .     S
C771   H788    1.108   .     S
C771   O802    1.410   .     S
C772   C776    1.412   .     A
C773   C777    1.402   .     A
C774   C775    1.391   .     A
C774   C287    1.419   1_556 S
C774   C278    1.405   1_556 S
C775   H790    1.084   .     S
C775   C776    1.387   .     A
C776   H795    1.077   .     S
C777   H792    1.076   .     S
C778   H781    1.083   .     S
Cu779  Cu780   2.699   .     S
Cu779  O808    1.920   .     S
Cu779  N798    2.028   .     S
Cu779  O799    1.958   .     S
Cu779  O806    1.956   .     S
Cu779  O804    1.940   .     S
Cu780  N797    2.028   .     S
Cu780  O807    1.958   .     S
Cu780  O805    1.920   .     S
Cu780  O809    1.940   .     S
Cu780  O803    1.956   .     S
H784   C662    1.109   1_655 S
H785   O693    0.992   1_655 S
H786   C933    1.113   .     S
H789   C923    1.087   .     S
H794   C659    1.084   1_655 S
H796   O702    0.988   1_655 S
N797   N690    1.284   1_655 S
N797   O702    1.338   1_655 S
O800   C662    1.403   1_655 S
O800   N690    1.347   1_655 S
C811   O857    1.292   .     A
C811   O853    1.292   .     A
C811   C813    1.432   .     S
C812   C826    1.425   .     A
C812   C814    1.486   .     S
C812   C820    1.415   .     A
C813   C491    1.342   1_565 S
C813   O532    1.387   1_565 S
C814   O859    1.304   .     A
C814   O858    1.307   .     A
C815   C816    1.432   .     S
C816   O861    1.291   .     A
C816   O860    1.295   .     A
C817   O862    1.298   .     A
C817   O863    1.304   .     A
C817   C819    1.463   .     S
C818   C832    1.394   .     A
C818   H899    1.084   .     S
C819   C831    1.397   .     A
C819   C832    1.398   .     A
C820   O855    1.382   .     S
C820   C821    1.399   .     A
C821   C337    1.388   1_556 S
C821   H956    1.084   1_455 S
C822   C826    1.418   .     A
C822   C337    1.414   1_556 S
C822   C341    1.425   1_556 S
C823   H847    1.077   .     S
C824   H836    1.110   .     S
C824   H837    1.106   .     S
C824   H946    1.109   1_455 S
C824   O962    1.403   1_455 S
C825   H841    1.113   .     S
C825   H842    1.108   .     S
C825   O856    1.410   .     S
C826   C830    1.412   .     A
C827   C831    1.402   .     A
C828   C829    1.391   .     A
C828   C341    1.419   1_556 S
C828   C332    1.405   1_556 S
C829   H844    1.084   .     S
C829   C830    1.387   .     A
C830   H849    1.077   .     S
C831   H846    1.076   .     S
C832   H835    1.083   .     S
Cu833  Cu834   2.699   .     S
Cu833  O862    1.920   .     S
Cu833  N852    2.028   .     S
Cu833  O853    1.958   .     S
Cu833  O860    1.956   .     S
Cu833  O858    1.940   .     S
Cu834  N851    2.028   .     S
Cu834  O861    1.958   .     S
Cu834  O859    1.920   .     S
Cu834  O863    1.940   .     S
Cu834  O857    1.956   .     S
H838   C878    1.109   .     S
H839   O909    0.992   .     S
H840   C501    1.113   1_565 S
H843   C491    1.087   1_565 S
H845   C926    1.084   1_455 S
H848   C875    1.084   .     S
H850   O918    0.988   .     S
N851   N906    1.284   .     S
N851   O918    1.338   .     S
N852   N959    1.284   1_455 S
N852   O962    1.347   1_455 S
O854   C878    1.403   .     S
O854   N906    1.347   .     S
O855   H947    0.992   1_455 S
O864   N959    1.338   1_455 S
O864   H958    0.988   1_455 S
C865   O911    1.292   .     A
C865   O907    1.292   .     A
C865   C867    1.432   .     S
C866   C880    1.425   .     A
C866   C868    1.486   .     S
C866   C874    1.415   .     A
C867   C545    1.342   1_565 S
C867   O586    1.387   1_565 S
C868   O913    1.304   .     A
C868   O912    1.307   .     A
C869   C870    1.432   .     S
C870   O915    1.291   .     A
C870   O914    1.295   .     A
C871   O916    1.298   .     A
C871   O917    1.304   .     A
C871   C873    1.463   .     S
C872   C886    1.394   .     A
C872   H953    1.084   .     S
C873   C885    1.397   .     A
C873   C886    1.398   .     A
C874   O909    1.382   .     S
C874   C875    1.399   .     A
C875   C391    1.388   1_556 S
C876   C880    1.418   .     A
C876   C391    1.414   1_556 S
C876   C395    1.425   1_556 S
C877   H901    1.077   .     S
C878   H890    1.110   .     S
C878   H891    1.106   .     S
C879   H895    1.113   .     S
C879   H896    1.108   .     S
C879   O910    1.410   .     S
C880   C884    1.412   .     A
C881   C885    1.402   .     A
C882   C883    1.391   .     A
C882   C395    1.419   1_556 S
C882   C386    1.405   1_556 S
C883   H898    1.084   .     S
C883   C884    1.387   .     A
C884   H903    1.077   .     S
C885   H900    1.076   .     S
C886   H889    1.083   .     S
Cu887  Cu888   2.699   .     S
Cu887  O916    1.920   .     S
Cu887  N906    2.028   .     S
Cu887  O907    1.958   .     S
Cu887  O914    1.956   .     S
Cu887  O912    1.940   .     S
Cu888  N905    2.028   .     S
Cu888  O915    1.958   .     S
Cu888  O913    1.920   .     S
Cu888  O917    1.940   .     S
Cu888  O911    1.956   .     S
H892   C932    1.109   .     S
H893   O963    0.992   .     S
H894   C555    1.113   1_565 S
H897   C545    1.087   1_565 S
H902   C929    1.084   .     S
H904   O972    0.988   .     S
N905   N960    1.284   .     S
N905   O972    1.338   .     S
O908   C932    1.403   .     S
O908   N960    1.347   .     S
C919   O965    1.292   .     A
C919   O961    1.292   .     A
C919   C921    1.432   .     S
C920   C934    1.425   .     A
C920   C922    1.486   .     S
C920   C928    1.415   .     A
C921   C599    1.342   1_565 S
C921   O640    1.387   1_565 S
C922   O967    1.304   .     A
C922   O966    1.307   .     A
C923   C924    1.432   .     S
C924   O969    1.291   .     A
C924   O968    1.295   .     A
C925   O970    1.298   .     A
C925   O971    1.304   .     A
C925   C927    1.463   .     S
C926   C940    1.394   .     A
C926   H845    1.084   1_655 S
C927   C939    1.397   .     A
C927   C940    1.398   .     A
C928   O963    1.382   .     S
C928   C929    1.399   .     A
C929   C445    1.388   1_556 S
C930   C934    1.418   .     A
C930   C445    1.414   1_556 S
C930   C449    1.425   1_556 S
C931   H955    1.077   .     S
C932   H944    1.110   .     S
C932   H945    1.106   .     S
C933   H949    1.113   .     S
C933   H950    1.108   .     S
C933   O964    1.410   .     S
C934   C938    1.412   .     A
C935   C939    1.402   .     A
C936   C937    1.391   .     A
C936   C449    1.419   1_556 S
C936   C440    1.405   1_556 S
C937   H952    1.084   .     S
C937   C938    1.387   .     A
C938   H957    1.077   .     S
C939   H954    1.076   .     S
C940   H943    1.083   .     S
Cu941  Cu942   2.699   .     S
Cu941  O970    1.920   .     S
Cu941  N960    2.028   .     S
Cu941  O961    1.958   .     S
Cu941  O968    1.956   .     S
Cu941  O966    1.940   .     S
Cu942  N959    2.028   .     S
Cu942  O969    1.958   .     S
Cu942  O967    1.920   .     S
Cu942  O971    1.940   .     S
Cu942  O965    1.956   .     S
H946   C824    1.109   1_655 S
H947   O855    0.992   1_655 S
H948   C609    1.113   1_565 S
H951   C599    1.087   1_565 S
H956   C821    1.084   1_655 S
H958   O864    0.988   1_655 S
N959   N852    1.284   1_655 S
N959   O864    1.338   1_655 S
O962   C824    1.403   1_655 S
O962   N852    1.347   1_655 S
