data_str_m2_o1_o5_pcu_sym.28
_audit_creation_date              2020-01-03
_audit_creation_method            'Materials Studio'
_symmetry_space_group_name_H-M    'P1'
_symmetry_Int_Tables_number       1
_symmetry_cell_setting            triclinic
loop_
_symmetry_equiv_pos_as_xyz
  x,y,z
_cell_length_a                    32.5032
_cell_length_b                    28.5853
_cell_length_c                    27.2533
_cell_angle_alpha                 89.9914
_cell_angle_beta                  90.1848
_cell_angle_gamma                 90.0093
loop_
_atom_site_label
_atom_site_type_symbol
_atom_site_fract_x
_atom_site_fract_y
_atom_site_fract_z
_atom_site_U_iso_or_equiv
_atom_site_adp_type
_atom_site_occupancy
C1     C     0.08739   0.16667   0.16663   0.00000  Uiso   1.00
C2     C     0.02137   0.20447   0.18722   0.00000  Uiso   1.00
C3     C     0.29055   0.16667   0.16669   0.00000  Uiso   1.00
C4     C     0.04278   0.16667   0.16664   0.00000  Uiso   1.00
C5     C     0.14066   0.02479   0.13668   0.00000  Uiso   1.00
C6     C     0.19268   0.30854   0.19666   0.00000  Uiso   1.00
C7     C     0.19269   0.02479   0.19665   0.00000  Uiso   1.00
C8     C     0.14065   0.30854   0.13669   0.00000  Uiso   1.00
C9     C     0.24594   0.16667   0.16670   0.00000  Uiso   1.00
C10    C     0.16665   0.16667   0.07353   0.00000  Uiso   1.00
C11    C     0.16669   0.16667   0.25980   0.00000  Uiso   1.00
C12    C     0.16666   0.16667   0.02184   0.00000  Uiso   1.00
C13    C     0.16667   0.16666   0.31149   0.00000  Uiso   1.00
C14    C     0.02123   0.12887   0.14608   0.00000  Uiso   1.00
C15    C     0.31210   0.20447   0.18726   0.00000  Uiso   1.00
C16    C     0.31196   0.12886   0.14611   0.00000  Uiso   1.00
Cu17   Cu    0.16667   0.21355   0.16667   0.00000  Uiso   1.00
Cu18   Cu    0.16667   0.11978   0.16667   0.00000  Uiso   1.00
F19    F     0.04128   0.09248   0.12479   0.00000  Uiso   1.00
F20    F     0.29206   0.24085   0.20854   0.00000  Uiso   1.00
F21    F     0.29177   0.09246   0.12488   0.00000  Uiso   1.00
F22    F     0.04156   0.24087   0.20846   0.00000  Uiso   1.00
H23    H     0.11983   0.04345   0.11261   0.00000  Uiso   1.00
H24    H     0.21350   0.28989   0.22072   0.00000  Uiso   1.00
H25    H     0.21354   0.04346   0.22068   0.00000  Uiso   1.00
H26    H     0.11980   0.28988   0.11266   0.00000  Uiso   1.00
N27    N     0.16667   0.28402   0.16667   0.00000  Uiso   1.00
N28    N     0.16667   0.04931   0.16667   0.00000  Uiso   1.00
O29    O     0.10655   0.20625   0.16666   0.00000  Uiso   1.00
O30    O     0.22679   0.12709   0.16667   0.00000  Uiso   1.00
O31    O     0.22679   0.20625   0.16667   0.00000  Uiso   1.00
O32    O     0.10655   0.12709   0.16666   0.00000  Uiso   1.00
O33    O     0.16667   0.20625   0.09613   0.00000  Uiso   1.00
O34    O     0.16667   0.12708   0.23720   0.00000  Uiso   1.00
O35    O     0.16667   0.20625   0.23720   0.00000  Uiso   1.00
O36    O     0.16667   0.12708   0.09613   0.00000  Uiso   1.00
C37    C     0.42072   0.16667   0.16663   0.00000  Uiso   1.00
C38    C     0.35470   0.20447   0.18722   0.00000  Uiso   1.00
C39    C     0.62388   0.16667   0.16669   0.00000  Uiso   1.00
C40    C     0.37612   0.16667   0.16664   0.00000  Uiso   1.00
C41    C     0.47399   0.02479   0.13668   0.00000  Uiso   1.00
C42    C     0.52601   0.30854   0.19666   0.00000  Uiso   1.00
C43    C     0.52602   0.02479   0.19665   0.00000  Uiso   1.00
C44    C     0.47398   0.30854   0.13669   0.00000  Uiso   1.00
C45    C     0.57928   0.16667   0.16670   0.00000  Uiso   1.00
C46    C     0.49998   0.16667   0.07353   0.00000  Uiso   1.00
C47    C     0.50002   0.16667   0.25980   0.00000  Uiso   1.00
C48    C     0.49999   0.16667   0.02184   0.00000  Uiso   1.00
C49    C     0.50001   0.16666   0.31149   0.00000  Uiso   1.00
C50    C     0.35456   0.12887   0.14608   0.00000  Uiso   1.00
C51    C     0.64544   0.20447   0.18726   0.00000  Uiso   1.00
C52    C     0.64530   0.12886   0.14611   0.00000  Uiso   1.00
Cu53   Cu    0.50000   0.21355   0.16667   0.00000  Uiso   1.00
Cu54   Cu    0.50000   0.11978   0.16667   0.00000  Uiso   1.00
F55    F     0.37461   0.09248   0.12479   0.00000  Uiso   1.00
F56    F     0.62539   0.24085   0.20854   0.00000  Uiso   1.00
F57    F     0.62511   0.09246   0.12488   0.00000  Uiso   1.00
F58    F     0.37489   0.24087   0.20846   0.00000  Uiso   1.00
H59    H     0.45317   0.04345   0.11261   0.00000  Uiso   1.00
H60    H     0.54683   0.28989   0.22072   0.00000  Uiso   1.00
H61    H     0.54687   0.04346   0.22068   0.00000  Uiso   1.00
H62    H     0.45313   0.28988   0.11266   0.00000  Uiso   1.00
N63    N     0.50000   0.28402   0.16667   0.00000  Uiso   1.00
N64    N     0.50000   0.04931   0.16667   0.00000  Uiso   1.00
O65    O     0.43988   0.20625   0.16666   0.00000  Uiso   1.00
O66    O     0.56012   0.12709   0.16667   0.00000  Uiso   1.00
O67    O     0.56012   0.20625   0.16667   0.00000  Uiso   1.00
O68    O     0.43988   0.12709   0.16666   0.00000  Uiso   1.00
O69    O     0.50000   0.20625   0.09613   0.00000  Uiso   1.00
O70    O     0.50000   0.12708   0.23720   0.00000  Uiso   1.00
O71    O     0.50000   0.20625   0.23720   0.00000  Uiso   1.00
O72    O     0.50000   0.12708   0.09613   0.00000  Uiso   1.00
C73    C     0.75406   0.16667   0.16663   0.00000  Uiso   1.00
C74    C     0.68804   0.20447   0.18722   0.00000  Uiso   1.00
C75    C     0.95722   0.16667   0.16669   0.00000  Uiso   1.00
C76    C     0.70945   0.16667   0.16664   0.00000  Uiso   1.00
C77    C     0.80732   0.02479   0.13668   0.00000  Uiso   1.00
C78    C     0.85934   0.30854   0.19666   0.00000  Uiso   1.00
C79    C     0.85935   0.02479   0.19665   0.00000  Uiso   1.00
C80    C     0.80731   0.30854   0.13669   0.00000  Uiso   1.00
C81    C     0.91261   0.16667   0.16670   0.00000  Uiso   1.00
C82    C     0.83331   0.16667   0.07353   0.00000  Uiso   1.00
C83    C     0.83335   0.16667   0.25980   0.00000  Uiso   1.00
C84    C     0.83333   0.16667   0.02184   0.00000  Uiso   1.00
C85    C     0.83334   0.16666   0.31149   0.00000  Uiso   1.00
C86    C     0.68790   0.12887   0.14608   0.00000  Uiso   1.00
C87    C     0.97877   0.20447   0.18726   0.00000  Uiso   1.00
C88    C     0.97863   0.12886   0.14611   0.00000  Uiso   1.00
Cu89   Cu    0.83333   0.21355   0.16667   0.00000  Uiso   1.00
Cu90   Cu    0.83333   0.11978   0.16667   0.00000  Uiso   1.00
F91    F     0.70794   0.09248   0.12479   0.00000  Uiso   1.00
F92    F     0.95872   0.24085   0.20854   0.00000  Uiso   1.00
F93    F     0.95844   0.09246   0.12488   0.00000  Uiso   1.00
F94    F     0.70823   0.24087   0.20846   0.00000  Uiso   1.00
H95    H     0.78650   0.04345   0.11261   0.00000  Uiso   1.00
H96    H     0.88017   0.28989   0.22072   0.00000  Uiso   1.00
H97    H     0.88021   0.04346   0.22068   0.00000  Uiso   1.00
H98    H     0.78646   0.28988   0.11266   0.00000  Uiso   1.00
N99    N     0.83333   0.28402   0.16667   0.00000  Uiso   1.00
N100   N     0.83333   0.04931   0.16667   0.00000  Uiso   1.00
O101   O     0.77321   0.20625   0.16666   0.00000  Uiso   1.00
O102   O     0.89345   0.12709   0.16667   0.00000  Uiso   1.00
O103   O     0.89345   0.20625   0.16667   0.00000  Uiso   1.00
O104   O     0.77321   0.12709   0.16666   0.00000  Uiso   1.00
O105   O     0.83333   0.20625   0.09613   0.00000  Uiso   1.00
O106   O     0.83333   0.12708   0.23720   0.00000  Uiso   1.00
O107   O     0.83333   0.20625   0.23720   0.00000  Uiso   1.00
O108   O     0.83333   0.12708   0.09613   0.00000  Uiso   1.00
C109   C     0.08739   0.50000   0.16663   0.00000  Uiso   1.00
C110   C     0.02137   0.53781   0.18722   0.00000  Uiso   1.00
C111   C     0.29055   0.50000   0.16669   0.00000  Uiso   1.00
C112   C     0.04278   0.50000   0.16664   0.00000  Uiso   1.00
C113   C     0.14066   0.35812   0.13668   0.00000  Uiso   1.00
C114   C     0.19268   0.64188   0.19666   0.00000  Uiso   1.00
C115   C     0.19269   0.35813   0.19665   0.00000  Uiso   1.00
C116   C     0.14065   0.64187   0.13669   0.00000  Uiso   1.00
C117   C     0.24594   0.50000   0.16670   0.00000  Uiso   1.00
C118   C     0.16665   0.50000   0.07353   0.00000  Uiso   1.00
C119   C     0.16669   0.50000   0.25980   0.00000  Uiso   1.00
C120   C     0.16666   0.50000   0.02184   0.00000  Uiso   1.00
C121   C     0.16667   0.50000   0.31149   0.00000  Uiso   1.00
C122   C     0.02123   0.46220   0.14608   0.00000  Uiso   1.00
C123   C     0.31210   0.53780   0.18726   0.00000  Uiso   1.00
C124   C     0.31196   0.46219   0.14611   0.00000  Uiso   1.00
Cu125  Cu    0.16667   0.54689   0.16667   0.00000  Uiso   1.00
Cu126  Cu    0.16667   0.45311   0.16667   0.00000  Uiso   1.00
F127   F     0.04128   0.42582   0.12479   0.00000  Uiso   1.00
F128   F     0.29206   0.57418   0.20854   0.00000  Uiso   1.00
F129   F     0.29177   0.42579   0.12488   0.00000  Uiso   1.00
F130   F     0.04156   0.57421   0.20846   0.00000  Uiso   1.00
H131   H     0.11983   0.37678   0.11261   0.00000  Uiso   1.00
H132   H     0.21350   0.62322   0.22072   0.00000  Uiso   1.00
H133   H     0.21354   0.37679   0.22068   0.00000  Uiso   1.00
H134   H     0.11980   0.62321   0.11266   0.00000  Uiso   1.00
N135   N     0.16667   0.61736   0.16667   0.00000  Uiso   1.00
N136   N     0.16667   0.38264   0.16667   0.00000  Uiso   1.00
O137   O     0.10655   0.53958   0.16666   0.00000  Uiso   1.00
O138   O     0.22679   0.46042   0.16667   0.00000  Uiso   1.00
O139   O     0.22679   0.53958   0.16667   0.00000  Uiso   1.00
O140   O     0.10655   0.46042   0.16666   0.00000  Uiso   1.00
O141   O     0.16667   0.53959   0.09613   0.00000  Uiso   1.00
O142   O     0.16667   0.46041   0.23720   0.00000  Uiso   1.00
O143   O     0.16667   0.53959   0.23720   0.00000  Uiso   1.00
O144   O     0.16667   0.46041   0.09613   0.00000  Uiso   1.00
C145   C     0.42072   0.50000   0.16663   0.00000  Uiso   1.00
C146   C     0.35470   0.53781   0.18722   0.00000  Uiso   1.00
C147   C     0.62388   0.50000   0.16669   0.00000  Uiso   1.00
C148   C     0.37612   0.50000   0.16664   0.00000  Uiso   1.00
C149   C     0.47399   0.35812   0.13668   0.00000  Uiso   1.00
C150   C     0.52601   0.64188   0.19666   0.00000  Uiso   1.00
C151   C     0.52602   0.35813   0.19665   0.00000  Uiso   1.00
C152   C     0.47398   0.64187   0.13669   0.00000  Uiso   1.00
C153   C     0.57928   0.50000   0.16670   0.00000  Uiso   1.00
C154   C     0.49998   0.50000   0.07353   0.00000  Uiso   1.00
C155   C     0.50002   0.50000   0.25980   0.00000  Uiso   1.00
C156   C     0.49999   0.50000   0.02184   0.00000  Uiso   1.00
C157   C     0.50001   0.50000   0.31149   0.00000  Uiso   1.00
C158   C     0.35456   0.46220   0.14608   0.00000  Uiso   1.00
C159   C     0.64544   0.53780   0.18726   0.00000  Uiso   1.00
C160   C     0.64530   0.46219   0.14611   0.00000  Uiso   1.00
Cu161  Cu    0.50000   0.54689   0.16667   0.00000  Uiso   1.00
Cu162  Cu    0.50000   0.45311   0.16667   0.00000  Uiso   1.00
F163   F     0.37461   0.42582   0.12479   0.00000  Uiso   1.00
F164   F     0.62539   0.57418   0.20854   0.00000  Uiso   1.00
F165   F     0.62511   0.42579   0.12488   0.00000  Uiso   1.00
F166   F     0.37489   0.57421   0.20846   0.00000  Uiso   1.00
H167   H     0.45317   0.37678   0.11261   0.00000  Uiso   1.00
H168   H     0.54683   0.62322   0.22072   0.00000  Uiso   1.00
H169   H     0.54687   0.37679   0.22068   0.00000  Uiso   1.00
H170   H     0.45313   0.62321   0.11266   0.00000  Uiso   1.00
N171   N     0.50000   0.61736   0.16667   0.00000  Uiso   1.00
N172   N     0.50000   0.38264   0.16667   0.00000  Uiso   1.00
O173   O     0.43988   0.53958   0.16666   0.00000  Uiso   1.00
O174   O     0.56012   0.46042   0.16667   0.00000  Uiso   1.00
O175   O     0.56012   0.53958   0.16667   0.00000  Uiso   1.00
O176   O     0.43988   0.46042   0.16666   0.00000  Uiso   1.00
O177   O     0.50000   0.53959   0.09613   0.00000  Uiso   1.00
O178   O     0.50000   0.46041   0.23720   0.00000  Uiso   1.00
O179   O     0.50000   0.53959   0.23720   0.00000  Uiso   1.00
O180   O     0.50000   0.46041   0.09613   0.00000  Uiso   1.00
C181   C     0.75406   0.50000   0.16663   0.00000  Uiso   1.00
C182   C     0.68804   0.53781   0.18722   0.00000  Uiso   1.00
C183   C     0.95722   0.50000   0.16669   0.00000  Uiso   1.00
C184   C     0.70945   0.50000   0.16664   0.00000  Uiso   1.00
C185   C     0.80732   0.35812   0.13668   0.00000  Uiso   1.00
C186   C     0.85934   0.64188   0.19666   0.00000  Uiso   1.00
C187   C     0.85935   0.35813   0.19665   0.00000  Uiso   1.00
C188   C     0.80731   0.64187   0.13669   0.00000  Uiso   1.00
C189   C     0.91261   0.50000   0.16670   0.00000  Uiso   1.00
C190   C     0.83331   0.50000   0.07353   0.00000  Uiso   1.00
C191   C     0.83335   0.50000   0.25980   0.00000  Uiso   1.00
C192   C     0.83333   0.50000   0.02184   0.00000  Uiso   1.00
C193   C     0.83334   0.50000   0.31149   0.00000  Uiso   1.00
C194   C     0.68790   0.46220   0.14608   0.00000  Uiso   1.00
C195   C     0.97877   0.53780   0.18726   0.00000  Uiso   1.00
C196   C     0.97863   0.46219   0.14611   0.00000  Uiso   1.00
Cu197  Cu    0.83333   0.54689   0.16667   0.00000  Uiso   1.00
Cu198  Cu    0.83333   0.45311   0.16667   0.00000  Uiso   1.00
F199   F     0.70794   0.42582   0.12479   0.00000  Uiso   1.00
F200   F     0.95872   0.57418   0.20854   0.00000  Uiso   1.00
F201   F     0.95844   0.42579   0.12488   0.00000  Uiso   1.00
F202   F     0.70823   0.57421   0.20846   0.00000  Uiso   1.00
H203   H     0.78650   0.37678   0.11261   0.00000  Uiso   1.00
H204   H     0.88017   0.62322   0.22072   0.00000  Uiso   1.00
H205   H     0.88021   0.37679   0.22068   0.00000  Uiso   1.00
H206   H     0.78646   0.62321   0.11266   0.00000  Uiso   1.00
N207   N     0.83333   0.61736   0.16667   0.00000  Uiso   1.00
N208   N     0.83333   0.38264   0.16667   0.00000  Uiso   1.00
O209   O     0.77321   0.53958   0.16666   0.00000  Uiso   1.00
O210   O     0.89345   0.46042   0.16667   0.00000  Uiso   1.00
O211   O     0.89345   0.53958   0.16667   0.00000  Uiso   1.00
O212   O     0.77321   0.46042   0.16666   0.00000  Uiso   1.00
O213   O     0.83333   0.53959   0.09613   0.00000  Uiso   1.00
O214   O     0.83333   0.46041   0.23720   0.00000  Uiso   1.00
O215   O     0.83333   0.53959   0.23720   0.00000  Uiso   1.00
O216   O     0.83333   0.46041   0.09613   0.00000  Uiso   1.00
C217   C     0.08739   0.83333   0.16663   0.00000  Uiso   1.00
C218   C     0.02137   0.87114   0.18722   0.00000  Uiso   1.00
C219   C     0.29055   0.83333   0.16669   0.00000  Uiso   1.00
C220   C     0.04278   0.83333   0.16664   0.00000  Uiso   1.00
C221   C     0.14066   0.69146   0.13668   0.00000  Uiso   1.00
C222   C     0.19268   0.97521   0.19666   0.00000  Uiso   1.00
C223   C     0.19269   0.69146   0.19665   0.00000  Uiso   1.00
C224   C     0.14065   0.97521   0.13669   0.00000  Uiso   1.00
C225   C     0.24594   0.83333   0.16670   0.00000  Uiso   1.00
C226   C     0.16665   0.83334   0.07353   0.00000  Uiso   1.00
C227   C     0.16669   0.83333   0.25980   0.00000  Uiso   1.00
C228   C     0.16666   0.83334   0.02184   0.00000  Uiso   1.00
C229   C     0.16667   0.83333   0.31149   0.00000  Uiso   1.00
C230   C     0.02123   0.79553   0.14608   0.00000  Uiso   1.00
C231   C     0.31210   0.87113   0.18726   0.00000  Uiso   1.00
C232   C     0.31196   0.79553   0.14611   0.00000  Uiso   1.00
Cu233  Cu    0.16667   0.88022   0.16667   0.00000  Uiso   1.00
Cu234  Cu    0.16667   0.78645   0.16667   0.00000  Uiso   1.00
F235   F     0.04128   0.75915   0.12479   0.00000  Uiso   1.00
F236   F     0.29206   0.90752   0.20854   0.00000  Uiso   1.00
F237   F     0.29177   0.75913   0.12488   0.00000  Uiso   1.00
F238   F     0.04156   0.90754   0.20846   0.00000  Uiso   1.00
H239   H     0.11983   0.71011   0.11261   0.00000  Uiso   1.00
H240   H     0.21350   0.95655   0.22072   0.00000  Uiso   1.00
H241   H     0.21354   0.71012   0.22068   0.00000  Uiso   1.00
H242   H     0.11980   0.95654   0.11266   0.00000  Uiso   1.00
N243   N     0.16667   0.95069   0.16667   0.00000  Uiso   1.00
N244   N     0.16667   0.71598   0.16667   0.00000  Uiso   1.00
O245   O     0.10655   0.87291   0.16666   0.00000  Uiso   1.00
O246   O     0.22679   0.79375   0.16667   0.00000  Uiso   1.00
O247   O     0.22679   0.87291   0.16667   0.00000  Uiso   1.00
O248   O     0.10655   0.79375   0.16666   0.00000  Uiso   1.00
O249   O     0.16667   0.87292   0.09613   0.00000  Uiso   1.00
O250   O     0.16667   0.79375   0.23720   0.00000  Uiso   1.00
O251   O     0.16667   0.87292   0.23720   0.00000  Uiso   1.00
O252   O     0.16667   0.79375   0.09613   0.00000  Uiso   1.00
C253   C     0.42072   0.83333   0.16663   0.00000  Uiso   1.00
C254   C     0.35470   0.87114   0.18722   0.00000  Uiso   1.00
C255   C     0.62388   0.83333   0.16669   0.00000  Uiso   1.00
C256   C     0.37612   0.83333   0.16664   0.00000  Uiso   1.00
C257   C     0.47399   0.69146   0.13668   0.00000  Uiso   1.00
C258   C     0.52601   0.97521   0.19666   0.00000  Uiso   1.00
C259   C     0.52602   0.69146   0.19665   0.00000  Uiso   1.00
C260   C     0.47398   0.97521   0.13669   0.00000  Uiso   1.00
C261   C     0.57928   0.83333   0.16670   0.00000  Uiso   1.00
C262   C     0.49998   0.83334   0.07353   0.00000  Uiso   1.00
C263   C     0.50002   0.83333   0.25980   0.00000  Uiso   1.00
C264   C     0.49999   0.83334   0.02184   0.00000  Uiso   1.00
C265   C     0.50001   0.83333   0.31149   0.00000  Uiso   1.00
C266   C     0.35456   0.79553   0.14608   0.00000  Uiso   1.00
C267   C     0.64544   0.87113   0.18726   0.00000  Uiso   1.00
C268   C     0.64530   0.79553   0.14611   0.00000  Uiso   1.00
Cu269  Cu    0.50000   0.88022   0.16667   0.00000  Uiso   1.00
Cu270  Cu    0.50000   0.78645   0.16667   0.00000  Uiso   1.00
F271   F     0.37461   0.75915   0.12479   0.00000  Uiso   1.00
F272   F     0.62539   0.90752   0.20854   0.00000  Uiso   1.00
F273   F     0.62511   0.75913   0.12488   0.00000  Uiso   1.00
F274   F     0.37489   0.90754   0.20846   0.00000  Uiso   1.00
H275   H     0.45317   0.71011   0.11261   0.00000  Uiso   1.00
H276   H     0.54683   0.95655   0.22072   0.00000  Uiso   1.00
H277   H     0.54687   0.71012   0.22068   0.00000  Uiso   1.00
H278   H     0.45313   0.95654   0.11266   0.00000  Uiso   1.00
N279   N     0.50000   0.95069   0.16667   0.00000  Uiso   1.00
N280   N     0.50000   0.71598   0.16667   0.00000  Uiso   1.00
O281   O     0.43988   0.87291   0.16666   0.00000  Uiso   1.00
O282   O     0.56012   0.79375   0.16667   0.00000  Uiso   1.00
O283   O     0.56012   0.87291   0.16667   0.00000  Uiso   1.00
O284   O     0.43988   0.79375   0.16666   0.00000  Uiso   1.00
O285   O     0.50000   0.87292   0.09613   0.00000  Uiso   1.00
O286   O     0.50000   0.79375   0.23720   0.00000  Uiso   1.00
O287   O     0.50000   0.87292   0.23720   0.00000  Uiso   1.00
O288   O     0.50000   0.79375   0.09613   0.00000  Uiso   1.00
C289   C     0.75406   0.83333   0.16663   0.00000  Uiso   1.00
C290   C     0.68804   0.87114   0.18722   0.00000  Uiso   1.00
C291   C     0.95722   0.83333   0.16669   0.00000  Uiso   1.00
C292   C     0.70945   0.83333   0.16664   0.00000  Uiso   1.00
C293   C     0.80732   0.69146   0.13668   0.00000  Uiso   1.00
C294   C     0.85934   0.97521   0.19666   0.00000  Uiso   1.00
C295   C     0.85935   0.69146   0.19665   0.00000  Uiso   1.00
C296   C     0.80731   0.97521   0.13669   0.00000  Uiso   1.00
C297   C     0.91261   0.83333   0.16670   0.00000  Uiso   1.00
C298   C     0.83331   0.83334   0.07353   0.00000  Uiso   1.00
C299   C     0.83335   0.83333   0.25980   0.00000  Uiso   1.00
C300   C     0.83333   0.83334   0.02184   0.00000  Uiso   1.00
C301   C     0.83334   0.83333   0.31149   0.00000  Uiso   1.00
C302   C     0.68790   0.79553   0.14608   0.00000  Uiso   1.00
C303   C     0.97877   0.87113   0.18726   0.00000  Uiso   1.00
C304   C     0.97863   0.79553   0.14611   0.00000  Uiso   1.00
Cu305  Cu    0.83333   0.88022   0.16667   0.00000  Uiso   1.00
Cu306  Cu    0.83333   0.78645   0.16667   0.00000  Uiso   1.00
F307   F     0.70794   0.75915   0.12479   0.00000  Uiso   1.00
F308   F     0.95872   0.90752   0.20854   0.00000  Uiso   1.00
F309   F     0.95844   0.75913   0.12488   0.00000  Uiso   1.00
F310   F     0.70823   0.90754   0.20846   0.00000  Uiso   1.00
H311   H     0.78650   0.71011   0.11261   0.00000  Uiso   1.00
H312   H     0.88017   0.95655   0.22072   0.00000  Uiso   1.00
H313   H     0.88021   0.71012   0.22068   0.00000  Uiso   1.00
H314   H     0.78646   0.95654   0.11266   0.00000  Uiso   1.00
N315   N     0.83333   0.95069   0.16667   0.00000  Uiso   1.00
N316   N     0.83333   0.71598   0.16667   0.00000  Uiso   1.00
O317   O     0.77321   0.87291   0.16666   0.00000  Uiso   1.00
O318   O     0.89345   0.79375   0.16667   0.00000  Uiso   1.00
O319   O     0.89345   0.87291   0.16667   0.00000  Uiso   1.00
O320   O     0.77321   0.79375   0.16666   0.00000  Uiso   1.00
O321   O     0.83333   0.87292   0.09613   0.00000  Uiso   1.00
O322   O     0.83333   0.79375   0.23720   0.00000  Uiso   1.00
O323   O     0.83333   0.87292   0.23720   0.00000  Uiso   1.00
O324   O     0.83333   0.79375   0.09613   0.00000  Uiso   1.00
C325   C     0.08739   0.16667   0.49997   0.00000  Uiso   1.00
C326   C     0.02137   0.20447   0.52055   0.00000  Uiso   1.00
C327   C     0.29055   0.16667   0.50003   0.00000  Uiso   1.00
C328   C     0.04278   0.16667   0.49997   0.00000  Uiso   1.00
C329   C     0.14066   0.02479   0.47001   0.00000  Uiso   1.00
C330   C     0.19268   0.30854   0.52999   0.00000  Uiso   1.00
C331   C     0.19269   0.02479   0.52998   0.00000  Uiso   1.00
C332   C     0.14065   0.30854   0.47002   0.00000  Uiso   1.00
C333   C     0.24594   0.16667   0.50003   0.00000  Uiso   1.00
C334   C     0.16665   0.16667   0.40687   0.00000  Uiso   1.00
C335   C     0.16669   0.16667   0.59313   0.00000  Uiso   1.00
C336   C     0.16666   0.16667   0.35517   0.00000  Uiso   1.00
C337   C     0.16667   0.16666   0.64483   0.00000  Uiso   1.00
C338   C     0.02123   0.12887   0.47941   0.00000  Uiso   1.00
C339   C     0.31210   0.20447   0.52059   0.00000  Uiso   1.00
C340   C     0.31196   0.12886   0.47945   0.00000  Uiso   1.00
Cu341  Cu    0.16667   0.21355   0.50000   0.00000  Uiso   1.00
Cu342  Cu    0.16667   0.11978   0.50000   0.00000  Uiso   1.00
F343   F     0.04128   0.09248   0.45812   0.00000  Uiso   1.00
F344   F     0.29206   0.24085   0.54188   0.00000  Uiso   1.00
F345   F     0.29177   0.09246   0.45821   0.00000  Uiso   1.00
F346   F     0.04156   0.24087   0.54179   0.00000  Uiso   1.00
H347   H     0.11983   0.04345   0.44594   0.00000  Uiso   1.00
H348   H     0.21350   0.28989   0.55405   0.00000  Uiso   1.00
H349   H     0.21354   0.04346   0.55401   0.00000  Uiso   1.00
H350   H     0.11980   0.28988   0.44599   0.00000  Uiso   1.00
N351   N     0.16667   0.28402   0.50000   0.00000  Uiso   1.00
N352   N     0.16667   0.04931   0.50000   0.00000  Uiso   1.00
O353   O     0.10655   0.20625   0.50000   0.00000  Uiso   1.00
O354   O     0.22679   0.12709   0.50000   0.00000  Uiso   1.00
O355   O     0.22679   0.20625   0.50000   0.00000  Uiso   1.00
O356   O     0.10655   0.12709   0.50000   0.00000  Uiso   1.00
O357   O     0.16667   0.20625   0.42946   0.00000  Uiso   1.00
O358   O     0.16667   0.12708   0.57054   0.00000  Uiso   1.00
O359   O     0.16667   0.20625   0.57054   0.00000  Uiso   1.00
O360   O     0.16667   0.12708   0.42946   0.00000  Uiso   1.00
C361   C     0.42072   0.16667   0.49997   0.00000  Uiso   1.00
C362   C     0.35470   0.20447   0.52055   0.00000  Uiso   1.00
C363   C     0.62388   0.16667   0.50003   0.00000  Uiso   1.00
C364   C     0.37612   0.16667   0.49997   0.00000  Uiso   1.00
C365   C     0.47399   0.02479   0.47001   0.00000  Uiso   1.00
C366   C     0.52601   0.30854   0.52999   0.00000  Uiso   1.00
C367   C     0.52602   0.02479   0.52998   0.00000  Uiso   1.00
C368   C     0.47398   0.30854   0.47002   0.00000  Uiso   1.00
C369   C     0.57928   0.16667   0.50003   0.00000  Uiso   1.00
C370   C     0.49998   0.16667   0.40687   0.00000  Uiso   1.00
C371   C     0.50002   0.16667   0.59313   0.00000  Uiso   1.00
C372   C     0.49999   0.16667   0.35517   0.00000  Uiso   1.00
C373   C     0.50001   0.16666   0.64483   0.00000  Uiso   1.00
C374   C     0.35456   0.12887   0.47941   0.00000  Uiso   1.00
C375   C     0.64544   0.20447   0.52059   0.00000  Uiso   1.00
C376   C     0.64530   0.12886   0.47945   0.00000  Uiso   1.00
Cu377  Cu    0.50000   0.21355   0.50000   0.00000  Uiso   1.00
Cu378  Cu    0.50000   0.11978   0.50000   0.00000  Uiso   1.00
F379   F     0.37461   0.09248   0.45812   0.00000  Uiso   1.00
F380   F     0.62539   0.24085   0.54188   0.00000  Uiso   1.00
F381   F     0.62511   0.09246   0.45821   0.00000  Uiso   1.00
F382   F     0.37489   0.24087   0.54179   0.00000  Uiso   1.00
H383   H     0.45317   0.04345   0.44594   0.00000  Uiso   1.00
H384   H     0.54683   0.28989   0.55405   0.00000  Uiso   1.00
H385   H     0.54687   0.04346   0.55401   0.00000  Uiso   1.00
H386   H     0.45313   0.28988   0.44599   0.00000  Uiso   1.00
N387   N     0.50000   0.28402   0.50000   0.00000  Uiso   1.00
N388   N     0.50000   0.04931   0.50000   0.00000  Uiso   1.00
O389   O     0.43988   0.20625   0.50000   0.00000  Uiso   1.00
O390   O     0.56012   0.12709   0.50000   0.00000  Uiso   1.00
O391   O     0.56012   0.20625   0.50000   0.00000  Uiso   1.00
O392   O     0.43988   0.12709   0.50000   0.00000  Uiso   1.00
O393   O     0.50000   0.20625   0.42946   0.00000  Uiso   1.00
O394   O     0.50000   0.12708   0.57054   0.00000  Uiso   1.00
O395   O     0.50000   0.20625   0.57054   0.00000  Uiso   1.00
O396   O     0.50000   0.12708   0.42946   0.00000  Uiso   1.00
C397   C     0.75406   0.16667   0.49997   0.00000  Uiso   1.00
C398   C     0.68804   0.20447   0.52055   0.00000  Uiso   1.00
C399   C     0.95722   0.16667   0.50003   0.00000  Uiso   1.00
C400   C     0.70945   0.16667   0.49997   0.00000  Uiso   1.00
C401   C     0.80732   0.02479   0.47001   0.00000  Uiso   1.00
C402   C     0.85934   0.30854   0.52999   0.00000  Uiso   1.00
C403   C     0.85935   0.02479   0.52998   0.00000  Uiso   1.00
C404   C     0.80731   0.30854   0.47002   0.00000  Uiso   1.00
C405   C     0.91261   0.16667   0.50003   0.00000  Uiso   1.00
C406   C     0.83331   0.16667   0.40687   0.00000  Uiso   1.00
C407   C     0.83335   0.16667   0.59313   0.00000  Uiso   1.00
C408   C     0.83333   0.16667   0.35517   0.00000  Uiso   1.00
C409   C     0.83334   0.16666   0.64483   0.00000  Uiso   1.00
C410   C     0.68790   0.12887   0.47941   0.00000  Uiso   1.00
C411   C     0.97877   0.20447   0.52059   0.00000  Uiso   1.00
C412   C     0.97863   0.12886   0.47945   0.00000  Uiso   1.00
Cu413  Cu    0.83333   0.21355   0.50000   0.00000  Uiso   1.00
Cu414  Cu    0.83333   0.11978   0.50000   0.00000  Uiso   1.00
F415   F     0.70794   0.09248   0.45812   0.00000  Uiso   1.00
F416   F     0.95872   0.24085   0.54188   0.00000  Uiso   1.00
F417   F     0.95844   0.09246   0.45821   0.00000  Uiso   1.00
F418   F     0.70823   0.24087   0.54179   0.00000  Uiso   1.00
H419   H     0.78650   0.04345   0.44594   0.00000  Uiso   1.00
H420   H     0.88017   0.28989   0.55405   0.00000  Uiso   1.00
H421   H     0.88021   0.04346   0.55401   0.00000  Uiso   1.00
H422   H     0.78646   0.28988   0.44599   0.00000  Uiso   1.00
N423   N     0.83333   0.28402   0.50000   0.00000  Uiso   1.00
N424   N     0.83333   0.04931   0.50000   0.00000  Uiso   1.00
O425   O     0.77321   0.20625   0.50000   0.00000  Uiso   1.00
O426   O     0.89345   0.12709   0.50000   0.00000  Uiso   1.00
O427   O     0.89345   0.20625   0.50000   0.00000  Uiso   1.00
O428   O     0.77321   0.12709   0.50000   0.00000  Uiso   1.00
O429   O     0.83333   0.20625   0.42946   0.00000  Uiso   1.00
O430   O     0.83333   0.12708   0.57054   0.00000  Uiso   1.00
O431   O     0.83333   0.20625   0.57054   0.00000  Uiso   1.00
O432   O     0.83333   0.12708   0.42946   0.00000  Uiso   1.00
C433   C     0.08739   0.50000   0.49997   0.00000  Uiso   1.00
C434   C     0.02137   0.53781   0.52055   0.00000  Uiso   1.00
C435   C     0.29055   0.50000   0.50003   0.00000  Uiso   1.00
C436   C     0.04278   0.50000   0.49997   0.00000  Uiso   1.00
C437   C     0.14066   0.35812   0.47001   0.00000  Uiso   1.00
C438   C     0.19268   0.64188   0.52999   0.00000  Uiso   1.00
C439   C     0.19269   0.35813   0.52998   0.00000  Uiso   1.00
C440   C     0.14065   0.64187   0.47002   0.00000  Uiso   1.00
C441   C     0.24594   0.50000   0.50003   0.00000  Uiso   1.00
C442   C     0.16665   0.50000   0.40687   0.00000  Uiso   1.00
C443   C     0.16669   0.50000   0.59313   0.00000  Uiso   1.00
C444   C     0.16666   0.50000   0.35517   0.00000  Uiso   1.00
C445   C     0.16667   0.50000   0.64483   0.00000  Uiso   1.00
C446   C     0.02123   0.46220   0.47941   0.00000  Uiso   1.00
C447   C     0.31210   0.53780   0.52059   0.00000  Uiso   1.00
C448   C     0.31196   0.46219   0.47945   0.00000  Uiso   1.00
Cu449  Cu    0.16667   0.54689   0.50000   0.00000  Uiso   1.00
Cu450  Cu    0.16667   0.45311   0.50000   0.00000  Uiso   1.00
F451   F     0.04128   0.42582   0.45812   0.00000  Uiso   1.00
F452   F     0.29206   0.57418   0.54188   0.00000  Uiso   1.00
F453   F     0.29177   0.42579   0.45821   0.00000  Uiso   1.00
F454   F     0.04156   0.57421   0.54179   0.00000  Uiso   1.00
H455   H     0.11983   0.37678   0.44594   0.00000  Uiso   1.00
H456   H     0.21350   0.62322   0.55405   0.00000  Uiso   1.00
H457   H     0.21354   0.37679   0.55401   0.00000  Uiso   1.00
H458   H     0.11980   0.62321   0.44599   0.00000  Uiso   1.00
N459   N     0.16667   0.61736   0.50000   0.00000  Uiso   1.00
N460   N     0.16667   0.38264   0.50000   0.00000  Uiso   1.00
O461   O     0.10655   0.53958   0.50000   0.00000  Uiso   1.00
O462   O     0.22679   0.46042   0.50000   0.00000  Uiso   1.00
O463   O     0.22679   0.53958   0.50000   0.00000  Uiso   1.00
O464   O     0.10655   0.46042   0.50000   0.00000  Uiso   1.00
O465   O     0.16667   0.53959   0.42946   0.00000  Uiso   1.00
O466   O     0.16667   0.46041   0.57054   0.00000  Uiso   1.00
O467   O     0.16667   0.53959   0.57054   0.00000  Uiso   1.00
O468   O     0.16667   0.46041   0.42946   0.00000  Uiso   1.00
C469   C     0.42072   0.50000   0.49997   0.00000  Uiso   1.00
C470   C     0.35470   0.53781   0.52055   0.00000  Uiso   1.00
C471   C     0.62388   0.50000   0.50003   0.00000  Uiso   1.00
C472   C     0.37612   0.50000   0.49997   0.00000  Uiso   1.00
C473   C     0.47399   0.35812   0.47001   0.00000  Uiso   1.00
C474   C     0.52601   0.64188   0.52999   0.00000  Uiso   1.00
C475   C     0.52602   0.35813   0.52998   0.00000  Uiso   1.00
C476   C     0.47398   0.64187   0.47002   0.00000  Uiso   1.00
C477   C     0.57928   0.50000   0.50003   0.00000  Uiso   1.00
C478   C     0.49998   0.50000   0.40687   0.00000  Uiso   1.00
C479   C     0.50002   0.50000   0.59313   0.00000  Uiso   1.00
C480   C     0.49999   0.50000   0.35517   0.00000  Uiso   1.00
C481   C     0.50001   0.50000   0.64483   0.00000  Uiso   1.00
C482   C     0.35456   0.46220   0.47941   0.00000  Uiso   1.00
C483   C     0.64544   0.53780   0.52059   0.00000  Uiso   1.00
C484   C     0.64530   0.46219   0.47945   0.00000  Uiso   1.00
Cu485  Cu    0.50000   0.54689   0.50000   0.00000  Uiso   1.00
Cu486  Cu    0.50000   0.45311   0.50000   0.00000  Uiso   1.00
F487   F     0.37461   0.42582   0.45812   0.00000  Uiso   1.00
F488   F     0.62539   0.57418   0.54188   0.00000  Uiso   1.00
F489   F     0.62511   0.42579   0.45821   0.00000  Uiso   1.00
F490   F     0.37489   0.57421   0.54179   0.00000  Uiso   1.00
H491   H     0.45317   0.37678   0.44594   0.00000  Uiso   1.00
H492   H     0.54683   0.62322   0.55405   0.00000  Uiso   1.00
H493   H     0.54687   0.37679   0.55401   0.00000  Uiso   1.00
H494   H     0.45313   0.62321   0.44599   0.00000  Uiso   1.00
N495   N     0.50000   0.61736   0.50000   0.00000  Uiso   1.00
N496   N     0.50000   0.38264   0.50000   0.00000  Uiso   1.00
O497   O     0.43988   0.53958   0.50000   0.00000  Uiso   1.00
O498   O     0.56012   0.46042   0.50000   0.00000  Uiso   1.00
O499   O     0.56012   0.53958   0.50000   0.00000  Uiso   1.00
O500   O     0.43988   0.46042   0.50000   0.00000  Uiso   1.00
O501   O     0.50000   0.53959   0.42946   0.00000  Uiso   1.00
O502   O     0.50000   0.46041   0.57054   0.00000  Uiso   1.00
O503   O     0.50000   0.53959   0.57054   0.00000  Uiso   1.00
O504   O     0.50000   0.46041   0.42946   0.00000  Uiso   1.00
C505   C     0.75406   0.50000   0.49997   0.00000  Uiso   1.00
C506   C     0.68804   0.53781   0.52055   0.00000  Uiso   1.00
C507   C     0.95722   0.50000   0.50003   0.00000  Uiso   1.00
C508   C     0.70945   0.50000   0.49997   0.00000  Uiso   1.00
C509   C     0.80732   0.35812   0.47001   0.00000  Uiso   1.00
C510   C     0.85934   0.64188   0.52999   0.00000  Uiso   1.00
C511   C     0.85935   0.35813   0.52998   0.00000  Uiso   1.00
C512   C     0.80731   0.64187   0.47002   0.00000  Uiso   1.00
C513   C     0.91261   0.50000   0.50003   0.00000  Uiso   1.00
C514   C     0.83331   0.50000   0.40687   0.00000  Uiso   1.00
C515   C     0.83335   0.50000   0.59313   0.00000  Uiso   1.00
C516   C     0.83333   0.50000   0.35517   0.00000  Uiso   1.00
C517   C     0.83334   0.50000   0.64483   0.00000  Uiso   1.00
C518   C     0.68790   0.46220   0.47941   0.00000  Uiso   1.00
C519   C     0.97877   0.53780   0.52059   0.00000  Uiso   1.00
C520   C     0.97863   0.46219   0.47945   0.00000  Uiso   1.00
Cu521  Cu    0.83333   0.54689   0.50000   0.00000  Uiso   1.00
Cu522  Cu    0.83333   0.45311   0.50000   0.00000  Uiso   1.00
F523   F     0.70794   0.42582   0.45812   0.00000  Uiso   1.00
F524   F     0.95872   0.57418   0.54188   0.00000  Uiso   1.00
F525   F     0.95844   0.42579   0.45821   0.00000  Uiso   1.00
F526   F     0.70823   0.57421   0.54179   0.00000  Uiso   1.00
H527   H     0.78650   0.37678   0.44594   0.00000  Uiso   1.00
H528   H     0.88017   0.62322   0.55405   0.00000  Uiso   1.00
H529   H     0.88021   0.37679   0.55401   0.00000  Uiso   1.00
H530   H     0.78646   0.62321   0.44599   0.00000  Uiso   1.00
N531   N     0.83333   0.61736   0.50000   0.00000  Uiso   1.00
N532   N     0.83333   0.38264   0.50000   0.00000  Uiso   1.00
O533   O     0.77321   0.53958   0.50000   0.00000  Uiso   1.00
O534   O     0.89345   0.46042   0.50000   0.00000  Uiso   1.00
O535   O     0.89345   0.53958   0.50000   0.00000  Uiso   1.00
O536   O     0.77321   0.46042   0.50000   0.00000  Uiso   1.00
O537   O     0.83333   0.53959   0.42946   0.00000  Uiso   1.00
O538   O     0.83333   0.46041   0.57054   0.00000  Uiso   1.00
O539   O     0.83333   0.53959   0.57054   0.00000  Uiso   1.00
O540   O     0.83333   0.46041   0.42946   0.00000  Uiso   1.00
C541   C     0.08739   0.83333   0.49997   0.00000  Uiso   1.00
C542   C     0.02137   0.87114   0.52055   0.00000  Uiso   1.00
C543   C     0.29055   0.83333   0.50003   0.00000  Uiso   1.00
C544   C     0.04278   0.83333   0.49997   0.00000  Uiso   1.00
C545   C     0.14066   0.69146   0.47001   0.00000  Uiso   1.00
C546   C     0.19268   0.97521   0.52999   0.00000  Uiso   1.00
C547   C     0.19269   0.69146   0.52998   0.00000  Uiso   1.00
C548   C     0.14065   0.97521   0.47002   0.00000  Uiso   1.00
C549   C     0.24594   0.83333   0.50003   0.00000  Uiso   1.00
C550   C     0.16665   0.83334   0.40687   0.00000  Uiso   1.00
C551   C     0.16669   0.83333   0.59313   0.00000  Uiso   1.00
C552   C     0.16666   0.83334   0.35517   0.00000  Uiso   1.00
C553   C     0.16667   0.83333   0.64483   0.00000  Uiso   1.00
C554   C     0.02123   0.79553   0.47941   0.00000  Uiso   1.00
C555   C     0.31210   0.87113   0.52059   0.00000  Uiso   1.00
C556   C     0.31196   0.79553   0.47945   0.00000  Uiso   1.00
Cu557  Cu    0.16667   0.88022   0.50000   0.00000  Uiso   1.00
Cu558  Cu    0.16667   0.78645   0.50000   0.00000  Uiso   1.00
F559   F     0.04128   0.75915   0.45812   0.00000  Uiso   1.00
F560   F     0.29206   0.90752   0.54188   0.00000  Uiso   1.00
F561   F     0.29177   0.75913   0.45821   0.00000  Uiso   1.00
F562   F     0.04156   0.90754   0.54179   0.00000  Uiso   1.00
H563   H     0.11983   0.71011   0.44594   0.00000  Uiso   1.00
H564   H     0.21350   0.95655   0.55405   0.00000  Uiso   1.00
H565   H     0.21354   0.71012   0.55401   0.00000  Uiso   1.00
H566   H     0.11980   0.95654   0.44599   0.00000  Uiso   1.00
N567   N     0.16667   0.95069   0.50000   0.00000  Uiso   1.00
N568   N     0.16667   0.71598   0.50000   0.00000  Uiso   1.00
O569   O     0.10655   0.87291   0.50000   0.00000  Uiso   1.00
O570   O     0.22679   0.79375   0.50000   0.00000  Uiso   1.00
O571   O     0.22679   0.87291   0.50000   0.00000  Uiso   1.00
O572   O     0.10655   0.79375   0.50000   0.00000  Uiso   1.00
O573   O     0.16667   0.87292   0.42946   0.00000  Uiso   1.00
O574   O     0.16667   0.79375   0.57054   0.00000  Uiso   1.00
O575   O     0.16667   0.87292   0.57054   0.00000  Uiso   1.00
O576   O     0.16667   0.79375   0.42946   0.00000  Uiso   1.00
C577   C     0.42072   0.83333   0.49997   0.00000  Uiso   1.00
C578   C     0.35470   0.87114   0.52055   0.00000  Uiso   1.00
C579   C     0.62388   0.83333   0.50003   0.00000  Uiso   1.00
C580   C     0.37612   0.83333   0.49997   0.00000  Uiso   1.00
C581   C     0.47399   0.69146   0.47001   0.00000  Uiso   1.00
C582   C     0.52601   0.97521   0.52999   0.00000  Uiso   1.00
C583   C     0.52602   0.69146   0.52998   0.00000  Uiso   1.00
C584   C     0.47398   0.97521   0.47002   0.00000  Uiso   1.00
C585   C     0.57928   0.83333   0.50003   0.00000  Uiso   1.00
C586   C     0.49998   0.83334   0.40687   0.00000  Uiso   1.00
C587   C     0.50002   0.83333   0.59313   0.00000  Uiso   1.00
C588   C     0.49999   0.83334   0.35517   0.00000  Uiso   1.00
C589   C     0.50001   0.83333   0.64483   0.00000  Uiso   1.00
C590   C     0.35456   0.79553   0.47941   0.00000  Uiso   1.00
C591   C     0.64544   0.87113   0.52059   0.00000  Uiso   1.00
C592   C     0.64530   0.79553   0.47945   0.00000  Uiso   1.00
Cu593  Cu    0.50000   0.88022   0.50000   0.00000  Uiso   1.00
Cu594  Cu    0.50000   0.78645   0.50000   0.00000  Uiso   1.00
F595   F     0.37461   0.75915   0.45812   0.00000  Uiso   1.00
F596   F     0.62539   0.90752   0.54188   0.00000  Uiso   1.00
F597   F     0.62511   0.75913   0.45821   0.00000  Uiso   1.00
F598   F     0.37489   0.90754   0.54179   0.00000  Uiso   1.00
H599   H     0.45317   0.71011   0.44594   0.00000  Uiso   1.00
H600   H     0.54683   0.95655   0.55405   0.00000  Uiso   1.00
H601   H     0.54687   0.71012   0.55401   0.00000  Uiso   1.00
H602   H     0.45313   0.95654   0.44599   0.00000  Uiso   1.00
N603   N     0.50000   0.95069   0.50000   0.00000  Uiso   1.00
N604   N     0.50000   0.71598   0.50000   0.00000  Uiso   1.00
O605   O     0.43988   0.87291   0.50000   0.00000  Uiso   1.00
O606   O     0.56012   0.79375   0.50000   0.00000  Uiso   1.00
O607   O     0.56012   0.87291   0.50000   0.00000  Uiso   1.00
O608   O     0.43988   0.79375   0.50000   0.00000  Uiso   1.00
O609   O     0.50000   0.87292   0.42946   0.00000  Uiso   1.00
O610   O     0.50000   0.79375   0.57054   0.00000  Uiso   1.00
O611   O     0.50000   0.87292   0.57054   0.00000  Uiso   1.00
O612   O     0.50000   0.79375   0.42946   0.00000  Uiso   1.00
C613   C     0.75406   0.83333   0.49997   0.00000  Uiso   1.00
C614   C     0.68804   0.87114   0.52055   0.00000  Uiso   1.00
C615   C     0.95722   0.83333   0.50003   0.00000  Uiso   1.00
C616   C     0.70945   0.83333   0.49997   0.00000  Uiso   1.00
C617   C     0.80732   0.69146   0.47001   0.00000  Uiso   1.00
C618   C     0.85934   0.97521   0.52999   0.00000  Uiso   1.00
C619   C     0.85935   0.69146   0.52998   0.00000  Uiso   1.00
C620   C     0.80731   0.97521   0.47002   0.00000  Uiso   1.00
C621   C     0.91261   0.83333   0.50003   0.00000  Uiso   1.00
C622   C     0.83331   0.83334   0.40687   0.00000  Uiso   1.00
C623   C     0.83335   0.83333   0.59313   0.00000  Uiso   1.00
C624   C     0.83333   0.83334   0.35517   0.00000  Uiso   1.00
C625   C     0.83334   0.83333   0.64483   0.00000  Uiso   1.00
C626   C     0.68790   0.79553   0.47941   0.00000  Uiso   1.00
C627   C     0.97877   0.87113   0.52059   0.00000  Uiso   1.00
C628   C     0.97863   0.79553   0.47945   0.00000  Uiso   1.00
Cu629  Cu    0.83333   0.88022   0.50000   0.00000  Uiso   1.00
Cu630  Cu    0.83333   0.78645   0.50000   0.00000  Uiso   1.00
F631   F     0.70794   0.75915   0.45812   0.00000  Uiso   1.00
F632   F     0.95872   0.90752   0.54188   0.00000  Uiso   1.00
F633   F     0.95844   0.75913   0.45821   0.00000  Uiso   1.00
F634   F     0.70823   0.90754   0.54179   0.00000  Uiso   1.00
H635   H     0.78650   0.71011   0.44594   0.00000  Uiso   1.00
H636   H     0.88017   0.95655   0.55405   0.00000  Uiso   1.00
H637   H     0.88021   0.71012   0.55401   0.00000  Uiso   1.00
H638   H     0.78646   0.95654   0.44599   0.00000  Uiso   1.00
N639   N     0.83333   0.95069   0.50000   0.00000  Uiso   1.00
N640   N     0.83333   0.71598   0.50000   0.00000  Uiso   1.00
O641   O     0.77321   0.87291   0.50000   0.00000  Uiso   1.00
O642   O     0.89345   0.79375   0.50000   0.00000  Uiso   1.00
O643   O     0.89345   0.87291   0.50000   0.00000  Uiso   1.00
O644   O     0.77321   0.79375   0.50000   0.00000  Uiso   1.00
O645   O     0.83333   0.87292   0.42946   0.00000  Uiso   1.00
O646   O     0.83333   0.79375   0.57054   0.00000  Uiso   1.00
O647   O     0.83333   0.87292   0.57054   0.00000  Uiso   1.00
O648   O     0.83333   0.79375   0.42946   0.00000  Uiso   1.00
C649   C     0.08739   0.16667   0.83330   0.00000  Uiso   1.00
C650   C     0.02137   0.20447   0.85389   0.00000  Uiso   1.00
C651   C     0.29055   0.16667   0.83336   0.00000  Uiso   1.00
C652   C     0.04278   0.16667   0.83330   0.00000  Uiso   1.00
C653   C     0.14066   0.02479   0.80334   0.00000  Uiso   1.00
C654   C     0.19268   0.30854   0.86332   0.00000  Uiso   1.00
C655   C     0.19269   0.02479   0.86331   0.00000  Uiso   1.00
C656   C     0.14065   0.30854   0.80335   0.00000  Uiso   1.00
C657   C     0.24594   0.16667   0.83337   0.00000  Uiso   1.00
C658   C     0.16665   0.16667   0.74020   0.00000  Uiso   1.00
C659   C     0.16669   0.16667   0.92647   0.00000  Uiso   1.00
C660   C     0.16666   0.16667   0.68851   0.00000  Uiso   1.00
C661   C     0.16667   0.16666   0.97816   0.00000  Uiso   1.00
C662   C     0.02123   0.12887   0.81274   0.00000  Uiso   1.00
C663   C     0.31210   0.20447   0.85392   0.00000  Uiso   1.00
C664   C     0.31196   0.12886   0.81278   0.00000  Uiso   1.00
Cu665  Cu    0.16667   0.21355   0.83333   0.00000  Uiso   1.00
Cu666  Cu    0.16667   0.11978   0.83333   0.00000  Uiso   1.00
F667   F     0.04128   0.09248   0.79145   0.00000  Uiso   1.00
F668   F     0.29206   0.24085   0.87521   0.00000  Uiso   1.00
F669   F     0.29177   0.09246   0.79154   0.00000  Uiso   1.00
F670   F     0.04156   0.24087   0.87512   0.00000  Uiso   1.00
H671   H     0.11983   0.04345   0.77928   0.00000  Uiso   1.00
H672   H     0.21350   0.28989   0.88739   0.00000  Uiso   1.00
H673   H     0.21354   0.04346   0.88734   0.00000  Uiso   1.00
H674   H     0.11980   0.28988   0.77932   0.00000  Uiso   1.00
N675   N     0.16667   0.28402   0.83333   0.00000  Uiso   1.00
N676   N     0.16667   0.04931   0.83333   0.00000  Uiso   1.00
O677   O     0.10655   0.20625   0.83333   0.00000  Uiso   1.00
O678   O     0.22679   0.12709   0.83334   0.00000  Uiso   1.00
O679   O     0.22679   0.20625   0.83334   0.00000  Uiso   1.00
O680   O     0.10655   0.12709   0.83333   0.00000  Uiso   1.00
O681   O     0.16667   0.20625   0.76280   0.00000  Uiso   1.00
O682   O     0.16667   0.12708   0.90387   0.00000  Uiso   1.00
O683   O     0.16667   0.20625   0.90387   0.00000  Uiso   1.00
O684   O     0.16667   0.12708   0.76280   0.00000  Uiso   1.00
C685   C     0.42072   0.16667   0.83330   0.00000  Uiso   1.00
C686   C     0.35470   0.20447   0.85389   0.00000  Uiso   1.00
C687   C     0.62388   0.16667   0.83336   0.00000  Uiso   1.00
C688   C     0.37612   0.16667   0.83330   0.00000  Uiso   1.00
C689   C     0.47399   0.02479   0.80334   0.00000  Uiso   1.00
C690   C     0.52601   0.30854   0.86332   0.00000  Uiso   1.00
C691   C     0.52602   0.02479   0.86331   0.00000  Uiso   1.00
C692   C     0.47398   0.30854   0.80335   0.00000  Uiso   1.00
C693   C     0.57928   0.16667   0.83337   0.00000  Uiso   1.00
C694   C     0.49998   0.16667   0.74020   0.00000  Uiso   1.00
C695   C     0.50002   0.16667   0.92647   0.00000  Uiso   1.00
C696   C     0.49999   0.16667   0.68851   0.00000  Uiso   1.00
C697   C     0.50001   0.16666   0.97816   0.00000  Uiso   1.00
C698   C     0.35456   0.12887   0.81274   0.00000  Uiso   1.00
C699   C     0.64544   0.20447   0.85392   0.00000  Uiso   1.00
C700   C     0.64530   0.12886   0.81278   0.00000  Uiso   1.00
Cu701  Cu    0.50000   0.21355   0.83333   0.00000  Uiso   1.00
Cu702  Cu    0.50000   0.11978   0.83333   0.00000  Uiso   1.00
F703   F     0.37461   0.09248   0.79145   0.00000  Uiso   1.00
F704   F     0.62539   0.24085   0.87521   0.00000  Uiso   1.00
F705   F     0.62511   0.09246   0.79154   0.00000  Uiso   1.00
F706   F     0.37489   0.24087   0.87512   0.00000  Uiso   1.00
H707   H     0.45317   0.04345   0.77928   0.00000  Uiso   1.00
H708   H     0.54683   0.28989   0.88739   0.00000  Uiso   1.00
H709   H     0.54687   0.04346   0.88734   0.00000  Uiso   1.00
H710   H     0.45313   0.28988   0.77932   0.00000  Uiso   1.00
N711   N     0.50000   0.28402   0.83333   0.00000  Uiso   1.00
N712   N     0.50000   0.04931   0.83333   0.00000  Uiso   1.00
O713   O     0.43988   0.20625   0.83333   0.00000  Uiso   1.00
O714   O     0.56012   0.12709   0.83334   0.00000  Uiso   1.00
O715   O     0.56012   0.20625   0.83334   0.00000  Uiso   1.00
O716   O     0.43988   0.12709   0.83333   0.00000  Uiso   1.00
O717   O     0.50000   0.20625   0.76280   0.00000  Uiso   1.00
O718   O     0.50000   0.12708   0.90387   0.00000  Uiso   1.00
O719   O     0.50000   0.20625   0.90387   0.00000  Uiso   1.00
O720   O     0.50000   0.12708   0.76280   0.00000  Uiso   1.00
C721   C     0.75406   0.16667   0.83330   0.00000  Uiso   1.00
C722   C     0.68804   0.20447   0.85389   0.00000  Uiso   1.00
C723   C     0.95722   0.16667   0.83336   0.00000  Uiso   1.00
C724   C     0.70945   0.16667   0.83330   0.00000  Uiso   1.00
C725   C     0.80732   0.02479   0.80334   0.00000  Uiso   1.00
C726   C     0.85934   0.30854   0.86332   0.00000  Uiso   1.00
C727   C     0.85935   0.02479   0.86331   0.00000  Uiso   1.00
C728   C     0.80731   0.30854   0.80335   0.00000  Uiso   1.00
C729   C     0.91261   0.16667   0.83337   0.00000  Uiso   1.00
C730   C     0.83331   0.16667   0.74020   0.00000  Uiso   1.00
C731   C     0.83335   0.16667   0.92647   0.00000  Uiso   1.00
C732   C     0.83333   0.16667   0.68851   0.00000  Uiso   1.00
C733   C     0.83334   0.16666   0.97816   0.00000  Uiso   1.00
C734   C     0.68790   0.12887   0.81274   0.00000  Uiso   1.00
C735   C     0.97877   0.20447   0.85392   0.00000  Uiso   1.00
C736   C     0.97863   0.12886   0.81278   0.00000  Uiso   1.00
Cu737  Cu    0.83333   0.21355   0.83333   0.00000  Uiso   1.00
Cu738  Cu    0.83333   0.11978   0.83333   0.00000  Uiso   1.00
F739   F     0.70794   0.09248   0.79145   0.00000  Uiso   1.00
F740   F     0.95872   0.24085   0.87521   0.00000  Uiso   1.00
F741   F     0.95844   0.09246   0.79154   0.00000  Uiso   1.00
F742   F     0.70823   0.24087   0.87512   0.00000  Uiso   1.00
H743   H     0.78650   0.04345   0.77928   0.00000  Uiso   1.00
H744   H     0.88017   0.28989   0.88739   0.00000  Uiso   1.00
H745   H     0.88021   0.04346   0.88734   0.00000  Uiso   1.00
H746   H     0.78646   0.28988   0.77932   0.00000  Uiso   1.00
N747   N     0.83333   0.28402   0.83333   0.00000  Uiso   1.00
N748   N     0.83333   0.04931   0.83333   0.00000  Uiso   1.00
O749   O     0.77321   0.20625   0.83333   0.00000  Uiso   1.00
O750   O     0.89345   0.12709   0.83334   0.00000  Uiso   1.00
O751   O     0.89345   0.20625   0.83334   0.00000  Uiso   1.00
O752   O     0.77321   0.12709   0.83333   0.00000  Uiso   1.00
O753   O     0.83333   0.20625   0.76280   0.00000  Uiso   1.00
O754   O     0.83333   0.12708   0.90387   0.00000  Uiso   1.00
O755   O     0.83333   0.20625   0.90387   0.00000  Uiso   1.00
O756   O     0.83333   0.12708   0.76280   0.00000  Uiso   1.00
C757   C     0.08739   0.50000   0.83330   0.00000  Uiso   1.00
C758   C     0.02137   0.53781   0.85389   0.00000  Uiso   1.00
C759   C     0.29055   0.50000   0.83336   0.00000  Uiso   1.00
C760   C     0.04278   0.50000   0.83330   0.00000  Uiso   1.00
C761   C     0.14066   0.35812   0.80334   0.00000  Uiso   1.00
C762   C     0.19268   0.64188   0.86332   0.00000  Uiso   1.00
C763   C     0.19269   0.35813   0.86331   0.00000  Uiso   1.00
C764   C     0.14065   0.64187   0.80335   0.00000  Uiso   1.00
C765   C     0.24594   0.50000   0.83337   0.00000  Uiso   1.00
C766   C     0.16665   0.50000   0.74020   0.00000  Uiso   1.00
C767   C     0.16669   0.50000   0.92647   0.00000  Uiso   1.00
C768   C     0.16666   0.50000   0.68851   0.00000  Uiso   1.00
C769   C     0.16667   0.50000   0.97816   0.00000  Uiso   1.00
C770   C     0.02123   0.46220   0.81274   0.00000  Uiso   1.00
C771   C     0.31210   0.53780   0.85392   0.00000  Uiso   1.00
C772   C     0.31196   0.46219   0.81278   0.00000  Uiso   1.00
Cu773  Cu    0.16667   0.54689   0.83333   0.00000  Uiso   1.00
Cu774  Cu    0.16667   0.45311   0.83333   0.00000  Uiso   1.00
F775   F     0.04128   0.42582   0.79145   0.00000  Uiso   1.00
F776   F     0.29206   0.57418   0.87521   0.00000  Uiso   1.00
F777   F     0.29177   0.42579   0.79154   0.00000  Uiso   1.00
F778   F     0.04156   0.57421   0.87512   0.00000  Uiso   1.00
H779   H     0.11983   0.37678   0.77928   0.00000  Uiso   1.00
H780   H     0.21350   0.62322   0.88739   0.00000  Uiso   1.00
H781   H     0.21354   0.37679   0.88734   0.00000  Uiso   1.00
H782   H     0.11980   0.62321   0.77932   0.00000  Uiso   1.00
N783   N     0.16667   0.61736   0.83333   0.00000  Uiso   1.00
N784   N     0.16667   0.38264   0.83333   0.00000  Uiso   1.00
O785   O     0.10655   0.53958   0.83333   0.00000  Uiso   1.00
O786   O     0.22679   0.46042   0.83334   0.00000  Uiso   1.00
O787   O     0.22679   0.53958   0.83334   0.00000  Uiso   1.00
O788   O     0.10655   0.46042   0.83333   0.00000  Uiso   1.00
O789   O     0.16667   0.53959   0.76280   0.00000  Uiso   1.00
O790   O     0.16667   0.46041   0.90387   0.00000  Uiso   1.00
O791   O     0.16667   0.53959   0.90387   0.00000  Uiso   1.00
O792   O     0.16667   0.46041   0.76280   0.00000  Uiso   1.00
C793   C     0.42072   0.50000   0.83330   0.00000  Uiso   1.00
C794   C     0.35470   0.53781   0.85389   0.00000  Uiso   1.00
C795   C     0.62388   0.50000   0.83336   0.00000  Uiso   1.00
C796   C     0.37612   0.50000   0.83330   0.00000  Uiso   1.00
C797   C     0.47399   0.35812   0.80334   0.00000  Uiso   1.00
C798   C     0.52601   0.64188   0.86332   0.00000  Uiso   1.00
C799   C     0.52602   0.35813   0.86331   0.00000  Uiso   1.00
C800   C     0.47398   0.64187   0.80335   0.00000  Uiso   1.00
C801   C     0.57928   0.50000   0.83337   0.00000  Uiso   1.00
C802   C     0.49998   0.50000   0.74020   0.00000  Uiso   1.00
C803   C     0.50002   0.50000   0.92647   0.00000  Uiso   1.00
C804   C     0.49999   0.50000   0.68851   0.00000  Uiso   1.00
C805   C     0.50001   0.50000   0.97816   0.00000  Uiso   1.00
C806   C     0.35456   0.46220   0.81274   0.00000  Uiso   1.00
C807   C     0.64544   0.53780   0.85392   0.00000  Uiso   1.00
C808   C     0.64530   0.46219   0.81278   0.00000  Uiso   1.00
Cu809  Cu    0.50000   0.54689   0.83333   0.00000  Uiso   1.00
Cu810  Cu    0.50000   0.45311   0.83333   0.00000  Uiso   1.00
F811   F     0.37461   0.42582   0.79145   0.00000  Uiso   1.00
F812   F     0.62539   0.57418   0.87521   0.00000  Uiso   1.00
F813   F     0.62511   0.42579   0.79154   0.00000  Uiso   1.00
F814   F     0.37489   0.57421   0.87512   0.00000  Uiso   1.00
H815   H     0.45317   0.37678   0.77928   0.00000  Uiso   1.00
H816   H     0.54683   0.62322   0.88739   0.00000  Uiso   1.00
H817   H     0.54687   0.37679   0.88734   0.00000  Uiso   1.00
H818   H     0.45313   0.62321   0.77932   0.00000  Uiso   1.00
N819   N     0.50000   0.61736   0.83333   0.00000  Uiso   1.00
N820   N     0.50000   0.38264   0.83333   0.00000  Uiso   1.00
O821   O     0.43988   0.53958   0.83333   0.00000  Uiso   1.00
O822   O     0.56012   0.46042   0.83334   0.00000  Uiso   1.00
O823   O     0.56012   0.53958   0.83334   0.00000  Uiso   1.00
O824   O     0.43988   0.46042   0.83333   0.00000  Uiso   1.00
O825   O     0.50000   0.53959   0.76280   0.00000  Uiso   1.00
O826   O     0.50000   0.46041   0.90387   0.00000  Uiso   1.00
O827   O     0.50000   0.53959   0.90387   0.00000  Uiso   1.00
O828   O     0.50000   0.46041   0.76280   0.00000  Uiso   1.00
C829   C     0.75406   0.50000   0.83330   0.00000  Uiso   1.00
C830   C     0.68804   0.53781   0.85389   0.00000  Uiso   1.00
C831   C     0.95722   0.50000   0.83336   0.00000  Uiso   1.00
C832   C     0.70945   0.50000   0.83330   0.00000  Uiso   1.00
C833   C     0.80732   0.35812   0.80334   0.00000  Uiso   1.00
C834   C     0.85934   0.64188   0.86332   0.00000  Uiso   1.00
C835   C     0.85935   0.35813   0.86331   0.00000  Uiso   1.00
C836   C     0.80731   0.64187   0.80335   0.00000  Uiso   1.00
C837   C     0.91261   0.50000   0.83337   0.00000  Uiso   1.00
C838   C     0.83331   0.50000   0.74020   0.00000  Uiso   1.00
C839   C     0.83335   0.50000   0.92647   0.00000  Uiso   1.00
C840   C     0.83333   0.50000   0.68851   0.00000  Uiso   1.00
C841   C     0.83334   0.50000   0.97816   0.00000  Uiso   1.00
C842   C     0.68790   0.46220   0.81274   0.00000  Uiso   1.00
C843   C     0.97877   0.53780   0.85392   0.00000  Uiso   1.00
C844   C     0.97863   0.46219   0.81278   0.00000  Uiso   1.00
Cu845  Cu    0.83333   0.54689   0.83333   0.00000  Uiso   1.00
Cu846  Cu    0.83333   0.45311   0.83333   0.00000  Uiso   1.00
F847   F     0.70794   0.42582   0.79145   0.00000  Uiso   1.00
F848   F     0.95872   0.57418   0.87521   0.00000  Uiso   1.00
F849   F     0.95844   0.42579   0.79154   0.00000  Uiso   1.00
F850   F     0.70823   0.57421   0.87512   0.00000  Uiso   1.00
H851   H     0.78650   0.37678   0.77928   0.00000  Uiso   1.00
H852   H     0.88017   0.62322   0.88739   0.00000  Uiso   1.00
H853   H     0.88021   0.37679   0.88734   0.00000  Uiso   1.00
H854   H     0.78646   0.62321   0.77932   0.00000  Uiso   1.00
N855   N     0.83333   0.61736   0.83333   0.00000  Uiso   1.00
N856   N     0.83333   0.38264   0.83333   0.00000  Uiso   1.00
O857   O     0.77321   0.53958   0.83333   0.00000  Uiso   1.00
O858   O     0.89345   0.46042   0.83334   0.00000  Uiso   1.00
O859   O     0.89345   0.53958   0.83334   0.00000  Uiso   1.00
O860   O     0.77321   0.46042   0.83333   0.00000  Uiso   1.00
O861   O     0.83333   0.53959   0.76280   0.00000  Uiso   1.00
O862   O     0.83333   0.46041   0.90387   0.00000  Uiso   1.00
O863   O     0.83333   0.53959   0.90387   0.00000  Uiso   1.00
O864   O     0.83333   0.46041   0.76280   0.00000  Uiso   1.00
C865   C     0.08739   0.83333   0.83330   0.00000  Uiso   1.00
C866   C     0.02137   0.87114   0.85389   0.00000  Uiso   1.00
C867   C     0.29055   0.83333   0.83336   0.00000  Uiso   1.00
C868   C     0.04278   0.83333   0.83330   0.00000  Uiso   1.00
C869   C     0.14066   0.69146   0.80334   0.00000  Uiso   1.00
C870   C     0.19268   0.97521   0.86332   0.00000  Uiso   1.00
C871   C     0.19269   0.69146   0.86331   0.00000  Uiso   1.00
C872   C     0.14065   0.97521   0.80335   0.00000  Uiso   1.00
C873   C     0.24594   0.83333   0.83337   0.00000  Uiso   1.00
C874   C     0.16665   0.83334   0.74020   0.00000  Uiso   1.00
C875   C     0.16669   0.83333   0.92647   0.00000  Uiso   1.00
C876   C     0.16666   0.83334   0.68851   0.00000  Uiso   1.00
C877   C     0.16667   0.83333   0.97816   0.00000  Uiso   1.00
C878   C     0.02123   0.79553   0.81274   0.00000  Uiso   1.00
C879   C     0.31210   0.87113   0.85392   0.00000  Uiso   1.00
C880   C     0.31196   0.79553   0.81278   0.00000  Uiso   1.00
Cu881  Cu    0.16667   0.88022   0.83333   0.00000  Uiso   1.00
Cu882  Cu    0.16667   0.78645   0.83333   0.00000  Uiso   1.00
F883   F     0.04128   0.75915   0.79145   0.00000  Uiso   1.00
F884   F     0.29206   0.90752   0.87521   0.00000  Uiso   1.00
F885   F     0.29177   0.75913   0.79154   0.00000  Uiso   1.00
F886   F     0.04156   0.90754   0.87512   0.00000  Uiso   1.00
H887   H     0.11983   0.71011   0.77928   0.00000  Uiso   1.00
H888   H     0.21350   0.95655   0.88739   0.00000  Uiso   1.00
H889   H     0.21354   0.71012   0.88734   0.00000  Uiso   1.00
H890   H     0.11980   0.95654   0.77932   0.00000  Uiso   1.00
N891   N     0.16667   0.95069   0.83333   0.00000  Uiso   1.00
N892   N     0.16667   0.71598   0.83333   0.00000  Uiso   1.00
O893   O     0.10655   0.87291   0.83333   0.00000  Uiso   1.00
O894   O     0.22679   0.79375   0.83334   0.00000  Uiso   1.00
O895   O     0.22679   0.87291   0.83334   0.00000  Uiso   1.00
O896   O     0.10655   0.79375   0.83333   0.00000  Uiso   1.00
O897   O     0.16667   0.87292   0.76280   0.00000  Uiso   1.00
O898   O     0.16667   0.79375   0.90387   0.00000  Uiso   1.00
O899   O     0.16667   0.87292   0.90387   0.00000  Uiso   1.00
O900   O     0.16667   0.79375   0.76280   0.00000  Uiso   1.00
C901   C     0.42072   0.83333   0.83330   0.00000  Uiso   1.00
C902   C     0.35470   0.87114   0.85389   0.00000  Uiso   1.00
C903   C     0.62388   0.83333   0.83336   0.00000  Uiso   1.00
C904   C     0.37612   0.83333   0.83330   0.00000  Uiso   1.00
C905   C     0.47399   0.69146   0.80334   0.00000  Uiso   1.00
C906   C     0.52601   0.97521   0.86332   0.00000  Uiso   1.00
C907   C     0.52602   0.69146   0.86331   0.00000  Uiso   1.00
C908   C     0.47398   0.97521   0.80335   0.00000  Uiso   1.00
C909   C     0.57928   0.83333   0.83337   0.00000  Uiso   1.00
C910   C     0.49998   0.83334   0.74020   0.00000  Uiso   1.00
C911   C     0.50002   0.83333   0.92647   0.00000  Uiso   1.00
C912   C     0.49999   0.83334   0.68851   0.00000  Uiso   1.00
C913   C     0.50001   0.83333   0.97816   0.00000  Uiso   1.00
C914   C     0.35456   0.79553   0.81274   0.00000  Uiso   1.00
C915   C     0.64544   0.87113   0.85392   0.00000  Uiso   1.00
C916   C     0.64530   0.79553   0.81278   0.00000  Uiso   1.00
Cu917  Cu    0.50000   0.88022   0.83333   0.00000  Uiso   1.00
Cu918  Cu    0.50000   0.78645   0.83333   0.00000  Uiso   1.00
F919   F     0.37461   0.75915   0.79145   0.00000  Uiso   1.00
F920   F     0.62539   0.90752   0.87521   0.00000  Uiso   1.00
F921   F     0.62511   0.75913   0.79154   0.00000  Uiso   1.00
F922   F     0.37489   0.90754   0.87512   0.00000  Uiso   1.00
H923   H     0.45317   0.71011   0.77928   0.00000  Uiso   1.00
H924   H     0.54683   0.95655   0.88739   0.00000  Uiso   1.00
H925   H     0.54687   0.71012   0.88734   0.00000  Uiso   1.00
H926   H     0.45313   0.95654   0.77932   0.00000  Uiso   1.00
N927   N     0.50000   0.95069   0.83333   0.00000  Uiso   1.00
N928   N     0.50000   0.71598   0.83333   0.00000  Uiso   1.00
O929   O     0.43988   0.87291   0.83333   0.00000  Uiso   1.00
O930   O     0.56012   0.79375   0.83334   0.00000  Uiso   1.00
O931   O     0.56012   0.87291   0.83334   0.00000  Uiso   1.00
O932   O     0.43988   0.79375   0.83333   0.00000  Uiso   1.00
O933   O     0.50000   0.87292   0.76280   0.00000  Uiso   1.00
O934   O     0.50000   0.79375   0.90387   0.00000  Uiso   1.00
O935   O     0.50000   0.87292   0.90387   0.00000  Uiso   1.00
O936   O     0.50000   0.79375   0.76280   0.00000  Uiso   1.00
C937   C     0.75406   0.83333   0.83330   0.00000  Uiso   1.00
C938   C     0.68804   0.87114   0.85389   0.00000  Uiso   1.00
C939   C     0.95722   0.83333   0.83336   0.00000  Uiso   1.00
C940   C     0.70945   0.83333   0.83330   0.00000  Uiso   1.00
C941   C     0.80732   0.69146   0.80334   0.00000  Uiso   1.00
C942   C     0.85934   0.97521   0.86332   0.00000  Uiso   1.00
C943   C     0.85935   0.69146   0.86331   0.00000  Uiso   1.00
C944   C     0.80731   0.97521   0.80335   0.00000  Uiso   1.00
C945   C     0.91261   0.83333   0.83337   0.00000  Uiso   1.00
C946   C     0.83331   0.83334   0.74020   0.00000  Uiso   1.00
C947   C     0.83335   0.83333   0.92647   0.00000  Uiso   1.00
C948   C     0.83333   0.83334   0.68851   0.00000  Uiso   1.00
C949   C     0.83334   0.83333   0.97816   0.00000  Uiso   1.00
C950   C     0.68790   0.79553   0.81274   0.00000  Uiso   1.00
C951   C     0.97877   0.87113   0.85392   0.00000  Uiso   1.00
C952   C     0.97863   0.79553   0.81278   0.00000  Uiso   1.00
Cu953  Cu    0.83333   0.88022   0.83333   0.00000  Uiso   1.00
Cu954  Cu    0.83333   0.78645   0.83333   0.00000  Uiso   1.00
F955   F     0.70794   0.75915   0.79145   0.00000  Uiso   1.00
F956   F     0.95872   0.90752   0.87521   0.00000  Uiso   1.00
F957   F     0.95844   0.75913   0.79154   0.00000  Uiso   1.00
F958   F     0.70823   0.90754   0.87512   0.00000  Uiso   1.00
H959   H     0.78650   0.71011   0.77928   0.00000  Uiso   1.00
H960   H     0.88017   0.95655   0.88739   0.00000  Uiso   1.00
H961   H     0.88021   0.71012   0.88734   0.00000  Uiso   1.00
H962   H     0.78646   0.95654   0.77932   0.00000  Uiso   1.00
N963   N     0.83333   0.95069   0.83333   0.00000  Uiso   1.00
N964   N     0.83333   0.71598   0.83333   0.00000  Uiso   1.00
O965   O     0.77321   0.87291   0.83333   0.00000  Uiso   1.00
O966   O     0.89345   0.79375   0.83334   0.00000  Uiso   1.00
O967   O     0.89345   0.87291   0.83334   0.00000  Uiso   1.00
O968   O     0.77321   0.79375   0.83333   0.00000  Uiso   1.00
O969   O     0.83333   0.87292   0.76280   0.00000  Uiso   1.00
O970   O     0.83333   0.79375   0.90387   0.00000  Uiso   1.00
O971   O     0.83333   0.87292   0.90387   0.00000  Uiso   1.00
O972   O     0.83333   0.79375   0.76280   0.00000  Uiso   1.00
loop_
_geom_bond_atom_site_label_1
_geom_bond_atom_site_label_2
_geom_bond_distance
_geom_bond_site_symmetry_2
_ccdc_geom_bond_type
C1     C4      1.450   .     S
C1     O29     1.291   .     A
C1     O32     1.291   .     A
C2     F22     1.359   .     S
C2     C4      1.404   .     A
C2     C87     1.385   1_455 S
C3     C9      1.450   .     S
C3     C15     1.403   .     A
C3     C16     1.404   .     A
C4     C14     1.403   .     A
C5     N28     1.367   .     A
C5     H23     1.082   .     S
C5     C224    1.417   1_545 S
C6     N27     1.367   .     A
C6     H24     1.082   .     S
C6     C115    1.417   .     S
C7     H25     1.082   .     S
C7     N28     1.367   .     A
C7     C222    1.417   1_545 S
C8     H26     1.082   .     S
C8     N27     1.367   .     A
C8     C113    1.417   .     S
C9     O30     1.291   .     A
C9     O31     1.291   .     A
C10    C12     1.409   .     S
C10    O33     1.288   .     A
C10    O36     1.288   .     A
C11    C13     1.409   .     S
C11    O35     1.288   .     A
C11    O34     1.288   .     A
C12    C661    1.190   1_554 S
C13    C336    1.190   .     S
C14    F19     1.359   .     S
C14    C88     1.385   1_455 S
C15    F20     1.359   .     S
C15    C38     1.385   .     S
C16    F21     1.359   .     S
C16    C50     1.385   .     S
Cu17   Cu18    2.681   .     S
Cu17   O29     1.965   .     S
Cu17   O33     1.934   .     S
Cu17   O31     1.965   .     S
Cu17   N27     2.014   .     S
Cu17   O35     1.934   .     S
Cu18   O30     1.965   .     S
Cu18   N28     2.014   .     S
Cu18   O34     1.934   .     S
Cu18   O32     1.965   .     S
Cu18   O36     1.934   .     S
C37    C40     1.450   .     S
C37    O65     1.291   .     A
C37    O68     1.291   .     A
C38    F58     1.359   .     S
C38    C40     1.404   .     A
C39    C45     1.450   .     S
C39    C51     1.403   .     A
C39    C52     1.404   .     A
C40    C50     1.403   .     A
C41    N64     1.367   .     A
C41    H59     1.082   .     S
C41    C260    1.417   1_545 S
C42    N63     1.367   .     A
C42    H60     1.082   .     S
C42    C151    1.417   .     S
C43    H61     1.082   .     S
C43    N64     1.367   .     A
C43    C258    1.417   1_545 S
C44    H62     1.082   .     S
C44    N63     1.367   .     A
C44    C149    1.417   .     S
C45    O66     1.291   .     A
C45    O67     1.291   .     A
C46    C48     1.409   .     S
C46    O69     1.288   .     A
C46    O72     1.288   .     A
C47    C49     1.409   .     S
C47    O71     1.288   .     A
C47    O70     1.288   .     A
C48    C697    1.190   1_554 S
C49    C372    1.190   .     S
C50    F55     1.359   .     S
C51    F56     1.359   .     S
C51    C74     1.385   .     S
C52    F57     1.359   .     S
C52    C86     1.385   .     S
Cu53   Cu54    2.681   .     S
Cu53   O65     1.965   .     S
Cu53   O69     1.934   .     S
Cu53   O67     1.965   .     S
Cu53   N63     2.014   .     S
Cu53   O71     1.934   .     S
Cu54   O66     1.965   .     S
Cu54   N64     2.014   .     S
Cu54   O70     1.934   .     S
Cu54   O68     1.965   .     S
Cu54   O72     1.934   .     S
C73    C76     1.450   .     S
C73    O101    1.291   .     A
C73    O104    1.291   .     A
C74    F94     1.359   .     S
C74    C76     1.404   .     A
C75    C81     1.450   .     S
C75    C87     1.403   .     A
C75    C88     1.404   .     A
C76    C86     1.403   .     A
C77    N100    1.367   .     A
C77    H95     1.082   .     S
C77    C296    1.417   1_545 S
C78    N99     1.367   .     A
C78    H96     1.082   .     S
C78    C187    1.417   .     S
C79    H97     1.082   .     S
C79    N100    1.367   .     A
C79    C294    1.417   1_545 S
C80    H98     1.082   .     S
C80    N99     1.367   .     A
C80    C185    1.417   .     S
C81    O102    1.291   .     A
C81    O103    1.291   .     A
C82    C84     1.409   .     S
C82    O105    1.288   .     A
C82    O108    1.288   .     A
C83    C85     1.409   .     S
C83    O107    1.288   .     A
C83    O106    1.288   .     A
C84    C733    1.190   1_554 S
C85    C408    1.190   .     S
C86    F91     1.359   .     S
C87    F92     1.359   .     S
C87    C2      1.385   1_655 S
C88    F93     1.359   .     S
C88    C14     1.385   1_655 S
Cu89   Cu90    2.681   .     S
Cu89   O101    1.965   .     S
Cu89   O105    1.934   .     S
Cu89   O103    1.965   .     S
Cu89   N99     2.014   .     S
Cu89   O107    1.934   .     S
Cu90   O102    1.965   .     S
Cu90   N100    2.014   .     S
Cu90   O106    1.934   .     S
Cu90   O104    1.965   .     S
Cu90   O108    1.934   .     S
C109   C112    1.450   .     S
C109   O137    1.291   .     A
C109   O140    1.291   .     A
C110   F130    1.359   .     S
C110   C112    1.404   .     A
C110   C195    1.385   1_455 S
C111   C117    1.450   .     S
C111   C123    1.403   .     A
C111   C124    1.404   .     A
C112   C122    1.403   .     A
C113   N136    1.367   .     A
C113   H131    1.082   .     S
C114   N135    1.367   .     A
C114   H132    1.082   .     S
C114   C223    1.417   .     S
C115   H133    1.082   .     S
C115   N136    1.367   .     A
C116   H134    1.082   .     S
C116   N135    1.367   .     A
C116   C221    1.417   .     S
C117   O138    1.291   .     A
C117   O139    1.291   .     A
C118   C120    1.409   .     S
C118   O141    1.288   .     A
C118   O144    1.288   .     A
C119   C121    1.409   .     S
C119   O143    1.288   .     A
C119   O142    1.288   .     A
C120   C769    1.190   1_554 S
C121   C444    1.190   .     S
C122   F127    1.359   .     S
C122   C196    1.385   1_455 S
C123   F128    1.359   .     S
C123   C146    1.385   .     S
C124   F129    1.359   .     S
C124   C158    1.385   .     S
Cu125  Cu126   2.681   .     S
Cu125  O137    1.965   .     S
Cu125  O141    1.934   .     S
Cu125  O139    1.965   .     S
Cu125  N135    2.014   .     S
Cu125  O143    1.934   .     S
Cu126  O138    1.965   .     S
Cu126  N136    2.014   .     S
Cu126  O142    1.934   .     S
Cu126  O140    1.965   .     S
Cu126  O144    1.934   .     S
C145   C148    1.450   .     S
C145   O173    1.291   .     A
C145   O176    1.291   .     A
C146   F166    1.359   .     S
C146   C148    1.404   .     A
C147   C153    1.450   .     S
C147   C159    1.403   .     A
C147   C160    1.404   .     A
C148   C158    1.403   .     A
C149   N172    1.367   .     A
C149   H167    1.082   .     S
C150   N171    1.367   .     A
C150   H168    1.082   .     S
C150   C259    1.417   .     S
C151   H169    1.082   .     S
C151   N172    1.367   .     A
C152   H170    1.082   .     S
C152   N171    1.367   .     A
C152   C257    1.417   .     S
C153   O174    1.291   .     A
C153   O175    1.291   .     A
C154   C156    1.409   .     S
C154   O177    1.288   .     A
C154   O180    1.288   .     A
C155   C157    1.409   .     S
C155   O179    1.288   .     A
C155   O178    1.288   .     A
C156   C805    1.190   1_554 S
C157   C480    1.190   .     S
C158   F163    1.359   .     S
C159   F164    1.359   .     S
C159   C182    1.385   .     S
C160   F165    1.359   .     S
C160   C194    1.385   .     S
Cu161  Cu162   2.681   .     S
Cu161  O173    1.965   .     S
Cu161  O177    1.934   .     S
Cu161  O175    1.965   .     S
Cu161  N171    2.014   .     S
Cu161  O179    1.934   .     S
Cu162  O174    1.965   .     S
Cu162  N172    2.014   .     S
Cu162  O178    1.934   .     S
Cu162  O176    1.965   .     S
Cu162  O180    1.934   .     S
C181   C184    1.450   .     S
C181   O209    1.291   .     A
C181   O212    1.291   .     A
C182   F202    1.359   .     S
C182   C184    1.404   .     A
C183   C189    1.450   .     S
C183   C195    1.403   .     A
C183   C196    1.404   .     A
C184   C194    1.403   .     A
C185   N208    1.367   .     A
C185   H203    1.082   .     S
C186   N207    1.367   .     A
C186   H204    1.082   .     S
C186   C295    1.417   .     S
C187   H205    1.082   .     S
C187   N208    1.367   .     A
C188   H206    1.082   .     S
C188   N207    1.367   .     A
C188   C293    1.417   .     S
C189   O210    1.291   .     A
C189   O211    1.291   .     A
C190   C192    1.409   .     S
C190   O213    1.288   .     A
C190   O216    1.288   .     A
C191   C193    1.409   .     S
C191   O215    1.288   .     A
C191   O214    1.288   .     A
C192   C841    1.190   1_554 S
C193   C516    1.190   .     S
C194   F199    1.359   .     S
C195   F200    1.359   .     S
C195   C110    1.385   1_655 S
C196   F201    1.359   .     S
C196   C122    1.385   1_655 S
Cu197  Cu198   2.681   .     S
Cu197  O209    1.965   .     S
Cu197  O213    1.934   .     S
Cu197  O211    1.965   .     S
Cu197  N207    2.014   .     S
Cu197  O215    1.934   .     S
Cu198  O210    1.965   .     S
Cu198  N208    2.014   .     S
Cu198  O214    1.934   .     S
Cu198  O212    1.965   .     S
Cu198  O216    1.934   .     S
C217   C220    1.450   .     S
C217   O245    1.291   .     A
C217   O248    1.291   .     A
C218   F238    1.359   .     S
C218   C220    1.404   .     A
C218   C303    1.385   1_455 S
C219   C225    1.450   .     S
C219   C231    1.403   .     A
C219   C232    1.404   .     A
C220   C230    1.403   .     A
C221   N244    1.367   .     A
C221   H239    1.082   .     S
C222   N243    1.367   .     A
C222   H240    1.082   .     S
C222   C7      1.417   1_565 S
C223   H241    1.082   .     S
C223   N244    1.367   .     A
C224   H242    1.082   .     S
C224   N243    1.367   .     A
C224   C5      1.417   1_565 S
C225   O246    1.291   .     A
C225   O247    1.291   .     A
C226   C228    1.409   .     S
C226   O249    1.288   .     A
C226   O252    1.288   .     A
C227   C229    1.409   .     S
C227   O251    1.288   .     A
C227   O250    1.288   .     A
C228   C877    1.190   1_554 S
C229   C552    1.190   .     S
C230   F235    1.359   .     S
C230   C304    1.385   1_455 S
C231   F236    1.359   .     S
C231   C254    1.385   .     S
C232   F237    1.359   .     S
C232   C266    1.385   .     S
Cu233  Cu234   2.681   .     S
Cu233  O245    1.965   .     S
Cu233  O249    1.934   .     S
Cu233  O247    1.965   .     S
Cu233  N243    2.014   .     S
Cu233  O251    1.934   .     S
Cu234  O246    1.965   .     S
Cu234  N244    2.014   .     S
Cu234  O250    1.934   .     S
Cu234  O248    1.965   .     S
Cu234  O252    1.934   .     S
C253   C256    1.450   .     S
C253   O281    1.291   .     A
C253   O284    1.291   .     A
C254   F274    1.359   .     S
C254   C256    1.404   .     A
C255   C261    1.450   .     S
C255   C267    1.403   .     A
C255   C268    1.404   .     A
C256   C266    1.403   .     A
C257   N280    1.367   .     A
C257   H275    1.082   .     S
C258   N279    1.367   .     A
C258   H276    1.082   .     S
C258   C43     1.417   1_565 S
C259   H277    1.082   .     S
C259   N280    1.367   .     A
C260   H278    1.082   .     S
C260   N279    1.367   .     A
C260   C41     1.417   1_565 S
C261   O282    1.291   .     A
C261   O283    1.291   .     A
C262   C264    1.409   .     S
C262   O285    1.288   .     A
C262   O288    1.288   .     A
C263   C265    1.409   .     S
C263   O287    1.288   .     A
C263   O286    1.288   .     A
C264   C913    1.190   1_554 S
C265   C588    1.190   .     S
C266   F271    1.359   .     S
C267   F272    1.359   .     S
C267   C290    1.385   .     S
C268   F273    1.359   .     S
C268   C302    1.385   .     S
Cu269  Cu270   2.681   .     S
Cu269  O281    1.965   .     S
Cu269  O285    1.934   .     S
Cu269  O283    1.965   .     S
Cu269  N279    2.014   .     S
Cu269  O287    1.934   .     S
Cu270  O282    1.965   .     S
Cu270  N280    2.014   .     S
Cu270  O286    1.934   .     S
Cu270  O284    1.965   .     S
Cu270  O288    1.934   .     S
C289   C292    1.450   .     S
C289   O317    1.291   .     A
C289   O320    1.291   .     A
C290   F310    1.359   .     S
C290   C292    1.404   .     A
C291   C297    1.450   .     S
C291   C303    1.403   .     A
C291   C304    1.404   .     A
C292   C302    1.403   .     A
C293   N316    1.367   .     A
C293   H311    1.082   .     S
C294   N315    1.367   .     A
C294   H312    1.082   .     S
C294   C79     1.417   1_565 S
C295   H313    1.082   .     S
C295   N316    1.367   .     A
C296   H314    1.082   .     S
C296   N315    1.367   .     A
C296   C77     1.417   1_565 S
C297   O318    1.291   .     A
C297   O319    1.291   .     A
C298   C300    1.409   .     S
C298   O321    1.288   .     A
C298   O324    1.288   .     A
C299   C301    1.409   .     S
C299   O323    1.288   .     A
C299   O322    1.288   .     A
C300   C949    1.190   1_554 S
C301   C624    1.190   .     S
C302   F307    1.359   .     S
C303   F308    1.359   .     S
C303   C218    1.385   1_655 S
C304   F309    1.359   .     S
C304   C230    1.385   1_655 S
Cu305  Cu306   2.681   .     S
Cu305  O317    1.965   .     S
Cu305  O321    1.934   .     S
Cu305  O319    1.965   .     S
Cu305  N315    2.014   .     S
Cu305  O323    1.934   .     S
Cu306  O318    1.965   .     S
Cu306  N316    2.014   .     S
Cu306  O322    1.934   .     S
Cu306  O320    1.965   .     S
Cu306  O324    1.934   .     S
C325   C328    1.450   .     S
C325   O353    1.291   .     A
C325   O356    1.291   .     A
C326   F346    1.359   .     S
C326   C328    1.404   .     A
C326   C411    1.385   1_455 S
C327   C333    1.450   .     S
C327   C339    1.403   .     A
C327   C340    1.404   .     A
C328   C338    1.403   .     A
C329   N352    1.367   .     A
C329   H347    1.082   .     S
C329   C548    1.417   1_545 S
C330   N351    1.367   .     A
C330   H348    1.082   .     S
C330   C439    1.417   .     S
C331   H349    1.082   .     S
C331   N352    1.367   .     A
C331   C546    1.417   1_545 S
C332   H350    1.082   .     S
C332   N351    1.367   .     A
C332   C437    1.417   .     S
C333   O354    1.291   .     A
C333   O355    1.291   .     A
C334   C336    1.409   .     S
C334   O357    1.288   .     A
C334   O360    1.288   .     A
C335   C337    1.409   .     S
C335   O359    1.288   .     A
C335   O358    1.288   .     A
C337   C660    1.190   .     S
C338   F343    1.359   .     S
C338   C412    1.385   1_455 S
C339   F344    1.359   .     S
C339   C362    1.385   .     S
C340   F345    1.359   .     S
C340   C374    1.385   .     S
Cu341  Cu342   2.681   .     S
Cu341  O353    1.965   .     S
Cu341  O357    1.934   .     S
Cu341  O355    1.965   .     S
Cu341  N351    2.014   .     S
Cu341  O359    1.934   .     S
Cu342  O354    1.965   .     S
Cu342  N352    2.014   .     S
Cu342  O358    1.934   .     S
Cu342  O356    1.965   .     S
Cu342  O360    1.934   .     S
C361   C364    1.450   .     S
C361   O389    1.291   .     A
C361   O392    1.291   .     A
C362   F382    1.359   .     S
C362   C364    1.404   .     A
C363   C369    1.450   .     S
C363   C375    1.403   .     A
C363   C376    1.404   .     A
C364   C374    1.403   .     A
C365   N388    1.367   .     A
C365   H383    1.082   .     S
C365   C584    1.417   1_545 S
C366   N387    1.367   .     A
C366   H384    1.082   .     S
C366   C475    1.417   .     S
C367   H385    1.082   .     S
C367   N388    1.367   .     A
C367   C582    1.417   1_545 S
C368   H386    1.082   .     S
C368   N387    1.367   .     A
C368   C473    1.417   .     S
C369   O390    1.291   .     A
C369   O391    1.291   .     A
C370   C372    1.409   .     S
C370   O393    1.288   .     A
C370   O396    1.288   .     A
C371   C373    1.409   .     S
C371   O395    1.288   .     A
C371   O394    1.288   .     A
C373   C696    1.190   .     S
C374   F379    1.359   .     S
C375   F380    1.359   .     S
C375   C398    1.385   .     S
C376   F381    1.359   .     S
C376   C410    1.385   .     S
Cu377  Cu378   2.681   .     S
Cu377  O389    1.965   .     S
Cu377  O393    1.934   .     S
Cu377  O391    1.965   .     S
Cu377  N387    2.014   .     S
Cu377  O395    1.934   .     S
Cu378  O390    1.965   .     S
Cu378  N388    2.014   .     S
Cu378  O394    1.934   .     S
Cu378  O392    1.965   .     S
Cu378  O396    1.934   .     S
C397   C400    1.450   .     S
C397   O425    1.291   .     A
C397   O428    1.291   .     A
C398   F418    1.359   .     S
C398   C400    1.404   .     A
C399   C405    1.450   .     S
C399   C411    1.403   .     A
C399   C412    1.404   .     A
C400   C410    1.403   .     A
C401   N424    1.367   .     A
C401   H419    1.082   .     S
C401   C620    1.417   1_545 S
C402   N423    1.367   .     A
C402   H420    1.082   .     S
C402   C511    1.417   .     S
C403   H421    1.082   .     S
C403   N424    1.367   .     A
C403   C618    1.417   1_545 S
C404   H422    1.082   .     S
C404   N423    1.367   .     A
C404   C509    1.417   .     S
C405   O426    1.291   .     A
C405   O427    1.291   .     A
C406   C408    1.409   .     S
C406   O429    1.288   .     A
C406   O432    1.288   .     A
C407   C409    1.409   .     S
C407   O431    1.288   .     A
C407   O430    1.288   .     A
C409   C732    1.190   .     S
C410   F415    1.359   .     S
C411   F416    1.359   .     S
C411   C326    1.385   1_655 S
C412   F417    1.359   .     S
C412   C338    1.385   1_655 S
Cu413  Cu414   2.681   .     S
Cu413  O425    1.965   .     S
Cu413  O429    1.934   .     S
Cu413  O427    1.965   .     S
Cu413  N423    2.014   .     S
Cu413  O431    1.934   .     S
Cu414  O426    1.965   .     S
Cu414  N424    2.014   .     S
Cu414  O430    1.934   .     S
Cu414  O428    1.965   .     S
Cu414  O432    1.934   .     S
C433   C436    1.450   .     S
C433   O461    1.291   .     A
C433   O464    1.291   .     A
C434   F454    1.359   .     S
C434   C436    1.404   .     A
C434   C519    1.385   1_455 S
C435   C441    1.450   .     S
C435   C447    1.403   .     A
C435   C448    1.404   .     A
C436   C446    1.403   .     A
C437   N460    1.367   .     A
C437   H455    1.082   .     S
C438   N459    1.367   .     A
C438   H456    1.082   .     S
C438   C547    1.417   .     S
C439   H457    1.082   .     S
C439   N460    1.367   .     A
C440   H458    1.082   .     S
C440   N459    1.367   .     A
C440   C545    1.417   .     S
C441   O462    1.291   .     A
C441   O463    1.291   .     A
C442   C444    1.409   .     S
C442   O465    1.288   .     A
C442   O468    1.288   .     A
C443   C445    1.409   .     S
C443   O467    1.288   .     A
C443   O466    1.288   .     A
C445   C768    1.190   .     S
C446   F451    1.359   .     S
C446   C520    1.385   1_455 S
C447   F452    1.359   .     S
C447   C470    1.385   .     S
C448   F453    1.359   .     S
C448   C482    1.385   .     S
Cu449  Cu450   2.681   .     S
Cu449  O461    1.965   .     S
Cu449  O465    1.934   .     S
Cu449  O463    1.965   .     S
Cu449  N459    2.014   .     S
Cu449  O467    1.934   .     S
Cu450  O462    1.965   .     S
Cu450  N460    2.014   .     S
Cu450  O466    1.934   .     S
Cu450  O464    1.965   .     S
Cu450  O468    1.934   .     S
C469   C472    1.450   .     S
C469   O497    1.291   .     A
C469   O500    1.291   .     A
C470   F490    1.359   .     S
C470   C472    1.404   .     A
C471   C477    1.450   .     S
C471   C483    1.403   .     A
C471   C484    1.404   .     A
C472   C482    1.403   .     A
C473   N496    1.367   .     A
C473   H491    1.082   .     S
C474   N495    1.367   .     A
C474   H492    1.082   .     S
C474   C583    1.417   .     S
C475   H493    1.082   .     S
C475   N496    1.367   .     A
C476   H494    1.082   .     S
C476   N495    1.367   .     A
C476   C581    1.417   .     S
C477   O498    1.291   .     A
C477   O499    1.291   .     A
C478   C480    1.409   .     S
C478   O501    1.288   .     A
C478   O504    1.288   .     A
C479   C481    1.409   .     S
C479   O503    1.288   .     A
C479   O502    1.288   .     A
C481   C804    1.190   .     S
C482   F487    1.359   .     S
C483   F488    1.359   .     S
C483   C506    1.385   .     S
C484   F489    1.359   .     S
C484   C518    1.385   .     S
Cu485  Cu486   2.681   .     S
Cu485  O497    1.965   .     S
Cu485  O501    1.934   .     S
Cu485  O499    1.965   .     S
Cu485  N495    2.014   .     S
Cu485  O503    1.934   .     S
Cu486  O498    1.965   .     S
Cu486  N496    2.014   .     S
Cu486  O502    1.934   .     S
Cu486  O500    1.965   .     S
Cu486  O504    1.934   .     S
C505   C508    1.450   .     S
C505   O533    1.291   .     A
C505   O536    1.291   .     A
C506   F526    1.359   .     S
C506   C508    1.404   .     A
C507   C513    1.450   .     S
C507   C519    1.403   .     A
C507   C520    1.404   .     A
C508   C518    1.403   .     A
C509   N532    1.367   .     A
C509   H527    1.082   .     S
C510   N531    1.367   .     A
C510   H528    1.082   .     S
C510   C619    1.417   .     S
C511   H529    1.082   .     S
C511   N532    1.367   .     A
C512   H530    1.082   .     S
C512   N531    1.367   .     A
C512   C617    1.417   .     S
C513   O534    1.291   .     A
C513   O535    1.291   .     A
C514   C516    1.409   .     S
C514   O537    1.288   .     A
C514   O540    1.288   .     A
C515   C517    1.409   .     S
C515   O539    1.288   .     A
C515   O538    1.288   .     A
C517   C840    1.190   .     S
C518   F523    1.359   .     S
C519   F524    1.359   .     S
C519   C434    1.385   1_655 S
C520   F525    1.359   .     S
C520   C446    1.385   1_655 S
Cu521  Cu522   2.681   .     S
Cu521  O533    1.965   .     S
Cu521  O537    1.934   .     S
Cu521  O535    1.965   .     S
Cu521  N531    2.014   .     S
Cu521  O539    1.934   .     S
Cu522  O534    1.965   .     S
Cu522  N532    2.014   .     S
Cu522  O538    1.934   .     S
Cu522  O536    1.965   .     S
Cu522  O540    1.934   .     S
C541   C544    1.450   .     S
C541   O569    1.291   .     A
C541   O572    1.291   .     A
C542   F562    1.359   .     S
C542   C544    1.404   .     A
C542   C627    1.385   1_455 S
C543   C549    1.450   .     S
C543   C555    1.403   .     A
C543   C556    1.404   .     A
C544   C554    1.403   .     A
C545   N568    1.367   .     A
C545   H563    1.082   .     S
C546   N567    1.367   .     A
C546   H564    1.082   .     S
C546   C331    1.417   1_565 S
C547   H565    1.082   .     S
C547   N568    1.367   .     A
C548   H566    1.082   .     S
C548   N567    1.367   .     A
C548   C329    1.417   1_565 S
C549   O570    1.291   .     A
C549   O571    1.291   .     A
C550   C552    1.409   .     S
C550   O573    1.288   .     A
C550   O576    1.288   .     A
C551   C553    1.409   .     S
C551   O575    1.288   .     A
C551   O574    1.288   .     A
C553   C876    1.190   .     S
C554   F559    1.359   .     S
C554   C628    1.385   1_455 S
C555   F560    1.359   .     S
C555   C578    1.385   .     S
C556   F561    1.359   .     S
C556   C590    1.385   .     S
Cu557  Cu558   2.681   .     S
Cu557  O569    1.965   .     S
Cu557  O573    1.934   .     S
Cu557  O571    1.965   .     S
Cu557  N567    2.014   .     S
Cu557  O575    1.934   .     S
Cu558  O570    1.965   .     S
Cu558  N568    2.014   .     S
Cu558  O574    1.934   .     S
Cu558  O572    1.965   .     S
Cu558  O576    1.934   .     S
C577   C580    1.450   .     S
C577   O605    1.291   .     A
C577   O608    1.291   .     A
C578   F598    1.359   .     S
C578   C580    1.404   .     A
C579   C585    1.450   .     S
C579   C591    1.403   .     A
C579   C592    1.404   .     A
C580   C590    1.403   .     A
C581   N604    1.367   .     A
C581   H599    1.082   .     S
C582   N603    1.367   .     A
C582   H600    1.082   .     S
C582   C367    1.417   1_565 S
C583   H601    1.082   .     S
C583   N604    1.367   .     A
C584   H602    1.082   .     S
C584   N603    1.367   .     A
C584   C365    1.417   1_565 S
C585   O606    1.291   .     A
C585   O607    1.291   .     A
C586   C588    1.409   .     S
C586   O609    1.288   .     A
C586   O612    1.288   .     A
C587   C589    1.409   .     S
C587   O611    1.288   .     A
C587   O610    1.288   .     A
C589   C912    1.190   .     S
C590   F595    1.359   .     S
C591   F596    1.359   .     S
C591   C614    1.385   .     S
C592   F597    1.359   .     S
C592   C626    1.385   .     S
Cu593  Cu594   2.681   .     S
Cu593  O605    1.965   .     S
Cu593  O609    1.934   .     S
Cu593  O607    1.965   .     S
Cu593  N603    2.014   .     S
Cu593  O611    1.934   .     S
Cu594  O606    1.965   .     S
Cu594  N604    2.014   .     S
Cu594  O610    1.934   .     S
Cu594  O608    1.965   .     S
Cu594  O612    1.934   .     S
C613   C616    1.450   .     S
C613   O641    1.291   .     A
C613   O644    1.291   .     A
C614   F634    1.359   .     S
C614   C616    1.404   .     A
C615   C621    1.450   .     S
C615   C627    1.403   .     A
C615   C628    1.404   .     A
C616   C626    1.403   .     A
C617   N640    1.367   .     A
C617   H635    1.082   .     S
C618   N639    1.367   .     A
C618   H636    1.082   .     S
C618   C403    1.417   1_565 S
C619   H637    1.082   .     S
C619   N640    1.367   .     A
C620   H638    1.082   .     S
C620   N639    1.367   .     A
C620   C401    1.417   1_565 S
C621   O642    1.291   .     A
C621   O643    1.291   .     A
C622   C624    1.409   .     S
C622   O645    1.288   .     A
C622   O648    1.288   .     A
C623   C625    1.409   .     S
C623   O647    1.288   .     A
C623   O646    1.288   .     A
C625   C948    1.190   .     S
C626   F631    1.359   .     S
C627   F632    1.359   .     S
C627   C542    1.385   1_655 S
C628   F633    1.359   .     S
C628   C554    1.385   1_655 S
Cu629  Cu630   2.681   .     S
Cu629  O641    1.965   .     S
Cu629  O645    1.934   .     S
Cu629  O643    1.965   .     S
Cu629  N639    2.014   .     S
Cu629  O647    1.934   .     S
Cu630  O642    1.965   .     S
Cu630  N640    2.014   .     S
Cu630  O646    1.934   .     S
Cu630  O644    1.965   .     S
Cu630  O648    1.934   .     S
C649   C652    1.450   .     S
C649   O677    1.291   .     A
C649   O680    1.291   .     A
C650   F670    1.359   .     S
C650   C652    1.404   .     A
C650   C735    1.385   1_455 S
C651   C657    1.450   .     S
C651   C663    1.403   .     A
C651   C664    1.404   .     A
C652   C662    1.403   .     A
C653   N676    1.367   .     A
C653   H671    1.082   .     S
C653   C872    1.417   1_545 S
C654   N675    1.367   .     A
C654   H672    1.082   .     S
C654   C763    1.417   .     S
C655   H673    1.082   .     S
C655   N676    1.367   .     A
C655   C870    1.417   1_545 S
C656   H674    1.082   .     S
C656   N675    1.367   .     A
C656   C761    1.417   .     S
C657   O678    1.291   .     A
C657   O679    1.291   .     A
C658   C660    1.409   .     S
C658   O681    1.288   .     A
C658   O684    1.288   .     A
C659   C661    1.409   .     S
C659   O683    1.288   .     A
C659   O682    1.288   .     A
C661   C12     1.190   1_556 S
C662   F667    1.359   .     S
C662   C736    1.385   1_455 S
C663   F668    1.359   .     S
C663   C686    1.385   .     S
C664   F669    1.359   .     S
C664   C698    1.385   .     S
Cu665  Cu666   2.681   .     S
Cu665  O677    1.965   .     S
Cu665  O681    1.934   .     S
Cu665  O679    1.965   .     S
Cu665  N675    2.014   .     S
Cu665  O683    1.934   .     S
Cu666  O678    1.965   .     S
Cu666  N676    2.014   .     S
Cu666  O682    1.934   .     S
Cu666  O680    1.965   .     S
Cu666  O684    1.934   .     S
C685   C688    1.450   .     S
C685   O713    1.291   .     A
C685   O716    1.291   .     A
C686   F706    1.359   .     S
C686   C688    1.404   .     A
C687   C693    1.450   .     S
C687   C699    1.403   .     A
C687   C700    1.404   .     A
C688   C698    1.403   .     A
C689   N712    1.367   .     A
C689   H707    1.082   .     S
C689   C908    1.417   1_545 S
C690   N711    1.367   .     A
C690   H708    1.082   .     S
C690   C799    1.417   .     S
C691   H709    1.082   .     S
C691   N712    1.367   .     A
C691   C906    1.417   1_545 S
C692   H710    1.082   .     S
C692   N711    1.367   .     A
C692   C797    1.417   .     S
C693   O714    1.291   .     A
C693   O715    1.291   .     A
C694   C696    1.409   .     S
C694   O717    1.288   .     A
C694   O720    1.288   .     A
C695   C697    1.409   .     S
C695   O719    1.288   .     A
C695   O718    1.288   .     A
C697   C48     1.190   1_556 S
C698   F703    1.359   .     S
C699   F704    1.359   .     S
C699   C722    1.385   .     S
C700   F705    1.359   .     S
C700   C734    1.385   .     S
Cu701  Cu702   2.681   .     S
Cu701  O713    1.965   .     S
Cu701  O717    1.934   .     S
Cu701  O715    1.965   .     S
Cu701  N711    2.014   .     S
Cu701  O719    1.934   .     S
Cu702  O714    1.965   .     S
Cu702  N712    2.014   .     S
Cu702  O718    1.934   .     S
Cu702  O716    1.965   .     S
Cu702  O720    1.934   .     S
C721   C724    1.450   .     S
C721   O749    1.291   .     A
C721   O752    1.291   .     A
C722   F742    1.359   .     S
C722   C724    1.404   .     A
C723   C729    1.450   .     S
C723   C735    1.403   .     A
C723   C736    1.404   .     A
C724   C734    1.403   .     A
C725   N748    1.367   .     A
C725   H743    1.082   .     S
C725   C944    1.417   1_545 S
C726   N747    1.367   .     A
C726   H744    1.082   .     S
C726   C835    1.417   .     S
C727   H745    1.082   .     S
C727   N748    1.367   .     A
C727   C942    1.417   1_545 S
C728   H746    1.082   .     S
C728   N747    1.367   .     A
C728   C833    1.417   .     S
C729   O750    1.291   .     A
C729   O751    1.291   .     A
C730   C732    1.409   .     S
C730   O753    1.288   .     A
C730   O756    1.288   .     A
C731   C733    1.409   .     S
C731   O755    1.288   .     A
C731   O754    1.288   .     A
C733   C84     1.190   1_556 S
C734   F739    1.359   .     S
C735   F740    1.359   .     S
C735   C650    1.385   1_655 S
C736   F741    1.359   .     S
C736   C662    1.385   1_655 S
Cu737  Cu738   2.681   .     S
Cu737  O749    1.965   .     S
Cu737  O753    1.934   .     S
Cu737  O751    1.965   .     S
Cu737  N747    2.014   .     S
Cu737  O755    1.934   .     S
Cu738  O750    1.965   .     S
Cu738  N748    2.014   .     S
Cu738  O754    1.934   .     S
Cu738  O752    1.965   .     S
Cu738  O756    1.934   .     S
C757   C760    1.450   .     S
C757   O785    1.291   .     A
C757   O788    1.291   .     A
C758   F778    1.359   .     S
C758   C760    1.404   .     A
C758   C843    1.385   1_455 S
C759   C765    1.450   .     S
C759   C771    1.403   .     A
C759   C772    1.404   .     A
C760   C770    1.403   .     A
C761   N784    1.367   .     A
C761   H779    1.082   .     S
C762   N783    1.367   .     A
C762   H780    1.082   .     S
C762   C871    1.417   .     S
C763   H781    1.082   .     S
C763   N784    1.367   .     A
C764   H782    1.082   .     S
C764   N783    1.367   .     A
C764   C869    1.417   .     S
C765   O786    1.291   .     A
C765   O787    1.291   .     A
C766   C768    1.409   .     S
C766   O789    1.288   .     A
C766   O792    1.288   .     A
C767   C769    1.409   .     S
C767   O791    1.288   .     A
C767   O790    1.288   .     A
C769   C120    1.190   1_556 S
C770   F775    1.359   .     S
C770   C844    1.385   1_455 S
C771   F776    1.359   .     S
C771   C794    1.385   .     S
C772   F777    1.359   .     S
C772   C806    1.385   .     S
Cu773  Cu774   2.681   .     S
Cu773  O785    1.965   .     S
Cu773  O789    1.934   .     S
Cu773  O787    1.965   .     S
Cu773  N783    2.014   .     S
Cu773  O791    1.934   .     S
Cu774  O786    1.965   .     S
Cu774  N784    2.014   .     S
Cu774  O790    1.934   .     S
Cu774  O788    1.965   .     S
Cu774  O792    1.934   .     S
C793   C796    1.450   .     S
C793   O821    1.291   .     A
C793   O824    1.291   .     A
C794   F814    1.359   .     S
C794   C796    1.404   .     A
C795   C801    1.450   .     S
C795   C807    1.403   .     A
C795   C808    1.404   .     A
C796   C806    1.403   .     A
C797   N820    1.367   .     A
C797   H815    1.082   .     S
C798   N819    1.367   .     A
C798   H816    1.082   .     S
C798   C907    1.417   .     S
C799   H817    1.082   .     S
C799   N820    1.367   .     A
C800   H818    1.082   .     S
C800   N819    1.367   .     A
C800   C905    1.417   .     S
C801   O822    1.291   .     A
C801   O823    1.291   .     A
C802   C804    1.409   .     S
C802   O825    1.288   .     A
C802   O828    1.288   .     A
C803   C805    1.409   .     S
C803   O827    1.288   .     A
C803   O826    1.288   .     A
C805   C156    1.190   1_556 S
C806   F811    1.359   .     S
C807   F812    1.359   .     S
C807   C830    1.385   .     S
C808   F813    1.359   .     S
C808   C842    1.385   .     S
Cu809  Cu810   2.681   .     S
Cu809  O821    1.965   .     S
Cu809  O825    1.934   .     S
Cu809  O823    1.965   .     S
Cu809  N819    2.014   .     S
Cu809  O827    1.934   .     S
Cu810  O822    1.965   .     S
Cu810  N820    2.014   .     S
Cu810  O826    1.934   .     S
Cu810  O824    1.965   .     S
Cu810  O828    1.934   .     S
C829   C832    1.450   .     S
C829   O857    1.291   .     A
C829   O860    1.291   .     A
C830   F850    1.359   .     S
C830   C832    1.404   .     A
C831   C837    1.450   .     S
C831   C843    1.403   .     A
C831   C844    1.404   .     A
C832   C842    1.403   .     A
C833   N856    1.367   .     A
C833   H851    1.082   .     S
C834   N855    1.367   .     A
C834   H852    1.082   .     S
C834   C943    1.417   .     S
C835   H853    1.082   .     S
C835   N856    1.367   .     A
C836   H854    1.082   .     S
C836   N855    1.367   .     A
C836   C941    1.417   .     S
C837   O858    1.291   .     A
C837   O859    1.291   .     A
C838   C840    1.409   .     S
C838   O861    1.288   .     A
C838   O864    1.288   .     A
C839   C841    1.409   .     S
C839   O863    1.288   .     A
C839   O862    1.288   .     A
C841   C192    1.190   1_556 S
C842   F847    1.359   .     S
C843   F848    1.359   .     S
C843   C758    1.385   1_655 S
C844   F849    1.359   .     S
C844   C770    1.385   1_655 S
Cu845  Cu846   2.681   .     S
Cu845  O857    1.965   .     S
Cu845  O861    1.934   .     S
Cu845  O859    1.965   .     S
Cu845  N855    2.014   .     S
Cu845  O863    1.934   .     S
Cu846  O858    1.965   .     S
Cu846  N856    2.014   .     S
Cu846  O862    1.934   .     S
Cu846  O860    1.965   .     S
Cu846  O864    1.934   .     S
C865   C868    1.450   .     S
C865   O893    1.291   .     A
C865   O896    1.291   .     A
C866   F886    1.359   .     S
C866   C868    1.404   .     A
C866   C951    1.385   1_455 S
C867   C873    1.450   .     S
C867   C879    1.403   .     A
C867   C880    1.404   .     A
C868   C878    1.403   .     A
C869   N892    1.367   .     A
C869   H887    1.082   .     S
C870   N891    1.367   .     A
C870   H888    1.082   .     S
C870   C655    1.417   1_565 S
C871   H889    1.082   .     S
C871   N892    1.367   .     A
C872   H890    1.082   .     S
C872   N891    1.367   .     A
C872   C653    1.417   1_565 S
C873   O894    1.291   .     A
C873   O895    1.291   .     A
C874   C876    1.409   .     S
C874   O897    1.288   .     A
C874   O900    1.288   .     A
C875   C877    1.409   .     S
C875   O899    1.288   .     A
C875   O898    1.288   .     A
C877   C228    1.190   1_556 S
C878   F883    1.359   .     S
C878   C952    1.385   1_455 S
C879   F884    1.359   .     S
C879   C902    1.385   .     S
C880   F885    1.359   .     S
C880   C914    1.385   .     S
Cu881  Cu882   2.681   .     S
Cu881  O893    1.965   .     S
Cu881  O897    1.934   .     S
Cu881  O895    1.965   .     S
Cu881  N891    2.014   .     S
Cu881  O899    1.934   .     S
Cu882  O894    1.965   .     S
Cu882  N892    2.014   .     S
Cu882  O898    1.934   .     S
Cu882  O896    1.965   .     S
Cu882  O900    1.934   .     S
C901   C904    1.450   .     S
C901   O929    1.291   .     A
C901   O932    1.291   .     A
C902   F922    1.359   .     S
C902   C904    1.404   .     A
C903   C909    1.450   .     S
C903   C915    1.403   .     A
C903   C916    1.404   .     A
C904   C914    1.403   .     A
C905   N928    1.367   .     A
C905   H923    1.082   .     S
C906   N927    1.367   .     A
C906   H924    1.082   .     S
C906   C691    1.417   1_565 S
C907   H925    1.082   .     S
C907   N928    1.367   .     A
C908   H926    1.082   .     S
C908   N927    1.367   .     A
C908   C689    1.417   1_565 S
C909   O930    1.291   .     A
C909   O931    1.291   .     A
C910   C912    1.409   .     S
C910   O933    1.288   .     A
C910   O936    1.288   .     A
C911   C913    1.409   .     S
C911   O935    1.288   .     A
C911   O934    1.288   .     A
C913   C264    1.190   1_556 S
C914   F919    1.359   .     S
C915   F920    1.359   .     S
C915   C938    1.385   .     S
C916   F921    1.359   .     S
C916   C950    1.385   .     S
Cu917  Cu918   2.681   .     S
Cu917  O929    1.965   .     S
Cu917  O933    1.934   .     S
Cu917  O931    1.965   .     S
Cu917  N927    2.014   .     S
Cu917  O935    1.934   .     S
Cu918  O930    1.965   .     S
Cu918  N928    2.014   .     S
Cu918  O934    1.934   .     S
Cu918  O932    1.965   .     S
Cu918  O936    1.934   .     S
C937   C940    1.450   .     S
C937   O965    1.291   .     A
C937   O968    1.291   .     A
C938   F958    1.359   .     S
C938   C940    1.404   .     A
C939   C945    1.450   .     S
C939   C951    1.403   .     A
C939   C952    1.404   .     A
C940   C950    1.403   .     A
C941   N964    1.367   .     A
C941   H959    1.082   .     S
C942   N963    1.367   .     A
C942   H960    1.082   .     S
C942   C727    1.417   1_565 S
C943   H961    1.082   .     S
C943   N964    1.367   .     A
C944   H962    1.082   .     S
C944   N963    1.367   .     A
C944   C725    1.417   1_565 S
C945   O966    1.291   .     A
C945   O967    1.291   .     A
C946   C948    1.409   .     S
C946   O969    1.288   .     A
C946   O972    1.288   .     A
C947   C949    1.409   .     S
C947   O971    1.288   .     A
C947   O970    1.288   .     A
C949   C300    1.190   1_556 S
C950   F955    1.359   .     S
C951   F956    1.359   .     S
C951   C866    1.385   1_655 S
C952   F957    1.359   .     S
C952   C878    1.385   1_655 S
Cu953  Cu954   2.681   .     S
Cu953  O965    1.965   .     S
Cu953  O969    1.934   .     S
Cu953  O967    1.965   .     S
Cu953  N963    2.014   .     S
Cu953  O971    1.934   .     S
Cu954  O966    1.965   .     S
Cu954  N964    2.014   .     S
Cu954  O970    1.934   .     S
Cu954  O968    1.965   .     S
Cu954  O972    1.934   .     S
