data_str_m3_o2_o10_pcu_sym.79
_audit_creation_date              2020-01-03
_audit_creation_method            'Materials Studio'
_symmetry_space_group_name_H-M    'P1'
_symmetry_Int_Tables_number       1
_symmetry_cell_setting            triclinic
loop_
_symmetry_equiv_pos_as_xyz
  x,y,z
_cell_length_a                    25.7657
_cell_length_b                    29.8338
_cell_length_c                    28.4891
_cell_angle_alpha                 90.4414
_cell_angle_beta                  99.0132
_cell_angle_gamma                 90.6170
loop_
_atom_site_label
_atom_site_type_symbol
_atom_site_fract_x
_atom_site_fract_y
_atom_site_fract_z
_atom_site_U_iso_or_equiv
_atom_site_adp_type
_atom_site_occupancy
Br1    Br    0.09180   0.17689   0.12133   0.00000  Uiso   1.00
Br2    Br    0.25486   0.31140   0.38072   0.00000  Uiso   1.00
C3     C     0.16577   0.16387   0.24974   0.00000  Uiso   1.00
C4     C     0.12682   0.22729   0.44107   0.00000  Uiso   1.00
C5     C     0.16588   0.25088   0.02661   0.00000  Uiso   1.00
C6     C     0.16558   0.25063   0.47316   0.00000  Uiso   1.00
C7     C     0.06702   0.24994   0.23749   0.00000  Uiso   1.00
C8     C     0.26631   0.25001   0.26251   0.00000  Uiso   1.00
C9     C     0.01189   0.24991   0.23084   0.00000  Uiso   1.00
C10    C     0.32145   0.24999   0.26917   0.00000  Uiso   1.00
C11    C     0.12431   0.04919   0.27923   0.00000  Uiso   1.00
C12    C     0.12498   0.44997   0.20821   0.00000  Uiso   1.00
C13    C     0.13125   0.09528   0.28056   0.00000  Uiso   1.00
C14    C     0.16584   0.33613   0.25001   0.00000  Uiso   1.00
C15    C     0.13193   0.40403   0.20899   0.00000  Uiso   1.00
C16    C     0.15990   0.11593   0.24866   0.00000  Uiso   1.00
C17    C     0.15998   0.38398   0.24933   0.00000  Uiso   1.00
C18    C     0.18100   0.09086   0.21479   0.00000  Uiso   1.00
C19    C     0.18053   0.40954   0.28931   0.00000  Uiso   1.00
C20    C     0.17509   0.04480   0.21394   0.00000  Uiso   1.00
C21    C     0.17459   0.45548   0.28837   0.00000  Uiso   1.00
C22    C     0.14706   0.02397   0.24618   0.00000  Uiso   1.00
C23    C     0.14710   0.47569   0.24790   0.00000  Uiso   1.00
C24    C     0.13731   0.21862   0.04808   0.00000  Uiso   1.00
C25    C     0.20438   0.27386   0.45310   0.00000  Uiso   1.00
C26    C     0.13705   0.21926   0.09728   0.00000  Uiso   1.00
C27    C     0.20366   0.27418   0.40378   0.00000  Uiso   1.00
C28    C     0.19505   0.28164   0.10677   0.00000  Uiso   1.00
C29    C     0.12859   0.22689   0.39190   0.00000  Uiso   1.00
C30    C     0.19461   0.28312   0.05731   0.00000  Uiso   1.00
Cl31   Cl    0.08680   0.02424   0.31891   0.00000  Uiso   1.00
Cl32   Cl    0.08824   0.47411   0.15748   0.00000  Uiso   1.00
H33    H     0.32436   0.24985   0.19455   0.00000  Uiso   1.00
H34    H     0.23575   0.29198   0.47509   0.00000  Uiso   1.00
H35    H     0.21760   0.30639   0.12960   0.00000  Uiso   1.00
H36    H     0.09884   0.20850   0.36810   0.00000  Uiso   1.00
H37    H     0.21631   0.30999   0.04384   0.00000  Uiso   1.00
H38    H     0.09459   0.20972   0.45312   0.00000  Uiso   1.00
H39    H     0.00898   0.25005   0.30546   0.00000  Uiso   1.00
H40    H     0.11376   0.11497   0.30600   0.00000  Uiso   1.00
H41    H     0.11489   0.38398   0.17844   0.00000  Uiso   1.00
H42    H     0.20298   0.10678   0.18991   0.00000  Uiso   1.00
H43    H     0.20210   0.39416   0.32064   0.00000  Uiso   1.00
H44    H     0.19334   0.02522   0.18892   0.00000  Uiso   1.00
H45    H     0.19239   0.47547   0.31870   0.00000  Uiso   1.00
H46    H     0.11494   0.19252   0.02731   0.00000  Uiso   1.00
N47    N     0.16667   0.24999   0.12623   0.00000  Uiso   1.00
N48    N     0.16667   0.25001   0.37376   0.00000  Uiso   1.00
O49    O     0.16667   0.18453   0.28974   0.00000  Uiso   1.00
O50    O     0.16666   0.31546   0.21026   0.00000  Uiso   1.00
O51    O     0.16667   0.18453   0.21026   0.00000  Uiso   1.00
O52    O     0.16666   0.31547   0.28974   0.00000  Uiso   1.00
O53    O     0.09058   0.25000   0.28044   0.00000  Uiso   1.00
O54    O     0.24275   0.25000   0.21955   0.00000  Uiso   1.00
O55    O     0.09058   0.24999   0.20096   0.00000  Uiso   1.00
O56    O     0.24275   0.25000   0.29903   0.00000  Uiso   1.00
Zn57   Zn    0.16667   0.25000   0.30307   0.00000  Uiso   1.00
Zn58   Zn    0.16667   0.24999   0.19693   0.00000  Uiso   1.00
Br59   Br    0.42514   0.17689   0.12133   0.00000  Uiso   1.00
Br60   Br    0.58819   0.31140   0.38072   0.00000  Uiso   1.00
C61    C     0.49911   0.16387   0.24974   0.00000  Uiso   1.00
C62    C     0.46015   0.22729   0.44107   0.00000  Uiso   1.00
C63    C     0.49921   0.25088   0.02661   0.00000  Uiso   1.00
C64    C     0.49891   0.25063   0.47316   0.00000  Uiso   1.00
C65    C     0.40036   0.24994   0.23749   0.00000  Uiso   1.00
C66    C     0.59964   0.25001   0.26251   0.00000  Uiso   1.00
C67    C     0.34522   0.24991   0.23084   0.00000  Uiso   1.00
C68    C     0.65478   0.24999   0.26917   0.00000  Uiso   1.00
C69    C     0.45764   0.04919   0.27923   0.00000  Uiso   1.00
C70    C     0.45831   0.44997   0.20821   0.00000  Uiso   1.00
C71    C     0.46458   0.09528   0.28056   0.00000  Uiso   1.00
C72    C     0.49917   0.33613   0.25001   0.00000  Uiso   1.00
C73    C     0.46526   0.40403   0.20899   0.00000  Uiso   1.00
C74    C     0.49323   0.11593   0.24866   0.00000  Uiso   1.00
C75    C     0.49331   0.38398   0.24933   0.00000  Uiso   1.00
C76    C     0.51433   0.09086   0.21479   0.00000  Uiso   1.00
C77    C     0.51386   0.40954   0.28931   0.00000  Uiso   1.00
C78    C     0.50842   0.04480   0.21394   0.00000  Uiso   1.00
C79    C     0.50792   0.45548   0.28837   0.00000  Uiso   1.00
C80    C     0.48039   0.02397   0.24618   0.00000  Uiso   1.00
C81    C     0.48043   0.47569   0.24790   0.00000  Uiso   1.00
C82    C     0.47064   0.21862   0.04808   0.00000  Uiso   1.00
C83    C     0.53772   0.27386   0.45310   0.00000  Uiso   1.00
C84    C     0.47038   0.21926   0.09728   0.00000  Uiso   1.00
C85    C     0.53699   0.27418   0.40378   0.00000  Uiso   1.00
C86    C     0.52838   0.28164   0.10677   0.00000  Uiso   1.00
C87    C     0.46192   0.22689   0.39190   0.00000  Uiso   1.00
C88    C     0.52794   0.28312   0.05731   0.00000  Uiso   1.00
Cl89   Cl    0.42013   0.02424   0.31891   0.00000  Uiso   1.00
Cl90   Cl    0.42157   0.47411   0.15748   0.00000  Uiso   1.00
H91    H     0.65769   0.24985   0.19455   0.00000  Uiso   1.00
H92    H     0.56909   0.29198   0.47509   0.00000  Uiso   1.00
H93    H     0.55093   0.30639   0.12960   0.00000  Uiso   1.00
H94    H     0.43217   0.20850   0.36810   0.00000  Uiso   1.00
H95    H     0.54964   0.30999   0.04384   0.00000  Uiso   1.00
H96    H     0.42792   0.20972   0.45312   0.00000  Uiso   1.00
H97    H     0.34231   0.25005   0.30546   0.00000  Uiso   1.00
H98    H     0.44710   0.11497   0.30600   0.00000  Uiso   1.00
H99    H     0.44823   0.38398   0.17844   0.00000  Uiso   1.00
H100   H     0.53632   0.10678   0.18991   0.00000  Uiso   1.00
H101   H     0.53544   0.39416   0.32064   0.00000  Uiso   1.00
H102   H     0.52667   0.02522   0.18892   0.00000  Uiso   1.00
H103   H     0.52573   0.47547   0.31870   0.00000  Uiso   1.00
H104   H     0.44827   0.19252   0.02731   0.00000  Uiso   1.00
N105   N     0.50000   0.24999   0.12623   0.00000  Uiso   1.00
N106   N     0.50000   0.25001   0.37376   0.00000  Uiso   1.00
O107   O     0.50000   0.18453   0.28974   0.00000  Uiso   1.00
O108   O     0.50000   0.31546   0.21026   0.00000  Uiso   1.00
O109   O     0.50000   0.18453   0.21026   0.00000  Uiso   1.00
O110   O     0.50000   0.31547   0.28974   0.00000  Uiso   1.00
O111   O     0.42392   0.25000   0.28044   0.00000  Uiso   1.00
O112   O     0.57608   0.25000   0.21955   0.00000  Uiso   1.00
O113   O     0.42392   0.24999   0.20096   0.00000  Uiso   1.00
O114   O     0.57608   0.25000   0.29903   0.00000  Uiso   1.00
Zn115  Zn    0.50000   0.25000   0.30307   0.00000  Uiso   1.00
Zn116  Zn    0.50000   0.24999   0.19693   0.00000  Uiso   1.00
Br117  Br    0.75847   0.17689   0.12133   0.00000  Uiso   1.00
Br118  Br    0.92152   0.31140   0.38072   0.00000  Uiso   1.00
C119   C     0.83244   0.16387   0.24974   0.00000  Uiso   1.00
C120   C     0.79349   0.22729   0.44107   0.00000  Uiso   1.00
C121   C     0.83255   0.25088   0.02661   0.00000  Uiso   1.00
C122   C     0.83224   0.25063   0.47316   0.00000  Uiso   1.00
C123   C     0.73369   0.24994   0.23749   0.00000  Uiso   1.00
C124   C     0.93298   0.25001   0.26251   0.00000  Uiso   1.00
C125   C     0.67855   0.24991   0.23084   0.00000  Uiso   1.00
C126   C     0.98812   0.24999   0.26917   0.00000  Uiso   1.00
C127   C     0.79097   0.04919   0.27923   0.00000  Uiso   1.00
C128   C     0.79164   0.44997   0.20821   0.00000  Uiso   1.00
C129   C     0.79792   0.09528   0.28056   0.00000  Uiso   1.00
C130   C     0.83251   0.33613   0.25001   0.00000  Uiso   1.00
C131   C     0.79859   0.40403   0.20899   0.00000  Uiso   1.00
C132   C     0.82657   0.11593   0.24866   0.00000  Uiso   1.00
C133   C     0.82664   0.38398   0.24933   0.00000  Uiso   1.00
C134   C     0.84766   0.09086   0.21479   0.00000  Uiso   1.00
C135   C     0.84719   0.40954   0.28931   0.00000  Uiso   1.00
C136   C     0.84176   0.04480   0.21394   0.00000  Uiso   1.00
C137   C     0.84126   0.45548   0.28837   0.00000  Uiso   1.00
C138   C     0.81372   0.02397   0.24618   0.00000  Uiso   1.00
C139   C     0.81376   0.47569   0.24790   0.00000  Uiso   1.00
C140   C     0.80398   0.21862   0.04808   0.00000  Uiso   1.00
C141   C     0.87105   0.27386   0.45310   0.00000  Uiso   1.00
C142   C     0.80371   0.21926   0.09728   0.00000  Uiso   1.00
C143   C     0.87033   0.27418   0.40378   0.00000  Uiso   1.00
C144   C     0.86171   0.28164   0.10677   0.00000  Uiso   1.00
C145   C     0.79526   0.22689   0.39190   0.00000  Uiso   1.00
C146   C     0.86127   0.28312   0.05731   0.00000  Uiso   1.00
Cl147  Cl    0.75346   0.02424   0.31891   0.00000  Uiso   1.00
Cl148  Cl    0.75490   0.47411   0.15748   0.00000  Uiso   1.00
H149   H     0.99103   0.24985   0.19455   0.00000  Uiso   1.00
H150   H     0.90242   0.29198   0.47509   0.00000  Uiso   1.00
H151   H     0.88426   0.30639   0.12960   0.00000  Uiso   1.00
H152   H     0.76551   0.20850   0.36810   0.00000  Uiso   1.00
H153   H     0.88297   0.30999   0.04384   0.00000  Uiso   1.00
H154   H     0.76125   0.20972   0.45312   0.00000  Uiso   1.00
H155   H     0.67564   0.25005   0.30546   0.00000  Uiso   1.00
H156   H     0.78043   0.11497   0.30600   0.00000  Uiso   1.00
H157   H     0.78156   0.38398   0.17844   0.00000  Uiso   1.00
H158   H     0.86965   0.10678   0.18991   0.00000  Uiso   1.00
H159   H     0.86877   0.39416   0.32064   0.00000  Uiso   1.00
H160   H     0.86001   0.02522   0.18892   0.00000  Uiso   1.00
H161   H     0.85906   0.47547   0.31870   0.00000  Uiso   1.00
H162   H     0.78161   0.19252   0.02731   0.00000  Uiso   1.00
N163   N     0.83333   0.24999   0.12623   0.00000  Uiso   1.00
N164   N     0.83333   0.25001   0.37376   0.00000  Uiso   1.00
O165   O     0.83334   0.18453   0.28974   0.00000  Uiso   1.00
O166   O     0.83333   0.31546   0.21026   0.00000  Uiso   1.00
O167   O     0.83334   0.18453   0.21026   0.00000  Uiso   1.00
O168   O     0.83333   0.31547   0.28974   0.00000  Uiso   1.00
O169   O     0.75725   0.25000   0.28044   0.00000  Uiso   1.00
O170   O     0.90942   0.25000   0.21955   0.00000  Uiso   1.00
O171   O     0.75725   0.24999   0.20096   0.00000  Uiso   1.00
O172   O     0.90942   0.25000   0.29903   0.00000  Uiso   1.00
Zn173  Zn    0.83333   0.25000   0.30307   0.00000  Uiso   1.00
Zn174  Zn    0.83333   0.24999   0.19693   0.00000  Uiso   1.00
Br175  Br    0.09180   0.67689   0.12133   0.00000  Uiso   1.00
Br176  Br    0.25486   0.81140   0.38072   0.00000  Uiso   1.00
C177   C     0.16577   0.66387   0.24974   0.00000  Uiso   1.00
C178   C     0.12682   0.72729   0.44107   0.00000  Uiso   1.00
C179   C     0.16588   0.75088   0.02661   0.00000  Uiso   1.00
C180   C     0.16558   0.75063   0.47316   0.00000  Uiso   1.00
C181   C     0.06702   0.74994   0.23749   0.00000  Uiso   1.00
C182   C     0.26631   0.75001   0.26251   0.00000  Uiso   1.00
C183   C     0.01189   0.74991   0.23084   0.00000  Uiso   1.00
C184   C     0.32145   0.74999   0.26917   0.00000  Uiso   1.00
C185   C     0.12431   0.54919   0.27923   0.00000  Uiso   1.00
C186   C     0.12498   0.94997   0.20821   0.00000  Uiso   1.00
C187   C     0.13125   0.59528   0.28056   0.00000  Uiso   1.00
C188   C     0.16584   0.83613   0.25001   0.00000  Uiso   1.00
C189   C     0.13193   0.90403   0.20899   0.00000  Uiso   1.00
C190   C     0.15990   0.61593   0.24866   0.00000  Uiso   1.00
C191   C     0.15998   0.88398   0.24933   0.00000  Uiso   1.00
C192   C     0.18100   0.59086   0.21479   0.00000  Uiso   1.00
C193   C     0.18053   0.90954   0.28931   0.00000  Uiso   1.00
C194   C     0.17509   0.54480   0.21394   0.00000  Uiso   1.00
C195   C     0.17459   0.95548   0.28837   0.00000  Uiso   1.00
C196   C     0.14706   0.52397   0.24618   0.00000  Uiso   1.00
C197   C     0.14710   0.97569   0.24790   0.00000  Uiso   1.00
C198   C     0.13731   0.71862   0.04808   0.00000  Uiso   1.00
C199   C     0.20438   0.77386   0.45310   0.00000  Uiso   1.00
C200   C     0.13705   0.71926   0.09728   0.00000  Uiso   1.00
C201   C     0.20366   0.77418   0.40378   0.00000  Uiso   1.00
C202   C     0.19505   0.78164   0.10677   0.00000  Uiso   1.00
C203   C     0.12859   0.72689   0.39190   0.00000  Uiso   1.00
C204   C     0.19461   0.78312   0.05731   0.00000  Uiso   1.00
Cl205  Cl    0.08680   0.52424   0.31891   0.00000  Uiso   1.00
Cl206  Cl    0.08824   0.97411   0.15748   0.00000  Uiso   1.00
H207   H     0.32436   0.74985   0.19455   0.00000  Uiso   1.00
H208   H     0.23575   0.79198   0.47509   0.00000  Uiso   1.00
H209   H     0.21760   0.80639   0.12960   0.00000  Uiso   1.00
H210   H     0.09884   0.70850   0.36810   0.00000  Uiso   1.00
H211   H     0.21631   0.80999   0.04384   0.00000  Uiso   1.00
H212   H     0.09459   0.70972   0.45312   0.00000  Uiso   1.00
H213   H     0.00898   0.75005   0.30546   0.00000  Uiso   1.00
H214   H     0.11376   0.61497   0.30600   0.00000  Uiso   1.00
H215   H     0.11489   0.88398   0.17844   0.00000  Uiso   1.00
H216   H     0.20298   0.60678   0.18991   0.00000  Uiso   1.00
H217   H     0.20210   0.89416   0.32064   0.00000  Uiso   1.00
H218   H     0.19334   0.52522   0.18892   0.00000  Uiso   1.00
H219   H     0.19239   0.97547   0.31870   0.00000  Uiso   1.00
H220   H     0.11494   0.69252   0.02731   0.00000  Uiso   1.00
N221   N     0.16667   0.74999   0.12623   0.00000  Uiso   1.00
N222   N     0.16667   0.75001   0.37376   0.00000  Uiso   1.00
O223   O     0.16667   0.68453   0.28974   0.00000  Uiso   1.00
O224   O     0.16666   0.81546   0.21026   0.00000  Uiso   1.00
O225   O     0.16667   0.68453   0.21026   0.00000  Uiso   1.00
O226   O     0.16666   0.81547   0.28974   0.00000  Uiso   1.00
O227   O     0.09058   0.75000   0.28044   0.00000  Uiso   1.00
O228   O     0.24275   0.75000   0.21955   0.00000  Uiso   1.00
O229   O     0.09058   0.74999   0.20096   0.00000  Uiso   1.00
O230   O     0.24275   0.75000   0.29903   0.00000  Uiso   1.00
Zn231  Zn    0.16667   0.75000   0.30307   0.00000  Uiso   1.00
Zn232  Zn    0.16667   0.74999   0.19693   0.00000  Uiso   1.00
Br233  Br    0.42514   0.67689   0.12133   0.00000  Uiso   1.00
Br234  Br    0.58819   0.81140   0.38072   0.00000  Uiso   1.00
C235   C     0.49911   0.66387   0.24974   0.00000  Uiso   1.00
C236   C     0.46015   0.72729   0.44107   0.00000  Uiso   1.00
C237   C     0.49921   0.75088   0.02661   0.00000  Uiso   1.00
C238   C     0.49891   0.75063   0.47316   0.00000  Uiso   1.00
C239   C     0.40036   0.74994   0.23749   0.00000  Uiso   1.00
C240   C     0.59964   0.75001   0.26251   0.00000  Uiso   1.00
C241   C     0.34522   0.74991   0.23084   0.00000  Uiso   1.00
C242   C     0.65478   0.74999   0.26917   0.00000  Uiso   1.00
C243   C     0.45764   0.54919   0.27923   0.00000  Uiso   1.00
C244   C     0.45831   0.94997   0.20821   0.00000  Uiso   1.00
C245   C     0.46458   0.59528   0.28056   0.00000  Uiso   1.00
C246   C     0.49917   0.83613   0.25001   0.00000  Uiso   1.00
C247   C     0.46526   0.90403   0.20899   0.00000  Uiso   1.00
C248   C     0.49323   0.61593   0.24866   0.00000  Uiso   1.00
C249   C     0.49331   0.88398   0.24933   0.00000  Uiso   1.00
C250   C     0.51433   0.59086   0.21479   0.00000  Uiso   1.00
C251   C     0.51386   0.90954   0.28931   0.00000  Uiso   1.00
C252   C     0.50842   0.54480   0.21394   0.00000  Uiso   1.00
C253   C     0.50792   0.95548   0.28837   0.00000  Uiso   1.00
C254   C     0.48039   0.52397   0.24618   0.00000  Uiso   1.00
C255   C     0.48043   0.97569   0.24790   0.00000  Uiso   1.00
C256   C     0.47064   0.71862   0.04808   0.00000  Uiso   1.00
C257   C     0.53772   0.77386   0.45310   0.00000  Uiso   1.00
C258   C     0.47038   0.71926   0.09728   0.00000  Uiso   1.00
C259   C     0.53699   0.77418   0.40378   0.00000  Uiso   1.00
C260   C     0.52838   0.78164   0.10677   0.00000  Uiso   1.00
C261   C     0.46192   0.72689   0.39190   0.00000  Uiso   1.00
C262   C     0.52794   0.78312   0.05731   0.00000  Uiso   1.00
Cl263  Cl    0.42013   0.52424   0.31891   0.00000  Uiso   1.00
Cl264  Cl    0.42157   0.97411   0.15748   0.00000  Uiso   1.00
H265   H     0.65769   0.74985   0.19455   0.00000  Uiso   1.00
H266   H     0.56909   0.79198   0.47509   0.00000  Uiso   1.00
H267   H     0.55093   0.80639   0.12960   0.00000  Uiso   1.00
H268   H     0.43217   0.70850   0.36810   0.00000  Uiso   1.00
H269   H     0.54964   0.80999   0.04384   0.00000  Uiso   1.00
H270   H     0.42792   0.70972   0.45312   0.00000  Uiso   1.00
H271   H     0.34231   0.75005   0.30546   0.00000  Uiso   1.00
H272   H     0.44710   0.61497   0.30600   0.00000  Uiso   1.00
H273   H     0.44823   0.88398   0.17844   0.00000  Uiso   1.00
H274   H     0.53632   0.60678   0.18991   0.00000  Uiso   1.00
H275   H     0.53544   0.89416   0.32064   0.00000  Uiso   1.00
H276   H     0.52667   0.52522   0.18892   0.00000  Uiso   1.00
H277   H     0.52573   0.97547   0.31870   0.00000  Uiso   1.00
H278   H     0.44827   0.69252   0.02731   0.00000  Uiso   1.00
N279   N     0.50000   0.74999   0.12623   0.00000  Uiso   1.00
N280   N     0.50000   0.75001   0.37376   0.00000  Uiso   1.00
O281   O     0.50000   0.68453   0.28974   0.00000  Uiso   1.00
O282   O     0.50000   0.81546   0.21026   0.00000  Uiso   1.00
O283   O     0.50000   0.68453   0.21026   0.00000  Uiso   1.00
O284   O     0.50000   0.81547   0.28974   0.00000  Uiso   1.00
O285   O     0.42392   0.75000   0.28044   0.00000  Uiso   1.00
O286   O     0.57608   0.75000   0.21955   0.00000  Uiso   1.00
O287   O     0.42392   0.74999   0.20096   0.00000  Uiso   1.00
O288   O     0.57608   0.75000   0.29903   0.00000  Uiso   1.00
Zn289  Zn    0.50000   0.75000   0.30307   0.00000  Uiso   1.00
Zn290  Zn    0.50000   0.74999   0.19693   0.00000  Uiso   1.00
Br291  Br    0.75847   0.67689   0.12133   0.00000  Uiso   1.00
Br292  Br    0.92152   0.81140   0.38072   0.00000  Uiso   1.00
C293   C     0.83244   0.66387   0.24974   0.00000  Uiso   1.00
C294   C     0.79349   0.72729   0.44107   0.00000  Uiso   1.00
C295   C     0.83255   0.75088   0.02661   0.00000  Uiso   1.00
C296   C     0.83224   0.75063   0.47316   0.00000  Uiso   1.00
C297   C     0.73369   0.74994   0.23749   0.00000  Uiso   1.00
C298   C     0.93298   0.75001   0.26251   0.00000  Uiso   1.00
C299   C     0.67855   0.74991   0.23084   0.00000  Uiso   1.00
C300   C     0.98812   0.74999   0.26917   0.00000  Uiso   1.00
C301   C     0.79097   0.54919   0.27923   0.00000  Uiso   1.00
C302   C     0.79164   0.94997   0.20821   0.00000  Uiso   1.00
C303   C     0.79792   0.59528   0.28056   0.00000  Uiso   1.00
C304   C     0.83251   0.83613   0.25001   0.00000  Uiso   1.00
C305   C     0.79859   0.90403   0.20899   0.00000  Uiso   1.00
C306   C     0.82657   0.61593   0.24866   0.00000  Uiso   1.00
C307   C     0.82664   0.88398   0.24933   0.00000  Uiso   1.00
C308   C     0.84766   0.59086   0.21479   0.00000  Uiso   1.00
C309   C     0.84719   0.90954   0.28931   0.00000  Uiso   1.00
C310   C     0.84176   0.54480   0.21394   0.00000  Uiso   1.00
C311   C     0.84126   0.95548   0.28837   0.00000  Uiso   1.00
C312   C     0.81372   0.52397   0.24618   0.00000  Uiso   1.00
C313   C     0.81376   0.97569   0.24790   0.00000  Uiso   1.00
C314   C     0.80398   0.71862   0.04808   0.00000  Uiso   1.00
C315   C     0.87105   0.77386   0.45310   0.00000  Uiso   1.00
C316   C     0.80371   0.71926   0.09728   0.00000  Uiso   1.00
C317   C     0.87033   0.77418   0.40378   0.00000  Uiso   1.00
C318   C     0.86171   0.78164   0.10677   0.00000  Uiso   1.00
C319   C     0.79526   0.72689   0.39190   0.00000  Uiso   1.00
C320   C     0.86127   0.78312   0.05731   0.00000  Uiso   1.00
Cl321  Cl    0.75346   0.52424   0.31891   0.00000  Uiso   1.00
Cl322  Cl    0.75490   0.97411   0.15748   0.00000  Uiso   1.00
H323   H     0.99103   0.74985   0.19455   0.00000  Uiso   1.00
H324   H     0.90242   0.79198   0.47509   0.00000  Uiso   1.00
H325   H     0.88426   0.80639   0.12960   0.00000  Uiso   1.00
H326   H     0.76551   0.70850   0.36810   0.00000  Uiso   1.00
H327   H     0.88297   0.80999   0.04384   0.00000  Uiso   1.00
H328   H     0.76125   0.70972   0.45312   0.00000  Uiso   1.00
H329   H     0.67564   0.75005   0.30546   0.00000  Uiso   1.00
H330   H     0.78043   0.61497   0.30600   0.00000  Uiso   1.00
H331   H     0.78156   0.88398   0.17844   0.00000  Uiso   1.00
H332   H     0.86965   0.60678   0.18991   0.00000  Uiso   1.00
H333   H     0.86877   0.89416   0.32064   0.00000  Uiso   1.00
H334   H     0.86001   0.52522   0.18892   0.00000  Uiso   1.00
H335   H     0.85906   0.97547   0.31870   0.00000  Uiso   1.00
H336   H     0.78161   0.69252   0.02731   0.00000  Uiso   1.00
N337   N     0.83333   0.74999   0.12623   0.00000  Uiso   1.00
N338   N     0.83333   0.75001   0.37376   0.00000  Uiso   1.00
O339   O     0.83334   0.68453   0.28974   0.00000  Uiso   1.00
O340   O     0.83333   0.81546   0.21026   0.00000  Uiso   1.00
O341   O     0.83334   0.68453   0.21026   0.00000  Uiso   1.00
O342   O     0.83333   0.81547   0.28974   0.00000  Uiso   1.00
O343   O     0.75725   0.75000   0.28044   0.00000  Uiso   1.00
O344   O     0.90942   0.75000   0.21955   0.00000  Uiso   1.00
O345   O     0.75725   0.74999   0.20096   0.00000  Uiso   1.00
O346   O     0.90942   0.75000   0.29903   0.00000  Uiso   1.00
Zn347  Zn    0.83333   0.75000   0.30307   0.00000  Uiso   1.00
Zn348  Zn    0.83333   0.74999   0.19693   0.00000  Uiso   1.00
Br349  Br    0.09180   0.17689   0.62133   0.00000  Uiso   1.00
Br350  Br    0.25486   0.31140   0.88072   0.00000  Uiso   1.00
C351   C     0.16577   0.16387   0.74974   0.00000  Uiso   1.00
C352   C     0.12682   0.22729   0.94107   0.00000  Uiso   1.00
C353   C     0.16588   0.25088   0.52661   0.00000  Uiso   1.00
C354   C     0.16558   0.25063   0.97316   0.00000  Uiso   1.00
C355   C     0.06702   0.24994   0.73749   0.00000  Uiso   1.00
C356   C     0.26631   0.25001   0.76251   0.00000  Uiso   1.00
C357   C     0.01189   0.24991   0.73084   0.00000  Uiso   1.00
C358   C     0.32145   0.24999   0.76917   0.00000  Uiso   1.00
C359   C     0.12431   0.04919   0.77923   0.00000  Uiso   1.00
C360   C     0.12498   0.44997   0.70821   0.00000  Uiso   1.00
C361   C     0.13125   0.09528   0.78056   0.00000  Uiso   1.00
C362   C     0.16584   0.33613   0.75001   0.00000  Uiso   1.00
C363   C     0.13193   0.40403   0.70899   0.00000  Uiso   1.00
C364   C     0.15990   0.11593   0.74866   0.00000  Uiso   1.00
C365   C     0.15998   0.38398   0.74933   0.00000  Uiso   1.00
C366   C     0.18100   0.09086   0.71479   0.00000  Uiso   1.00
C367   C     0.18053   0.40954   0.78931   0.00000  Uiso   1.00
C368   C     0.17509   0.04480   0.71394   0.00000  Uiso   1.00
C369   C     0.17459   0.45548   0.78837   0.00000  Uiso   1.00
C370   C     0.14706   0.02397   0.74618   0.00000  Uiso   1.00
C371   C     0.14710   0.47569   0.74790   0.00000  Uiso   1.00
C372   C     0.13731   0.21862   0.54808   0.00000  Uiso   1.00
C373   C     0.20438   0.27386   0.95310   0.00000  Uiso   1.00
C374   C     0.13705   0.21926   0.59728   0.00000  Uiso   1.00
C375   C     0.20366   0.27418   0.90378   0.00000  Uiso   1.00
C376   C     0.19505   0.28164   0.60677   0.00000  Uiso   1.00
C377   C     0.12859   0.22689   0.89190   0.00000  Uiso   1.00
C378   C     0.19461   0.28312   0.55731   0.00000  Uiso   1.00
Cl379  Cl    0.08680   0.02424   0.81891   0.00000  Uiso   1.00
Cl380  Cl    0.08824   0.47411   0.65748   0.00000  Uiso   1.00
H381   H     0.32436   0.24985   0.69455   0.00000  Uiso   1.00
H382   H     0.23575   0.29198   0.97509   0.00000  Uiso   1.00
H383   H     0.21760   0.30639   0.62960   0.00000  Uiso   1.00
H384   H     0.09884   0.20850   0.86810   0.00000  Uiso   1.00
H385   H     0.21631   0.30999   0.54384   0.00000  Uiso   1.00
H386   H     0.09459   0.20972   0.95312   0.00000  Uiso   1.00
H387   H     0.00898   0.25005   0.80546   0.00000  Uiso   1.00
H388   H     0.11376   0.11497   0.80600   0.00000  Uiso   1.00
H389   H     0.11489   0.38398   0.67844   0.00000  Uiso   1.00
H390   H     0.20298   0.10678   0.68991   0.00000  Uiso   1.00
H391   H     0.20210   0.39416   0.82064   0.00000  Uiso   1.00
H392   H     0.19334   0.02522   0.68892   0.00000  Uiso   1.00
H393   H     0.19239   0.47547   0.81870   0.00000  Uiso   1.00
H394   H     0.11494   0.19252   0.52731   0.00000  Uiso   1.00
N395   N     0.16667   0.24999   0.62623   0.00000  Uiso   1.00
N396   N     0.16667   0.25001   0.87376   0.00000  Uiso   1.00
O397   O     0.16667   0.18453   0.78974   0.00000  Uiso   1.00
O398   O     0.16666   0.31546   0.71026   0.00000  Uiso   1.00
O399   O     0.16667   0.18453   0.71026   0.00000  Uiso   1.00
O400   O     0.16666   0.31547   0.78974   0.00000  Uiso   1.00
O401   O     0.09058   0.25000   0.78044   0.00000  Uiso   1.00
O402   O     0.24275   0.25000   0.71955   0.00000  Uiso   1.00
O403   O     0.09058   0.24999   0.70096   0.00000  Uiso   1.00
O404   O     0.24275   0.25000   0.79903   0.00000  Uiso   1.00
Zn405  Zn    0.16667   0.25000   0.80307   0.00000  Uiso   1.00
Zn406  Zn    0.16667   0.24999   0.69693   0.00000  Uiso   1.00
Br407  Br    0.42514   0.17689   0.62133   0.00000  Uiso   1.00
Br408  Br    0.58819   0.31140   0.88072   0.00000  Uiso   1.00
C409   C     0.49911   0.16387   0.74974   0.00000  Uiso   1.00
C410   C     0.46015   0.22729   0.94107   0.00000  Uiso   1.00
C411   C     0.49921   0.25088   0.52661   0.00000  Uiso   1.00
C412   C     0.49891   0.25063   0.97316   0.00000  Uiso   1.00
C413   C     0.40036   0.24994   0.73749   0.00000  Uiso   1.00
C414   C     0.59964   0.25001   0.76251   0.00000  Uiso   1.00
C415   C     0.34522   0.24991   0.73084   0.00000  Uiso   1.00
C416   C     0.65478   0.24999   0.76917   0.00000  Uiso   1.00
C417   C     0.45764   0.04919   0.77923   0.00000  Uiso   1.00
C418   C     0.45831   0.44997   0.70821   0.00000  Uiso   1.00
C419   C     0.46458   0.09528   0.78056   0.00000  Uiso   1.00
C420   C     0.49917   0.33613   0.75001   0.00000  Uiso   1.00
C421   C     0.46526   0.40403   0.70899   0.00000  Uiso   1.00
C422   C     0.49323   0.11593   0.74866   0.00000  Uiso   1.00
C423   C     0.49331   0.38398   0.74933   0.00000  Uiso   1.00
C424   C     0.51433   0.09086   0.71479   0.00000  Uiso   1.00
C425   C     0.51386   0.40954   0.78931   0.00000  Uiso   1.00
C426   C     0.50842   0.04480   0.71394   0.00000  Uiso   1.00
C427   C     0.50792   0.45548   0.78837   0.00000  Uiso   1.00
C428   C     0.48039   0.02397   0.74618   0.00000  Uiso   1.00
C429   C     0.48043   0.47569   0.74790   0.00000  Uiso   1.00
C430   C     0.47064   0.21862   0.54808   0.00000  Uiso   1.00
C431   C     0.53772   0.27386   0.95310   0.00000  Uiso   1.00
C432   C     0.47038   0.21926   0.59728   0.00000  Uiso   1.00
C433   C     0.53699   0.27418   0.90378   0.00000  Uiso   1.00
C434   C     0.52838   0.28164   0.60677   0.00000  Uiso   1.00
C435   C     0.46192   0.22689   0.89190   0.00000  Uiso   1.00
C436   C     0.52794   0.28312   0.55731   0.00000  Uiso   1.00
Cl437  Cl    0.42013   0.02424   0.81891   0.00000  Uiso   1.00
Cl438  Cl    0.42157   0.47411   0.65748   0.00000  Uiso   1.00
H439   H     0.65769   0.24985   0.69455   0.00000  Uiso   1.00
H440   H     0.56909   0.29198   0.97509   0.00000  Uiso   1.00
H441   H     0.55093   0.30639   0.62960   0.00000  Uiso   1.00
H442   H     0.43217   0.20850   0.86810   0.00000  Uiso   1.00
H443   H     0.54964   0.30999   0.54384   0.00000  Uiso   1.00
H444   H     0.42792   0.20972   0.95312   0.00000  Uiso   1.00
H445   H     0.34231   0.25005   0.80546   0.00000  Uiso   1.00
H446   H     0.44710   0.11497   0.80600   0.00000  Uiso   1.00
H447   H     0.44823   0.38398   0.67844   0.00000  Uiso   1.00
H448   H     0.53632   0.10678   0.68991   0.00000  Uiso   1.00
H449   H     0.53544   0.39416   0.82064   0.00000  Uiso   1.00
H450   H     0.52667   0.02522   0.68892   0.00000  Uiso   1.00
H451   H     0.52573   0.47547   0.81870   0.00000  Uiso   1.00
H452   H     0.44827   0.19252   0.52731   0.00000  Uiso   1.00
N453   N     0.50000   0.24999   0.62623   0.00000  Uiso   1.00
N454   N     0.50000   0.25001   0.87376   0.00000  Uiso   1.00
O455   O     0.50000   0.18453   0.78974   0.00000  Uiso   1.00
O456   O     0.50000   0.31546   0.71026   0.00000  Uiso   1.00
O457   O     0.50000   0.18453   0.71026   0.00000  Uiso   1.00
O458   O     0.50000   0.31547   0.78974   0.00000  Uiso   1.00
O459   O     0.42392   0.25000   0.78044   0.00000  Uiso   1.00
O460   O     0.57608   0.25000   0.71955   0.00000  Uiso   1.00
O461   O     0.42392   0.24999   0.70096   0.00000  Uiso   1.00
O462   O     0.57608   0.25000   0.79903   0.00000  Uiso   1.00
Zn463  Zn    0.50000   0.25000   0.80307   0.00000  Uiso   1.00
Zn464  Zn    0.50000   0.24999   0.69693   0.00000  Uiso   1.00
Br465  Br    0.75847   0.17689   0.62133   0.00000  Uiso   1.00
Br466  Br    0.92152   0.31140   0.88072   0.00000  Uiso   1.00
C467   C     0.83244   0.16387   0.74974   0.00000  Uiso   1.00
C468   C     0.79349   0.22729   0.94107   0.00000  Uiso   1.00
C469   C     0.83255   0.25088   0.52661   0.00000  Uiso   1.00
C470   C     0.83224   0.25063   0.97316   0.00000  Uiso   1.00
C471   C     0.73369   0.24994   0.73749   0.00000  Uiso   1.00
C472   C     0.93298   0.25001   0.76251   0.00000  Uiso   1.00
C473   C     0.67855   0.24991   0.73084   0.00000  Uiso   1.00
C474   C     0.98812   0.24999   0.76917   0.00000  Uiso   1.00
C475   C     0.79097   0.04919   0.77923   0.00000  Uiso   1.00
C476   C     0.79164   0.44997   0.70821   0.00000  Uiso   1.00
C477   C     0.79792   0.09528   0.78056   0.00000  Uiso   1.00
C478   C     0.83251   0.33613   0.75001   0.00000  Uiso   1.00
C479   C     0.79859   0.40403   0.70899   0.00000  Uiso   1.00
C480   C     0.82657   0.11593   0.74866   0.00000  Uiso   1.00
C481   C     0.82664   0.38398   0.74933   0.00000  Uiso   1.00
C482   C     0.84766   0.09086   0.71479   0.00000  Uiso   1.00
C483   C     0.84719   0.40954   0.78931   0.00000  Uiso   1.00
C484   C     0.84176   0.04480   0.71394   0.00000  Uiso   1.00
C485   C     0.84126   0.45548   0.78837   0.00000  Uiso   1.00
C486   C     0.81372   0.02397   0.74618   0.00000  Uiso   1.00
C487   C     0.81376   0.47569   0.74790   0.00000  Uiso   1.00
C488   C     0.80398   0.21862   0.54808   0.00000  Uiso   1.00
C489   C     0.87105   0.27386   0.95310   0.00000  Uiso   1.00
C490   C     0.80371   0.21926   0.59728   0.00000  Uiso   1.00
C491   C     0.87033   0.27418   0.90378   0.00000  Uiso   1.00
C492   C     0.86171   0.28164   0.60677   0.00000  Uiso   1.00
C493   C     0.79526   0.22689   0.89190   0.00000  Uiso   1.00
C494   C     0.86127   0.28312   0.55731   0.00000  Uiso   1.00
Cl495  Cl    0.75346   0.02424   0.81891   0.00000  Uiso   1.00
Cl496  Cl    0.75490   0.47411   0.65748   0.00000  Uiso   1.00
H497   H     0.99103   0.24985   0.69455   0.00000  Uiso   1.00
H498   H     0.90242   0.29198   0.97509   0.00000  Uiso   1.00
H499   H     0.88426   0.30639   0.62960   0.00000  Uiso   1.00
H500   H     0.76551   0.20850   0.86810   0.00000  Uiso   1.00
H501   H     0.88297   0.30999   0.54384   0.00000  Uiso   1.00
H502   H     0.76125   0.20972   0.95312   0.00000  Uiso   1.00
H503   H     0.67564   0.25005   0.80546   0.00000  Uiso   1.00
H504   H     0.78043   0.11497   0.80600   0.00000  Uiso   1.00
H505   H     0.78156   0.38398   0.67844   0.00000  Uiso   1.00
H506   H     0.86965   0.10678   0.68991   0.00000  Uiso   1.00
H507   H     0.86877   0.39416   0.82064   0.00000  Uiso   1.00
H508   H     0.86001   0.02522   0.68892   0.00000  Uiso   1.00
H509   H     0.85906   0.47547   0.81870   0.00000  Uiso   1.00
H510   H     0.78161   0.19252   0.52731   0.00000  Uiso   1.00
N511   N     0.83333   0.24999   0.62623   0.00000  Uiso   1.00
N512   N     0.83333   0.25001   0.87376   0.00000  Uiso   1.00
O513   O     0.83334   0.18453   0.78974   0.00000  Uiso   1.00
O514   O     0.83333   0.31546   0.71026   0.00000  Uiso   1.00
O515   O     0.83334   0.18453   0.71026   0.00000  Uiso   1.00
O516   O     0.83333   0.31547   0.78974   0.00000  Uiso   1.00
O517   O     0.75725   0.25000   0.78044   0.00000  Uiso   1.00
O518   O     0.90942   0.25000   0.71955   0.00000  Uiso   1.00
O519   O     0.75725   0.24999   0.70096   0.00000  Uiso   1.00
O520   O     0.90942   0.25000   0.79903   0.00000  Uiso   1.00
Zn521  Zn    0.83333   0.25000   0.80307   0.00000  Uiso   1.00
Zn522  Zn    0.83333   0.24999   0.69693   0.00000  Uiso   1.00
Br523  Br    0.09180   0.67689   0.62133   0.00000  Uiso   1.00
Br524  Br    0.25486   0.81140   0.88072   0.00000  Uiso   1.00
C525   C     0.16577   0.66387   0.74974   0.00000  Uiso   1.00
C526   C     0.12682   0.72729   0.94107   0.00000  Uiso   1.00
C527   C     0.16588   0.75088   0.52661   0.00000  Uiso   1.00
C528   C     0.16558   0.75063   0.97316   0.00000  Uiso   1.00
C529   C     0.06702   0.74994   0.73749   0.00000  Uiso   1.00
C530   C     0.26631   0.75001   0.76251   0.00000  Uiso   1.00
C531   C     0.01189   0.74991   0.73084   0.00000  Uiso   1.00
C532   C     0.32145   0.74999   0.76917   0.00000  Uiso   1.00
C533   C     0.12431   0.54919   0.77923   0.00000  Uiso   1.00
C534   C     0.12498   0.94997   0.70821   0.00000  Uiso   1.00
C535   C     0.13125   0.59528   0.78056   0.00000  Uiso   1.00
C536   C     0.16584   0.83613   0.75001   0.00000  Uiso   1.00
C537   C     0.13193   0.90403   0.70899   0.00000  Uiso   1.00
C538   C     0.15990   0.61593   0.74866   0.00000  Uiso   1.00
C539   C     0.15998   0.88398   0.74933   0.00000  Uiso   1.00
C540   C     0.18100   0.59086   0.71479   0.00000  Uiso   1.00
C541   C     0.18053   0.90954   0.78931   0.00000  Uiso   1.00
C542   C     0.17509   0.54480   0.71394   0.00000  Uiso   1.00
C543   C     0.17459   0.95548   0.78837   0.00000  Uiso   1.00
C544   C     0.14706   0.52397   0.74618   0.00000  Uiso   1.00
C545   C     0.14710   0.97569   0.74790   0.00000  Uiso   1.00
C546   C     0.13731   0.71862   0.54808   0.00000  Uiso   1.00
C547   C     0.20438   0.77386   0.95310   0.00000  Uiso   1.00
C548   C     0.13705   0.71926   0.59728   0.00000  Uiso   1.00
C549   C     0.20366   0.77418   0.90378   0.00000  Uiso   1.00
C550   C     0.19505   0.78164   0.60677   0.00000  Uiso   1.00
C551   C     0.12859   0.72689   0.89190   0.00000  Uiso   1.00
C552   C     0.19461   0.78312   0.55731   0.00000  Uiso   1.00
Cl553  Cl    0.08680   0.52424   0.81891   0.00000  Uiso   1.00
Cl554  Cl    0.08824   0.97411   0.65748   0.00000  Uiso   1.00
H555   H     0.32436   0.74985   0.69455   0.00000  Uiso   1.00
H556   H     0.23575   0.79198   0.97509   0.00000  Uiso   1.00
H557   H     0.21760   0.80639   0.62960   0.00000  Uiso   1.00
H558   H     0.09884   0.70850   0.86810   0.00000  Uiso   1.00
H559   H     0.21631   0.80999   0.54384   0.00000  Uiso   1.00
H560   H     0.09459   0.70972   0.95312   0.00000  Uiso   1.00
H561   H     0.00898   0.75005   0.80546   0.00000  Uiso   1.00
H562   H     0.11376   0.61497   0.80600   0.00000  Uiso   1.00
H563   H     0.11489   0.88398   0.67844   0.00000  Uiso   1.00
H564   H     0.20298   0.60678   0.68991   0.00000  Uiso   1.00
H565   H     0.20210   0.89416   0.82064   0.00000  Uiso   1.00
H566   H     0.19334   0.52522   0.68892   0.00000  Uiso   1.00
H567   H     0.19239   0.97547   0.81870   0.00000  Uiso   1.00
H568   H     0.11494   0.69252   0.52731   0.00000  Uiso   1.00
N569   N     0.16667   0.74999   0.62623   0.00000  Uiso   1.00
N570   N     0.16667   0.75001   0.87376   0.00000  Uiso   1.00
O571   O     0.16667   0.68453   0.78974   0.00000  Uiso   1.00
O572   O     0.16666   0.81546   0.71026   0.00000  Uiso   1.00
O573   O     0.16667   0.68453   0.71026   0.00000  Uiso   1.00
O574   O     0.16666   0.81547   0.78974   0.00000  Uiso   1.00
O575   O     0.09058   0.75000   0.78044   0.00000  Uiso   1.00
O576   O     0.24275   0.75000   0.71955   0.00000  Uiso   1.00
O577   O     0.09058   0.74999   0.70096   0.00000  Uiso   1.00
O578   O     0.24275   0.75000   0.79903   0.00000  Uiso   1.00
Zn579  Zn    0.16667   0.75000   0.80307   0.00000  Uiso   1.00
Zn580  Zn    0.16667   0.74999   0.69693   0.00000  Uiso   1.00
Br581  Br    0.42514   0.67689   0.62133   0.00000  Uiso   1.00
Br582  Br    0.58819   0.81140   0.88072   0.00000  Uiso   1.00
C583   C     0.49911   0.66387   0.74974   0.00000  Uiso   1.00
C584   C     0.46015   0.72729   0.94107   0.00000  Uiso   1.00
C585   C     0.49921   0.75088   0.52661   0.00000  Uiso   1.00
C586   C     0.49891   0.75063   0.97316   0.00000  Uiso   1.00
C587   C     0.40036   0.74994   0.73749   0.00000  Uiso   1.00
C588   C     0.59964   0.75001   0.76251   0.00000  Uiso   1.00
C589   C     0.34522   0.74991   0.73084   0.00000  Uiso   1.00
C590   C     0.65478   0.74999   0.76917   0.00000  Uiso   1.00
C591   C     0.45764   0.54919   0.77923   0.00000  Uiso   1.00
C592   C     0.45831   0.94997   0.70821   0.00000  Uiso   1.00
C593   C     0.46458   0.59528   0.78056   0.00000  Uiso   1.00
C594   C     0.49917   0.83613   0.75001   0.00000  Uiso   1.00
C595   C     0.46526   0.90403   0.70899   0.00000  Uiso   1.00
C596   C     0.49323   0.61593   0.74866   0.00000  Uiso   1.00
C597   C     0.49331   0.88398   0.74933   0.00000  Uiso   1.00
C598   C     0.51433   0.59086   0.71479   0.00000  Uiso   1.00
C599   C     0.51386   0.90954   0.78931   0.00000  Uiso   1.00
C600   C     0.50842   0.54480   0.71394   0.00000  Uiso   1.00
C601   C     0.50792   0.95548   0.78837   0.00000  Uiso   1.00
C602   C     0.48039   0.52397   0.74618   0.00000  Uiso   1.00
C603   C     0.48043   0.97569   0.74790   0.00000  Uiso   1.00
C604   C     0.47064   0.71862   0.54808   0.00000  Uiso   1.00
C605   C     0.53772   0.77386   0.95310   0.00000  Uiso   1.00
C606   C     0.47038   0.71926   0.59728   0.00000  Uiso   1.00
C607   C     0.53699   0.77418   0.90378   0.00000  Uiso   1.00
C608   C     0.52838   0.78164   0.60677   0.00000  Uiso   1.00
C609   C     0.46192   0.72689   0.89190   0.00000  Uiso   1.00
C610   C     0.52794   0.78312   0.55731   0.00000  Uiso   1.00
Cl611  Cl    0.42013   0.52424   0.81891   0.00000  Uiso   1.00
Cl612  Cl    0.42157   0.97411   0.65748   0.00000  Uiso   1.00
H613   H     0.65769   0.74985   0.69455   0.00000  Uiso   1.00
H614   H     0.56909   0.79198   0.97509   0.00000  Uiso   1.00
H615   H     0.55093   0.80639   0.62960   0.00000  Uiso   1.00
H616   H     0.43217   0.70850   0.86810   0.00000  Uiso   1.00
H617   H     0.54964   0.80999   0.54384   0.00000  Uiso   1.00
H618   H     0.42792   0.70972   0.95312   0.00000  Uiso   1.00
H619   H     0.34231   0.75005   0.80546   0.00000  Uiso   1.00
H620   H     0.44710   0.61497   0.80600   0.00000  Uiso   1.00
H621   H     0.44823   0.88398   0.67844   0.00000  Uiso   1.00
H622   H     0.53632   0.60678   0.68991   0.00000  Uiso   1.00
H623   H     0.53544   0.89416   0.82064   0.00000  Uiso   1.00
H624   H     0.52667   0.52522   0.68892   0.00000  Uiso   1.00
H625   H     0.52573   0.97547   0.81870   0.00000  Uiso   1.00
H626   H     0.44827   0.69252   0.52731   0.00000  Uiso   1.00
N627   N     0.50000   0.74999   0.62623   0.00000  Uiso   1.00
N628   N     0.50000   0.75001   0.87376   0.00000  Uiso   1.00
O629   O     0.50000   0.68453   0.78974   0.00000  Uiso   1.00
O630   O     0.50000   0.81546   0.71026   0.00000  Uiso   1.00
O631   O     0.50000   0.68453   0.71026   0.00000  Uiso   1.00
O632   O     0.50000   0.81547   0.78974   0.00000  Uiso   1.00
O633   O     0.42392   0.75000   0.78044   0.00000  Uiso   1.00
O634   O     0.57608   0.75000   0.71955   0.00000  Uiso   1.00
O635   O     0.42392   0.74999   0.70096   0.00000  Uiso   1.00
O636   O     0.57608   0.75000   0.79903   0.00000  Uiso   1.00
Zn637  Zn    0.50000   0.75000   0.80307   0.00000  Uiso   1.00
Zn638  Zn    0.50000   0.74999   0.69693   0.00000  Uiso   1.00
Br639  Br    0.75847   0.67689   0.62133   0.00000  Uiso   1.00
Br640  Br    0.92152   0.81140   0.88072   0.00000  Uiso   1.00
C641   C     0.83244   0.66387   0.74974   0.00000  Uiso   1.00
C642   C     0.79349   0.72729   0.94107   0.00000  Uiso   1.00
C643   C     0.83255   0.75088   0.52661   0.00000  Uiso   1.00
C644   C     0.83224   0.75063   0.97316   0.00000  Uiso   1.00
C645   C     0.73369   0.74994   0.73749   0.00000  Uiso   1.00
C646   C     0.93298   0.75001   0.76251   0.00000  Uiso   1.00
C647   C     0.67855   0.74991   0.73084   0.00000  Uiso   1.00
C648   C     0.98812   0.74999   0.76917   0.00000  Uiso   1.00
C649   C     0.79097   0.54919   0.77923   0.00000  Uiso   1.00
C650   C     0.79164   0.94997   0.70821   0.00000  Uiso   1.00
C651   C     0.79792   0.59528   0.78056   0.00000  Uiso   1.00
C652   C     0.83251   0.83613   0.75001   0.00000  Uiso   1.00
C653   C     0.79859   0.90403   0.70899   0.00000  Uiso   1.00
C654   C     0.82657   0.61593   0.74866   0.00000  Uiso   1.00
C655   C     0.82664   0.88398   0.74933   0.00000  Uiso   1.00
C656   C     0.84766   0.59086   0.71479   0.00000  Uiso   1.00
C657   C     0.84719   0.90954   0.78931   0.00000  Uiso   1.00
C658   C     0.84176   0.54480   0.71394   0.00000  Uiso   1.00
C659   C     0.84126   0.95548   0.78837   0.00000  Uiso   1.00
C660   C     0.81372   0.52397   0.74618   0.00000  Uiso   1.00
C661   C     0.81376   0.97569   0.74790   0.00000  Uiso   1.00
C662   C     0.80398   0.71862   0.54808   0.00000  Uiso   1.00
C663   C     0.87105   0.77386   0.95310   0.00000  Uiso   1.00
C664   C     0.80371   0.71926   0.59728   0.00000  Uiso   1.00
C665   C     0.87033   0.77418   0.90378   0.00000  Uiso   1.00
C666   C     0.86171   0.78164   0.60677   0.00000  Uiso   1.00
C667   C     0.79526   0.72689   0.89190   0.00000  Uiso   1.00
C668   C     0.86127   0.78312   0.55731   0.00000  Uiso   1.00
Cl669  Cl    0.75346   0.52424   0.81891   0.00000  Uiso   1.00
Cl670  Cl    0.75490   0.97411   0.65748   0.00000  Uiso   1.00
H671   H     0.99103   0.74985   0.69455   0.00000  Uiso   1.00
H672   H     0.90242   0.79198   0.97509   0.00000  Uiso   1.00
H673   H     0.88426   0.80639   0.62960   0.00000  Uiso   1.00
H674   H     0.76551   0.70850   0.86810   0.00000  Uiso   1.00
H675   H     0.88297   0.80999   0.54384   0.00000  Uiso   1.00
H676   H     0.76125   0.70972   0.95312   0.00000  Uiso   1.00
H677   H     0.67564   0.75005   0.80546   0.00000  Uiso   1.00
H678   H     0.78043   0.61497   0.80600   0.00000  Uiso   1.00
H679   H     0.78156   0.88398   0.67844   0.00000  Uiso   1.00
H680   H     0.86965   0.60678   0.68991   0.00000  Uiso   1.00
H681   H     0.86877   0.89416   0.82064   0.00000  Uiso   1.00
H682   H     0.86001   0.52522   0.68892   0.00000  Uiso   1.00
H683   H     0.85906   0.97547   0.81870   0.00000  Uiso   1.00
H684   H     0.78161   0.69252   0.52731   0.00000  Uiso   1.00
N685   N     0.83333   0.74999   0.62623   0.00000  Uiso   1.00
N686   N     0.83333   0.75001   0.87376   0.00000  Uiso   1.00
O687   O     0.83334   0.68453   0.78974   0.00000  Uiso   1.00
O688   O     0.83333   0.81546   0.71026   0.00000  Uiso   1.00
O689   O     0.83334   0.68453   0.71026   0.00000  Uiso   1.00
O690   O     0.83333   0.81547   0.78974   0.00000  Uiso   1.00
O691   O     0.75725   0.75000   0.78044   0.00000  Uiso   1.00
O692   O     0.90942   0.75000   0.71955   0.00000  Uiso   1.00
O693   O     0.75725   0.74999   0.70096   0.00000  Uiso   1.00
O694   O     0.90942   0.75000   0.79903   0.00000  Uiso   1.00
Zn695  Zn    0.83333   0.75000   0.80307   0.00000  Uiso   1.00
Zn696  Zn    0.83333   0.74999   0.69693   0.00000  Uiso   1.00
loop_
_geom_bond_atom_site_label_1
_geom_bond_atom_site_label_2
_geom_bond_distance
_geom_bond_site_symmetry_2
_ccdc_geom_bond_type
Br1    C26     1.912   .     S
Br2    C27     1.912   .     S
C3     O49     1.289   .     A
C3     O51     1.290   .     A
C3     C16     1.436   .     S
C4     C29     1.409   .     A
C4     C6      1.417   .     A
C4     H38     1.079   .     S
C5     C24     1.406   .     A
C5     C30     1.417   .     A
C5     C354    1.522   1_554 S
C6     C25     1.406   .     A
C6     C353    1.522   .     S
C7     O55     1.284   .     A
C7     O53     1.278   .     A
C7     C9      1.403   .     S
C8     O56     1.284   .     A
C8     O54     1.278   .     A
C8     C10     1.404   .     S
C9     C126    1.333   1_455 S
C9     H149    1.088   1_455 S
C10    C67     1.333   .     S
C10    H97     1.088   .     S
C11    C22     1.403   .     A
C11    Cl31    1.762   .     S
C11    C13     1.384   .     A
C12    C15     1.384   .     A
C12    Cl32    1.762   .     S
C12    C23     1.403   .     A
C13    C16     1.400   .     A
C13    H40     1.084   .     S
C14    C17     1.437   .     S
C14    O50     1.288   .     A
C14    O52     1.290   .     A
C15    H41     1.084   .     S
C15    C17     1.400   .     A
C16    C18     1.396   .     A
C17    C19     1.396   .     A
C18    C20     1.381   .     A
C18    H42     1.084   .     S
C19    C21     1.381   .     A
C19    H43     1.083   .     S
C20    C22     1.399   .     A
C20    H44     1.084   .     S
C21    H45     1.084   .     S
C21    C23     1.399   .     A
C22    C197    1.442   1_545 S
C23    C196    1.442   .     S
C24    H46     1.079   .     S
C24    C26     1.403   .     A
C25    C27     1.402   .     A
C25    H34     1.079   .     S
C26    N47     1.371   .     A
C27    N48     1.371   .     A
C28    N47     1.362   .     A
C28    C30     1.408   .     A
C28    H35     1.082   .     S
C29    H36     1.082   .     S
C29    N48     1.362   .     A
C30    H37     1.079   .     S
H33    C67     1.088   .     S
H39    C126    1.088   1_455 S
N47    Zn58    2.014   .     S
N48    Zn57    2.014   .     S
O49    Zn57    1.987   .     S
O50    Zn58    1.987   .     S
O51    Zn58    1.993   .     S
O52    Zn57    1.993   .     S
O53    Zn57    1.965   .     S
O54    Zn58    1.965   .     S
O55    Zn58    1.982   .     S
O56    Zn57    1.982   .     S
Br59   C84     1.912   .     S
Br60   C85     1.912   .     S
C61    O107    1.289   .     A
C61    O109    1.290   .     A
C61    C74     1.436   .     S
C62    C87     1.409   .     A
C62    C64     1.417   .     A
C62    H96     1.079   .     S
C63    C82     1.406   .     A
C63    C88     1.417   .     A
C63    C412    1.522   1_554 S
C64    C83     1.406   .     A
C64    C411    1.522   .     S
C65    O113    1.284   .     A
C65    O111    1.278   .     A
C65    C67     1.403   .     S
C66    O114    1.284   .     A
C66    O112    1.278   .     A
C66    C68     1.404   .     S
C68    C125    1.333   .     S
C68    H155    1.088   .     S
C69    C80     1.403   .     A
C69    Cl89    1.762   .     S
C69    C71     1.384   .     A
C70    C73     1.384   .     A
C70    Cl90    1.762   .     S
C70    C81     1.403   .     A
C71    C74     1.400   .     A
C71    H98     1.084   .     S
C72    C75     1.437   .     S
C72    O108    1.288   .     A
C72    O110    1.290   .     A
C73    H99     1.084   .     S
C73    C75     1.400   .     A
C74    C76     1.396   .     A
C75    C77     1.396   .     A
C76    C78     1.381   .     A
C76    H100    1.084   .     S
C77    C79     1.381   .     A
C77    H101    1.083   .     S
C78    C80     1.399   .     A
C78    H102    1.084   .     S
C79    H103    1.084   .     S
C79    C81     1.399   .     A
C80    C255    1.442   1_545 S
C81    C254    1.442   .     S
C82    H104    1.079   .     S
C82    C84     1.403   .     A
C83    C85     1.402   .     A
C83    H92     1.079   .     S
C84    N105    1.371   .     A
C85    N106    1.371   .     A
C86    N105    1.362   .     A
C86    C88     1.408   .     A
C86    H93     1.082   .     S
C87    H94     1.082   .     S
C87    N106    1.362   .     A
C88    H95     1.079   .     S
H91    C125    1.088   .     S
N105   Zn116   2.014   .     S
N106   Zn115   2.014   .     S
O107   Zn115   1.987   .     S
O108   Zn116   1.987   .     S
O109   Zn116   1.993   .     S
O110   Zn115   1.993   .     S
O111   Zn115   1.965   .     S
O112   Zn116   1.965   .     S
O113   Zn116   1.982   .     S
O114   Zn115   1.982   .     S
Br117  C142    1.912   .     S
Br118  C143    1.912   .     S
C119   O165    1.289   .     A
C119   O167    1.290   .     A
C119   C132    1.436   .     S
C120   C145    1.409   .     A
C120   C122    1.417   .     A
C120   H154    1.079   .     S
C121   C140    1.406   .     A
C121   C146    1.417   .     A
C121   C470    1.522   1_554 S
C122   C141    1.406   .     A
C122   C469    1.522   .     S
C123   O171    1.284   .     A
C123   O169    1.278   .     A
C123   C125    1.403   .     S
C124   O172    1.284   .     A
C124   O170    1.278   .     A
C124   C126    1.404   .     S
C126   C9      1.333   1_655 S
C126   H39     1.088   1_655 S
C127   C138    1.403   .     A
C127   Cl147   1.762   .     S
C127   C129    1.384   .     A
C128   C131    1.384   .     A
C128   Cl148   1.762   .     S
C128   C139    1.403   .     A
C129   C132    1.400   .     A
C129   H156    1.084   .     S
C130   C133    1.437   .     S
C130   O166    1.288   .     A
C130   O168    1.290   .     A
C131   H157    1.084   .     S
C131   C133    1.400   .     A
C132   C134    1.396   .     A
C133   C135    1.396   .     A
C134   C136    1.381   .     A
C134   H158    1.084   .     S
C135   C137    1.381   .     A
C135   H159    1.083   .     S
C136   C138    1.399   .     A
C136   H160    1.084   .     S
C137   H161    1.084   .     S
C137   C139    1.399   .     A
C138   C313    1.442   1_545 S
C139   C312    1.442   .     S
C140   H162    1.079   .     S
C140   C142    1.403   .     A
C141   C143    1.402   .     A
C141   H150    1.079   .     S
C142   N163    1.371   .     A
C143   N164    1.371   .     A
C144   N163    1.362   .     A
C144   C146    1.408   .     A
C144   H151    1.082   .     S
C145   H152    1.082   .     S
C145   N164    1.362   .     A
C146   H153    1.079   .     S
H149   C9      1.088   1_655 S
N163   Zn174   2.014   .     S
N164   Zn173   2.014   .     S
O165   Zn173   1.987   .     S
O166   Zn174   1.987   .     S
O167   Zn174   1.993   .     S
O168   Zn173   1.993   .     S
O169   Zn173   1.965   .     S
O170   Zn174   1.965   .     S
O171   Zn174   1.982   .     S
O172   Zn173   1.982   .     S
Br175  C200    1.912   .     S
Br176  C201    1.912   .     S
C177   O223    1.289   .     A
C177   O225    1.290   .     A
C177   C190    1.436   .     S
C178   C203    1.409   .     A
C178   C180    1.417   .     A
C178   H212    1.079   .     S
C179   C198    1.406   .     A
C179   C204    1.417   .     A
C179   C528    1.522   1_554 S
C180   C199    1.406   .     A
C180   C527    1.522   .     S
C181   O229    1.284   .     A
C181   O227    1.278   .     A
C181   C183    1.403   .     S
C182   O230    1.284   .     A
C182   O228    1.278   .     A
C182   C184    1.404   .     S
C183   C300    1.333   1_455 S
C183   H323    1.088   1_455 S
C184   C241    1.333   .     S
C184   H271    1.088   .     S
C185   C196    1.403   .     A
C185   Cl205   1.762   .     S
C185   C187    1.384   .     A
C186   C189    1.384   .     A
C186   Cl206   1.762   .     S
C186   C197    1.403   .     A
C187   C190    1.400   .     A
C187   H214    1.084   .     S
C188   C191    1.437   .     S
C188   O224    1.288   .     A
C188   O226    1.290   .     A
C189   H215    1.084   .     S
C189   C191    1.400   .     A
C190   C192    1.396   .     A
C191   C193    1.396   .     A
C192   C194    1.381   .     A
C192   H216    1.084   .     S
C193   C195    1.381   .     A
C193   H217    1.083   .     S
C194   C196    1.399   .     A
C194   H218    1.084   .     S
C195   H219    1.084   .     S
C195   C197    1.399   .     A
C197   C22     1.442   1_565 S
C198   H220    1.079   .     S
C198   C200    1.403   .     A
C199   C201    1.402   .     A
C199   H208    1.079   .     S
C200   N221    1.371   .     A
C201   N222    1.371   .     A
C202   N221    1.362   .     A
C202   C204    1.408   .     A
C202   H209    1.082   .     S
C203   H210    1.082   .     S
C203   N222    1.362   .     A
C204   H211    1.079   .     S
H207   C241    1.088   .     S
H213   C300    1.088   1_455 S
N221   Zn232   2.014   .     S
N222   Zn231   2.014   .     S
O223   Zn231   1.987   .     S
O224   Zn232   1.987   .     S
O225   Zn232   1.993   .     S
O226   Zn231   1.993   .     S
O227   Zn231   1.965   .     S
O228   Zn232   1.965   .     S
O229   Zn232   1.982   .     S
O230   Zn231   1.982   .     S
Br233  C258    1.912   .     S
Br234  C259    1.912   .     S
C235   O281    1.289   .     A
C235   O283    1.290   .     A
C235   C248    1.436   .     S
C236   C261    1.409   .     A
C236   C238    1.417   .     A
C236   H270    1.079   .     S
C237   C256    1.406   .     A
C237   C262    1.417   .     A
C237   C586    1.522   1_554 S
C238   C257    1.406   .     A
C238   C585    1.522   .     S
C239   O287    1.284   .     A
C239   O285    1.278   .     A
C239   C241    1.403   .     S
C240   O288    1.284   .     A
C240   O286    1.278   .     A
C240   C242    1.404   .     S
C242   C299    1.333   .     S
C242   H329    1.088   .     S
C243   C254    1.403   .     A
C243   Cl263   1.762   .     S
C243   C245    1.384   .     A
C244   C247    1.384   .     A
C244   Cl264   1.762   .     S
C244   C255    1.403   .     A
C245   C248    1.400   .     A
C245   H272    1.084   .     S
C246   C249    1.437   .     S
C246   O282    1.288   .     A
C246   O284    1.290   .     A
C247   H273    1.084   .     S
C247   C249    1.400   .     A
C248   C250    1.396   .     A
C249   C251    1.396   .     A
C250   C252    1.381   .     A
C250   H274    1.084   .     S
C251   C253    1.381   .     A
C251   H275    1.083   .     S
C252   C254    1.399   .     A
C252   H276    1.084   .     S
C253   H277    1.084   .     S
C253   C255    1.399   .     A
C255   C80     1.442   1_565 S
C256   H278    1.079   .     S
C256   C258    1.403   .     A
C257   C259    1.402   .     A
C257   H266    1.079   .     S
C258   N279    1.371   .     A
C259   N280    1.371   .     A
C260   N279    1.362   .     A
C260   C262    1.408   .     A
C260   H267    1.082   .     S
C261   H268    1.082   .     S
C261   N280    1.362   .     A
C262   H269    1.079   .     S
H265   C299    1.088   .     S
N279   Zn290   2.014   .     S
N280   Zn289   2.014   .     S
O281   Zn289   1.987   .     S
O282   Zn290   1.987   .     S
O283   Zn290   1.993   .     S
O284   Zn289   1.993   .     S
O285   Zn289   1.965   .     S
O286   Zn290   1.965   .     S
O287   Zn290   1.982   .     S
O288   Zn289   1.982   .     S
Br291  C316    1.912   .     S
Br292  C317    1.912   .     S
C293   O339    1.289   .     A
C293   O341    1.290   .     A
C293   C306    1.436   .     S
C294   C319    1.409   .     A
C294   C296    1.417   .     A
C294   H328    1.079   .     S
C295   C314    1.406   .     A
C295   C320    1.417   .     A
C295   C644    1.522   1_554 S
C296   C315    1.406   .     A
C296   C643    1.522   .     S
C297   O345    1.284   .     A
C297   O343    1.278   .     A
C297   C299    1.403   .     S
C298   O346    1.284   .     A
C298   O344    1.278   .     A
C298   C300    1.404   .     S
C300   C183    1.333   1_655 S
C300   H213    1.088   1_655 S
C301   C312    1.403   .     A
C301   Cl321   1.762   .     S
C301   C303    1.384   .     A
C302   C305    1.384   .     A
C302   Cl322   1.762   .     S
C302   C313    1.403   .     A
C303   C306    1.400   .     A
C303   H330    1.084   .     S
C304   C307    1.437   .     S
C304   O340    1.288   .     A
C304   O342    1.290   .     A
C305   H331    1.084   .     S
C305   C307    1.400   .     A
C306   C308    1.396   .     A
C307   C309    1.396   .     A
C308   C310    1.381   .     A
C308   H332    1.084   .     S
C309   C311    1.381   .     A
C309   H333    1.083   .     S
C310   C312    1.399   .     A
C310   H334    1.084   .     S
C311   H335    1.084   .     S
C311   C313    1.399   .     A
C313   C138    1.442   1_565 S
C314   H336    1.079   .     S
C314   C316    1.403   .     A
C315   C317    1.402   .     A
C315   H324    1.079   .     S
C316   N337    1.371   .     A
C317   N338    1.371   .     A
C318   N337    1.362   .     A
C318   C320    1.408   .     A
C318   H325    1.082   .     S
C319   H326    1.082   .     S
C319   N338    1.362   .     A
C320   H327    1.079   .     S
H323   C183    1.088   1_655 S
N337   Zn348   2.014   .     S
N338   Zn347   2.014   .     S
O339   Zn347   1.987   .     S
O340   Zn348   1.987   .     S
O341   Zn348   1.993   .     S
O342   Zn347   1.993   .     S
O343   Zn347   1.965   .     S
O344   Zn348   1.965   .     S
O345   Zn348   1.982   .     S
O346   Zn347   1.982   .     S
Br349  C374    1.912   .     S
Br350  C375    1.912   .     S
C351   O397    1.289   .     A
C351   O399    1.290   .     A
C351   C364    1.436   .     S
C352   C377    1.409   .     A
C352   C354    1.417   .     A
C352   H386    1.079   .     S
C353   C372    1.406   .     A
C353   C378    1.417   .     A
C354   C373    1.406   .     A
C354   C5      1.522   1_556 S
C355   O403    1.284   .     A
C355   O401    1.278   .     A
C355   C357    1.403   .     S
C356   O404    1.284   .     A
C356   O402    1.278   .     A
C356   C358    1.404   .     S
C357   C474    1.333   1_455 S
C357   H497    1.088   1_455 S
C358   C415    1.333   .     S
C358   H445    1.088   .     S
C359   C370    1.403   .     A
C359   Cl379   1.762   .     S
C359   C361    1.384   .     A
C360   C363    1.384   .     A
C360   Cl380   1.762   .     S
C360   C371    1.403   .     A
C361   C364    1.400   .     A
C361   H388    1.084   .     S
C362   C365    1.437   .     S
C362   O398    1.288   .     A
C362   O400    1.290   .     A
C363   H389    1.084   .     S
C363   C365    1.400   .     A
C364   C366    1.396   .     A
C365   C367    1.396   .     A
C366   C368    1.381   .     A
C366   H390    1.084   .     S
C367   C369    1.381   .     A
C367   H391    1.083   .     S
C368   C370    1.399   .     A
C368   H392    1.084   .     S
C369   H393    1.084   .     S
C369   C371    1.399   .     A
C370   C545    1.442   1_545 S
C371   C544    1.442   .     S
C372   H394    1.079   .     S
C372   C374    1.403   .     A
C373   C375    1.402   .     A
C373   H382    1.079   .     S
C374   N395    1.371   .     A
C375   N396    1.371   .     A
C376   N395    1.362   .     A
C376   C378    1.408   .     A
C376   H383    1.082   .     S
C377   H384    1.082   .     S
C377   N396    1.362   .     A
C378   H385    1.079   .     S
H381   C415    1.088   .     S
H387   C474    1.088   1_455 S
N395   Zn406   2.014   .     S
N396   Zn405   2.014   .     S
O397   Zn405   1.987   .     S
O398   Zn406   1.987   .     S
O399   Zn406   1.993   .     S
O400   Zn405   1.993   .     S
O401   Zn405   1.965   .     S
O402   Zn406   1.965   .     S
O403   Zn406   1.982   .     S
O404   Zn405   1.982   .     S
Br407  C432    1.912   .     S
Br408  C433    1.912   .     S
C409   O455    1.289   .     A
C409   O457    1.290   .     A
C409   C422    1.436   .     S
C410   C435    1.409   .     A
C410   C412    1.417   .     A
C410   H444    1.079   .     S
C411   C430    1.406   .     A
C411   C436    1.417   .     A
C412   C431    1.406   .     A
C412   C63     1.522   1_556 S
C413   O461    1.284   .     A
C413   O459    1.278   .     A
C413   C415    1.403   .     S
C414   O462    1.284   .     A
C414   O460    1.278   .     A
C414   C416    1.404   .     S
C416   C473    1.333   .     S
C416   H503    1.088   .     S
C417   C428    1.403   .     A
C417   Cl437   1.762   .     S
C417   C419    1.384   .     A
C418   C421    1.384   .     A
C418   Cl438   1.762   .     S
C418   C429    1.403   .     A
C419   C422    1.400   .     A
C419   H446    1.084   .     S
C420   C423    1.437   .     S
C420   O456    1.288   .     A
C420   O458    1.290   .     A
C421   H447    1.084   .     S
C421   C423    1.400   .     A
C422   C424    1.396   .     A
C423   C425    1.396   .     A
C424   C426    1.381   .     A
C424   H448    1.084   .     S
C425   C427    1.381   .     A
C425   H449    1.083   .     S
C426   C428    1.399   .     A
C426   H450    1.084   .     S
C427   H451    1.084   .     S
C427   C429    1.399   .     A
C428   C603    1.442   1_545 S
C429   C602    1.442   .     S
C430   H452    1.079   .     S
C430   C432    1.403   .     A
C431   C433    1.402   .     A
C431   H440    1.079   .     S
C432   N453    1.371   .     A
C433   N454    1.371   .     A
C434   N453    1.362   .     A
C434   C436    1.408   .     A
C434   H441    1.082   .     S
C435   H442    1.082   .     S
C435   N454    1.362   .     A
C436   H443    1.079   .     S
H439   C473    1.088   .     S
N453   Zn464   2.014   .     S
N454   Zn463   2.014   .     S
O455   Zn463   1.987   .     S
O456   Zn464   1.987   .     S
O457   Zn464   1.993   .     S
O458   Zn463   1.993   .     S
O459   Zn463   1.965   .     S
O460   Zn464   1.965   .     S
O461   Zn464   1.982   .     S
O462   Zn463   1.982   .     S
Br465  C490    1.912   .     S
Br466  C491    1.912   .     S
C467   O513    1.289   .     A
C467   O515    1.290   .     A
C467   C480    1.436   .     S
C468   C493    1.409   .     A
C468   C470    1.417   .     A
C468   H502    1.079   .     S
C469   C488    1.406   .     A
C469   C494    1.417   .     A
C470   C489    1.406   .     A
C470   C121    1.522   1_556 S
C471   O519    1.284   .     A
C471   O517    1.278   .     A
C471   C473    1.403   .     S
C472   O520    1.284   .     A
C472   O518    1.278   .     A
C472   C474    1.404   .     S
C474   C357    1.333   1_655 S
C474   H387    1.088   1_655 S
C475   C486    1.403   .     A
C475   Cl495   1.762   .     S
C475   C477    1.384   .     A
C476   C479    1.384   .     A
C476   Cl496   1.762   .     S
C476   C487    1.403   .     A
C477   C480    1.400   .     A
C477   H504    1.084   .     S
C478   C481    1.437   .     S
C478   O514    1.288   .     A
C478   O516    1.290   .     A
C479   H505    1.084   .     S
C479   C481    1.400   .     A
C480   C482    1.396   .     A
C481   C483    1.396   .     A
C482   C484    1.381   .     A
C482   H506    1.084   .     S
C483   C485    1.381   .     A
C483   H507    1.083   .     S
C484   C486    1.399   .     A
C484   H508    1.084   .     S
C485   H509    1.084   .     S
C485   C487    1.399   .     A
C486   C661    1.442   1_545 S
C487   C660    1.442   .     S
C488   H510    1.079   .     S
C488   C490    1.403   .     A
C489   C491    1.402   .     A
C489   H498    1.079   .     S
C490   N511    1.371   .     A
C491   N512    1.371   .     A
C492   N511    1.362   .     A
C492   C494    1.408   .     A
C492   H499    1.082   .     S
C493   H500    1.082   .     S
C493   N512    1.362   .     A
C494   H501    1.079   .     S
H497   C357    1.088   1_655 S
N511   Zn522   2.014   .     S
N512   Zn521   2.014   .     S
O513   Zn521   1.987   .     S
O514   Zn522   1.987   .     S
O515   Zn522   1.993   .     S
O516   Zn521   1.993   .     S
O517   Zn521   1.965   .     S
O518   Zn522   1.965   .     S
O519   Zn522   1.982   .     S
O520   Zn521   1.982   .     S
Br523  C548    1.912   .     S
Br524  C549    1.912   .     S
C525   O571    1.289   .     A
C525   O573    1.290   .     A
C525   C538    1.436   .     S
C526   C551    1.409   .     A
C526   C528    1.417   .     A
C526   H560    1.079   .     S
C527   C546    1.406   .     A
C527   C552    1.417   .     A
C528   C547    1.406   .     A
C528   C179    1.522   1_556 S
C529   O577    1.284   .     A
C529   O575    1.278   .     A
C529   C531    1.403   .     S
C530   O578    1.284   .     A
C530   O576    1.278   .     A
C530   C532    1.404   .     S
C531   C648    1.333   1_455 S
C531   H671    1.088   1_455 S
C532   C589    1.333   .     S
C532   H619    1.088   .     S
C533   C544    1.403   .     A
C533   Cl553   1.762   .     S
C533   C535    1.384   .     A
C534   C537    1.384   .     A
C534   Cl554   1.762   .     S
C534   C545    1.403   .     A
C535   C538    1.400   .     A
C535   H562    1.084   .     S
C536   C539    1.437   .     S
C536   O572    1.288   .     A
C536   O574    1.290   .     A
C537   H563    1.084   .     S
C537   C539    1.400   .     A
C538   C540    1.396   .     A
C539   C541    1.396   .     A
C540   C542    1.381   .     A
C540   H564    1.084   .     S
C541   C543    1.381   .     A
C541   H565    1.083   .     S
C542   C544    1.399   .     A
C542   H566    1.084   .     S
C543   H567    1.084   .     S
C543   C545    1.399   .     A
C545   C370    1.442   1_565 S
C546   H568    1.079   .     S
C546   C548    1.403   .     A
C547   C549    1.402   .     A
C547   H556    1.079   .     S
C548   N569    1.371   .     A
C549   N570    1.371   .     A
C550   N569    1.362   .     A
C550   C552    1.408   .     A
C550   H557    1.082   .     S
C551   H558    1.082   .     S
C551   N570    1.362   .     A
C552   H559    1.079   .     S
H555   C589    1.088   .     S
H561   C648    1.088   1_455 S
N569   Zn580   2.014   .     S
N570   Zn579   2.014   .     S
O571   Zn579   1.987   .     S
O572   Zn580   1.987   .     S
O573   Zn580   1.993   .     S
O574   Zn579   1.993   .     S
O575   Zn579   1.965   .     S
O576   Zn580   1.965   .     S
O577   Zn580   1.982   .     S
O578   Zn579   1.982   .     S
Br581  C606    1.912   .     S
Br582  C607    1.912   .     S
C583   O629    1.289   .     A
C583   O631    1.290   .     A
C583   C596    1.436   .     S
C584   C609    1.409   .     A
C584   C586    1.417   .     A
C584   H618    1.079   .     S
C585   C604    1.406   .     A
C585   C610    1.417   .     A
C586   C605    1.406   .     A
C586   C237    1.522   1_556 S
C587   O635    1.284   .     A
C587   O633    1.278   .     A
C587   C589    1.403   .     S
C588   O636    1.284   .     A
C588   O634    1.278   .     A
C588   C590    1.404   .     S
C590   C647    1.333   .     S
C590   H677    1.088   .     S
C591   C602    1.403   .     A
C591   Cl611   1.762   .     S
C591   C593    1.384   .     A
C592   C595    1.384   .     A
C592   Cl612   1.762   .     S
C592   C603    1.403   .     A
C593   C596    1.400   .     A
C593   H620    1.084   .     S
C594   C597    1.437   .     S
C594   O630    1.288   .     A
C594   O632    1.290   .     A
C595   H621    1.084   .     S
C595   C597    1.400   .     A
C596   C598    1.396   .     A
C597   C599    1.396   .     A
C598   C600    1.381   .     A
C598   H622    1.084   .     S
C599   C601    1.381   .     A
C599   H623    1.083   .     S
C600   C602    1.399   .     A
C600   H624    1.084   .     S
C601   H625    1.084   .     S
C601   C603    1.399   .     A
C603   C428    1.442   1_565 S
C604   H626    1.079   .     S
C604   C606    1.403   .     A
C605   C607    1.402   .     A
C605   H614    1.079   .     S
C606   N627    1.371   .     A
C607   N628    1.371   .     A
C608   N627    1.362   .     A
C608   C610    1.408   .     A
C608   H615    1.082   .     S
C609   H616    1.082   .     S
C609   N628    1.362   .     A
C610   H617    1.079   .     S
H613   C647    1.088   .     S
N627   Zn638   2.014   .     S
N628   Zn637   2.014   .     S
O629   Zn637   1.987   .     S
O630   Zn638   1.987   .     S
O631   Zn638   1.993   .     S
O632   Zn637   1.993   .     S
O633   Zn637   1.965   .     S
O634   Zn638   1.965   .     S
O635   Zn638   1.982   .     S
O636   Zn637   1.982   .     S
Br639  C664    1.912   .     S
Br640  C665    1.912   .     S
C641   O687    1.289   .     A
C641   O689    1.290   .     A
C641   C654    1.436   .     S
C642   C667    1.409   .     A
C642   C644    1.417   .     A
C642   H676    1.079   .     S
C643   C662    1.406   .     A
C643   C668    1.417   .     A
C644   C663    1.406   .     A
C644   C295    1.522   1_556 S
C645   O693    1.284   .     A
C645   O691    1.278   .     A
C645   C647    1.403   .     S
C646   O694    1.284   .     A
C646   O692    1.278   .     A
C646   C648    1.404   .     S
C648   C531    1.333   1_655 S
C648   H561    1.088   1_655 S
C649   C660    1.403   .     A
C649   Cl669   1.762   .     S
C649   C651    1.384   .     A
C650   C653    1.384   .     A
C650   Cl670   1.762   .     S
C650   C661    1.403   .     A
C651   C654    1.400   .     A
C651   H678    1.084   .     S
C652   C655    1.437   .     S
C652   O688    1.288   .     A
C652   O690    1.290   .     A
C653   H679    1.084   .     S
C653   C655    1.400   .     A
C654   C656    1.396   .     A
C655   C657    1.396   .     A
C656   C658    1.381   .     A
C656   H680    1.084   .     S
C657   C659    1.381   .     A
C657   H681    1.083   .     S
C658   C660    1.399   .     A
C658   H682    1.084   .     S
C659   H683    1.084   .     S
C659   C661    1.399   .     A
C661   C486    1.442   1_565 S
C662   H684    1.079   .     S
C662   C664    1.403   .     A
C663   C665    1.402   .     A
C663   H672    1.079   .     S
C664   N685    1.371   .     A
C665   N686    1.371   .     A
C666   N685    1.362   .     A
C666   C668    1.408   .     A
C666   H673    1.082   .     S
C667   H674    1.082   .     S
C667   N686    1.362   .     A
C668   H675    1.079   .     S
H671   C531    1.088   1_655 S
N685   Zn696   2.014   .     S
N686   Zn695   2.014   .     S
O687   Zn695   1.987   .     S
O688   Zn696   1.987   .     S
O689   Zn696   1.993   .     S
O690   Zn695   1.993   .     S
O691   Zn695   1.965   .     S
O692   Zn696   1.965   .     S
O693   Zn696   1.982   .     S
O694   Zn695   1.982   .     S
