data_str_m3_o1_o2_pcu_sym.62
_audit_creation_date              2020-01-03
_audit_creation_method            'Materials Studio'
_symmetry_space_group_name_H-M    'P1'
_symmetry_Int_Tables_number       1
_symmetry_cell_setting            triclinic
loop_
_symmetry_equiv_pos_as_xyz
  x,y,z
_cell_length_a                    31.9062
_cell_length_b                    29.9686
_cell_length_c                    29.9921
_cell_angle_alpha                 89.9782
_cell_angle_beta                  92.4464
_cell_angle_gamma                 89.6464
loop_
_atom_site_label
_atom_site_type_symbol
_atom_site_fract_x
_atom_site_fract_y
_atom_site_fract_z
_atom_site_U_iso_or_equiv
_atom_site_adp_type
_atom_site_occupancy
C1     C     0.08697   0.16683   0.25031   0.00000  Uiso   1.00
C2     C     0.31056   0.18469   0.21270   0.00000  Uiso   1.00
C3     C     0.31260   0.14734   0.28620   0.00000  Uiso   1.00
C4     C     0.02079   0.18598   0.21423   0.00000  Uiso   1.00
C5     C     0.18969   0.20151   0.04843   0.00000  Uiso   1.00
C6     C     0.19520   0.13868   0.45386   0.00000  Uiso   1.00
C7     C     0.13953   0.19635   0.45121   0.00000  Uiso   1.00
C8     C     0.14557   0.13447   0.04495   0.00000  Uiso   1.00
C9     C     0.18848   0.20094   0.09445   0.00000  Uiso   1.00
C10    C     0.19402   0.13815   0.40773   0.00000  Uiso   1.00
C11    C     0.13990   0.19581   0.40511   0.00000  Uiso   1.00
C12    C     0.24639   0.16649   0.24995   0.00000  Uiso   1.00
C13    C     0.14529   0.13406   0.09143   0.00000  Uiso   1.00
C14    C     0.16681   0.16714   0.11595   0.00000  Uiso   1.00
C15    C     0.16681   0.16675   0.38361   0.00000  Uiso   1.00
C16    C     0.16788   0.16808   0.02388   0.00000  Uiso   1.00
C17    C     0.16761   0.16781   0.47573   0.00000  Uiso   1.00
C18    C     0.29061   0.16588   0.24922   0.00000  Uiso   1.00
C19    C     0.04279   0.16739   0.25118   0.00000  Uiso   1.00
C20    C     0.16650   0.16674   0.16404   0.00000  Uiso   1.00
C21    C     0.16679   0.16667   0.33580   0.00000  Uiso   1.00
C22    C     0.19239   0.02344   0.27928   0.00000  Uiso   1.00
C23    C     0.14097   0.30987   0.22069   0.00000  Uiso   1.00
C24    C     0.14089   0.02375   0.22077   0.00000  Uiso   1.00
C25    C     0.19233   0.30955   0.27936   0.00000  Uiso   1.00
C26    C     0.02286   0.14845   0.28767   0.00000  Uiso   1.00
F27    F     0.20940   0.23309   0.11816   0.00000  Uiso   1.00
F28    F     0.22073   0.11076   0.38645   0.00000  Uiso   1.00
F29    F     0.11297   0.22285   0.38117   0.00000  Uiso   1.00
F30    F     0.12309   0.10250   0.11258   0.00000  Uiso   1.00
H31    H     0.21869   0.07587   0.30444   0.00000  Uiso   1.00
H32    H     0.26021   0.18851   0.17326   0.00000  Uiso   1.00
H33    H     0.30961   0.11745   0.34427   0.00000  Uiso   1.00
H34    H     0.02373   0.21614   0.15629   0.00000  Uiso   1.00
H35    H     0.11486   0.25739   0.19518   0.00000  Uiso   1.00
H36    H     0.11463   0.07651   0.19534   0.00000  Uiso   1.00
H37    H     0.21840   0.25676   0.30517   0.00000  Uiso   1.00
H38    H     0.21308   0.23069   0.49656   0.00000  Uiso   1.00
H39    H     0.22445   0.11609   0.00832   0.00000  Uiso   1.00
H40    H     0.11192   0.22088   0.00319   0.00000  Uiso   1.00
H41    H     0.11054   0.08136   0.03865   0.00000  Uiso   1.00
H42    H     0.07372   0.14284   0.32652   0.00000  Uiso   1.00
N43    N     0.16667   0.28573   0.25000   0.00000  Uiso   1.00
N44    N     0.16667   0.04760   0.25000   0.00000  Uiso   1.00
O45    O     0.10559   0.20487   0.24999   0.00000  Uiso   1.00
O46    O     0.11399   0.28961   0.19006   0.00000  Uiso   1.00
O47    O     0.11361   0.04430   0.19041   0.00000  Uiso   1.00
O48    O     0.21927   0.28898   0.31009   0.00000  Uiso   1.00
O49    O     0.21240   0.23508   0.02918   0.00000  Uiso   1.00
O50    O     0.22374   0.11049   0.47583   0.00000  Uiso   1.00
O51    O     0.11140   0.22505   0.47050   0.00000  Uiso   1.00
O52    O     0.12442   0.10289   0.01911   0.00000  Uiso   1.00
O53    O     0.04464   0.13158   0.32500   0.00000  Uiso   1.00
O54    O     0.28877   0.20116   0.17527   0.00000  Uiso   1.00
O55    O     0.29024   0.12997   0.32077   0.00000  Uiso   1.00
O56    O     0.22774   0.12846   0.25001   0.00000  Uiso   1.00
O57    O     0.04312   0.20337   0.17963   0.00000  Uiso   1.00
O58    O     0.22774   0.20487   0.25001   0.00000  Uiso   1.00
O59    O     0.10559   0.12846   0.24999   0.00000  Uiso   1.00
O60    O     0.16666   0.20489   0.18453   0.00000  Uiso   1.00
O61    O     0.16667   0.12845   0.31547   0.00000  Uiso   1.00
O62    O     0.16667   0.20489   0.31547   0.00000  Uiso   1.00
O63    O     0.16666   0.12845   0.18453   0.00000  Uiso   1.00
O64    O     0.21950   0.04369   0.30975   0.00000  Uiso   1.00
Zn65   Zn    0.16667   0.21771   0.25000   0.00000  Uiso   1.00
Zn66   Zn    0.16667   0.11563   0.25000   0.00000  Uiso   1.00
C67    C     0.42030   0.16683   0.25031   0.00000  Uiso   1.00
C68    C     0.64390   0.18469   0.21270   0.00000  Uiso   1.00
C69    C     0.64594   0.14734   0.28620   0.00000  Uiso   1.00
C70    C     0.35413   0.18598   0.21423   0.00000  Uiso   1.00
C71    C     0.52303   0.20151   0.04843   0.00000  Uiso   1.00
C72    C     0.52853   0.13868   0.45386   0.00000  Uiso   1.00
C73    C     0.47287   0.19635   0.45121   0.00000  Uiso   1.00
C74    C     0.47891   0.13447   0.04495   0.00000  Uiso   1.00
C75    C     0.52182   0.20094   0.09445   0.00000  Uiso   1.00
C76    C     0.52736   0.13815   0.40773   0.00000  Uiso   1.00
C77    C     0.47323   0.19581   0.40511   0.00000  Uiso   1.00
C78    C     0.57973   0.16649   0.24995   0.00000  Uiso   1.00
C79    C     0.47863   0.13406   0.09143   0.00000  Uiso   1.00
C80    C     0.50015   0.16714   0.11595   0.00000  Uiso   1.00
C81    C     0.50014   0.16675   0.38361   0.00000  Uiso   1.00
C82    C     0.50121   0.16808   0.02388   0.00000  Uiso   1.00
C83    C     0.50095   0.16781   0.47573   0.00000  Uiso   1.00
C84    C     0.62395   0.16588   0.24922   0.00000  Uiso   1.00
C85    C     0.37612   0.16739   0.25118   0.00000  Uiso   1.00
C86    C     0.49983   0.16674   0.16404   0.00000  Uiso   1.00
C87    C     0.50012   0.16667   0.33580   0.00000  Uiso   1.00
C88    C     0.52572   0.02344   0.27928   0.00000  Uiso   1.00
C89    C     0.47430   0.30987   0.22069   0.00000  Uiso   1.00
C90    C     0.47422   0.02375   0.22077   0.00000  Uiso   1.00
C91    C     0.52566   0.30955   0.27936   0.00000  Uiso   1.00
C92    C     0.35620   0.14845   0.28767   0.00000  Uiso   1.00
F93    F     0.54273   0.23309   0.11816   0.00000  Uiso   1.00
F94    F     0.55407   0.11076   0.38645   0.00000  Uiso   1.00
F95    F     0.44630   0.22285   0.38117   0.00000  Uiso   1.00
F96    F     0.45642   0.10250   0.11258   0.00000  Uiso   1.00
H97    H     0.55203   0.07587   0.30444   0.00000  Uiso   1.00
H98    H     0.59354   0.18851   0.17326   0.00000  Uiso   1.00
H99    H     0.64294   0.11745   0.34427   0.00000  Uiso   1.00
H100   H     0.35706   0.21614   0.15629   0.00000  Uiso   1.00
H101   H     0.44819   0.25739   0.19518   0.00000  Uiso   1.00
H102   H     0.44796   0.07651   0.19534   0.00000  Uiso   1.00
H103   H     0.55174   0.25676   0.30517   0.00000  Uiso   1.00
H104   H     0.54642   0.23069   0.49656   0.00000  Uiso   1.00
H105   H     0.55778   0.11609   0.00832   0.00000  Uiso   1.00
H106   H     0.44526   0.22088   0.00319   0.00000  Uiso   1.00
H107   H     0.44388   0.08136   0.03865   0.00000  Uiso   1.00
H108   H     0.40705   0.14284   0.32652   0.00000  Uiso   1.00
N109   N     0.50000   0.28573   0.25000   0.00000  Uiso   1.00
N110   N     0.50000   0.04760   0.25000   0.00000  Uiso   1.00
O111   O     0.43892   0.20487   0.24999   0.00000  Uiso   1.00
O112   O     0.44733   0.28961   0.19006   0.00000  Uiso   1.00
O113   O     0.44694   0.04430   0.19041   0.00000  Uiso   1.00
O114   O     0.55261   0.28898   0.31009   0.00000  Uiso   1.00
O115   O     0.54573   0.23508   0.02918   0.00000  Uiso   1.00
O116   O     0.55708   0.11049   0.47583   0.00000  Uiso   1.00
O117   O     0.44473   0.22505   0.47050   0.00000  Uiso   1.00
O118   O     0.45775   0.10289   0.01911   0.00000  Uiso   1.00
O119   O     0.37797   0.13158   0.32500   0.00000  Uiso   1.00
O120   O     0.62210   0.20116   0.17527   0.00000  Uiso   1.00
O121   O     0.62358   0.12997   0.32077   0.00000  Uiso   1.00
O122   O     0.56108   0.12846   0.25001   0.00000  Uiso   1.00
O123   O     0.37645   0.20337   0.17963   0.00000  Uiso   1.00
O124   O     0.56108   0.20487   0.25001   0.00000  Uiso   1.00
O125   O     0.43892   0.12846   0.24999   0.00000  Uiso   1.00
O126   O     0.50000   0.20489   0.18453   0.00000  Uiso   1.00
O127   O     0.50000   0.12845   0.31547   0.00000  Uiso   1.00
O128   O     0.50000   0.20489   0.31547   0.00000  Uiso   1.00
O129   O     0.50000   0.12845   0.18453   0.00000  Uiso   1.00
O130   O     0.55283   0.04369   0.30975   0.00000  Uiso   1.00
Zn131  Zn    0.50000   0.21771   0.25000   0.00000  Uiso   1.00
Zn132  Zn    0.50000   0.11563   0.25000   0.00000  Uiso   1.00
C133   C     0.75364   0.16683   0.25031   0.00000  Uiso   1.00
C134   C     0.97723   0.18469   0.21270   0.00000  Uiso   1.00
C135   C     0.97927   0.14734   0.28620   0.00000  Uiso   1.00
C136   C     0.68746   0.18598   0.21423   0.00000  Uiso   1.00
C137   C     0.85636   0.20151   0.04843   0.00000  Uiso   1.00
C138   C     0.86187   0.13868   0.45386   0.00000  Uiso   1.00
C139   C     0.80620   0.19635   0.45121   0.00000  Uiso   1.00
C140   C     0.81224   0.13447   0.04495   0.00000  Uiso   1.00
C141   C     0.85515   0.20094   0.09445   0.00000  Uiso   1.00
C142   C     0.86069   0.13815   0.40773   0.00000  Uiso   1.00
C143   C     0.80657   0.19581   0.40511   0.00000  Uiso   1.00
C144   C     0.91306   0.16649   0.24995   0.00000  Uiso   1.00
C145   C     0.81196   0.13406   0.09143   0.00000  Uiso   1.00
C146   C     0.83348   0.16714   0.11595   0.00000  Uiso   1.00
C147   C     0.83348   0.16675   0.38361   0.00000  Uiso   1.00
C148   C     0.83455   0.16808   0.02388   0.00000  Uiso   1.00
C149   C     0.83428   0.16781   0.47573   0.00000  Uiso   1.00
C150   C     0.95728   0.16588   0.24922   0.00000  Uiso   1.00
C151   C     0.70946   0.16739   0.25118   0.00000  Uiso   1.00
C152   C     0.83317   0.16674   0.16404   0.00000  Uiso   1.00
C153   C     0.83346   0.16667   0.33580   0.00000  Uiso   1.00
C154   C     0.85906   0.02344   0.27928   0.00000  Uiso   1.00
C155   C     0.80764   0.30987   0.22069   0.00000  Uiso   1.00
C156   C     0.80756   0.02375   0.22077   0.00000  Uiso   1.00
C157   C     0.85900   0.30955   0.27936   0.00000  Uiso   1.00
C158   C     0.68953   0.14845   0.28767   0.00000  Uiso   1.00
F159   F     0.87606   0.23309   0.11816   0.00000  Uiso   1.00
F160   F     0.88740   0.11076   0.38645   0.00000  Uiso   1.00
F161   F     0.77963   0.22285   0.38117   0.00000  Uiso   1.00
F162   F     0.78976   0.10250   0.11258   0.00000  Uiso   1.00
H163   H     0.88536   0.07587   0.30444   0.00000  Uiso   1.00
H164   H     0.92687   0.18851   0.17326   0.00000  Uiso   1.00
H165   H     0.97627   0.11745   0.34427   0.00000  Uiso   1.00
H166   H     0.69040   0.21614   0.15629   0.00000  Uiso   1.00
H167   H     0.78152   0.25739   0.19518   0.00000  Uiso   1.00
H168   H     0.78130   0.07651   0.19534   0.00000  Uiso   1.00
H169   H     0.88507   0.25676   0.30517   0.00000  Uiso   1.00
H170   H     0.87975   0.23069   0.49656   0.00000  Uiso   1.00
H171   H     0.89111   0.11609   0.00832   0.00000  Uiso   1.00
H172   H     0.77859   0.22088   0.00319   0.00000  Uiso   1.00
H173   H     0.77721   0.08136   0.03865   0.00000  Uiso   1.00
H174   H     0.74039   0.14284   0.32652   0.00000  Uiso   1.00
N175   N     0.83333   0.28573   0.25000   0.00000  Uiso   1.00
N176   N     0.83333   0.04760   0.25000   0.00000  Uiso   1.00
O177   O     0.77226   0.20487   0.24999   0.00000  Uiso   1.00
O178   O     0.78066   0.28961   0.19006   0.00000  Uiso   1.00
O179   O     0.78027   0.04430   0.19041   0.00000  Uiso   1.00
O180   O     0.88594   0.28898   0.31009   0.00000  Uiso   1.00
O181   O     0.87907   0.23508   0.02918   0.00000  Uiso   1.00
O182   O     0.89041   0.11049   0.47583   0.00000  Uiso   1.00
O183   O     0.77807   0.22505   0.47050   0.00000  Uiso   1.00
O184   O     0.79108   0.10289   0.01911   0.00000  Uiso   1.00
O185   O     0.71130   0.13158   0.32500   0.00000  Uiso   1.00
O186   O     0.95543   0.20116   0.17527   0.00000  Uiso   1.00
O187   O     0.95691   0.12997   0.32077   0.00000  Uiso   1.00
O188   O     0.89441   0.12846   0.25001   0.00000  Uiso   1.00
O189   O     0.70978   0.20337   0.17963   0.00000  Uiso   1.00
O190   O     0.89441   0.20487   0.25001   0.00000  Uiso   1.00
O191   O     0.77226   0.12846   0.24999   0.00000  Uiso   1.00
O192   O     0.83333   0.20489   0.18453   0.00000  Uiso   1.00
O193   O     0.83334   0.12845   0.31547   0.00000  Uiso   1.00
O194   O     0.83334   0.20489   0.31547   0.00000  Uiso   1.00
O195   O     0.83333   0.12845   0.18453   0.00000  Uiso   1.00
O196   O     0.88616   0.04369   0.30975   0.00000  Uiso   1.00
Zn197  Zn    0.83333   0.21771   0.25000   0.00000  Uiso   1.00
Zn198  Zn    0.83333   0.11563   0.25000   0.00000  Uiso   1.00
C199   C     0.08697   0.50016   0.25031   0.00000  Uiso   1.00
C200   C     0.31056   0.51802   0.21270   0.00000  Uiso   1.00
C201   C     0.31260   0.48067   0.28620   0.00000  Uiso   1.00
C202   C     0.02079   0.51931   0.21423   0.00000  Uiso   1.00
C203   C     0.18969   0.53484   0.04843   0.00000  Uiso   1.00
C204   C     0.19520   0.47201   0.45386   0.00000  Uiso   1.00
C205   C     0.13953   0.52968   0.45121   0.00000  Uiso   1.00
C206   C     0.14557   0.46780   0.04495   0.00000  Uiso   1.00
C207   C     0.18848   0.53427   0.09445   0.00000  Uiso   1.00
C208   C     0.19402   0.47148   0.40773   0.00000  Uiso   1.00
C209   C     0.13990   0.52914   0.40511   0.00000  Uiso   1.00
C210   C     0.24639   0.49983   0.24995   0.00000  Uiso   1.00
C211   C     0.14529   0.46740   0.09143   0.00000  Uiso   1.00
C212   C     0.16681   0.50048   0.11595   0.00000  Uiso   1.00
C213   C     0.16681   0.50009   0.38361   0.00000  Uiso   1.00
C214   C     0.16788   0.50141   0.02388   0.00000  Uiso   1.00
C215   C     0.16761   0.50114   0.47573   0.00000  Uiso   1.00
C216   C     0.29061   0.49922   0.24922   0.00000  Uiso   1.00
C217   C     0.04279   0.50072   0.25118   0.00000  Uiso   1.00
C218   C     0.16650   0.50007   0.16404   0.00000  Uiso   1.00
C219   C     0.16679   0.50000   0.33580   0.00000  Uiso   1.00
C220   C     0.19239   0.35677   0.27928   0.00000  Uiso   1.00
C221   C     0.14097   0.64321   0.22069   0.00000  Uiso   1.00
C222   C     0.14089   0.35709   0.22077   0.00000  Uiso   1.00
C223   C     0.19233   0.64289   0.27936   0.00000  Uiso   1.00
C224   C     0.02286   0.48178   0.28767   0.00000  Uiso   1.00
F225   F     0.20940   0.56643   0.11816   0.00000  Uiso   1.00
F226   F     0.22073   0.44410   0.38645   0.00000  Uiso   1.00
F227   F     0.11297   0.55618   0.38117   0.00000  Uiso   1.00
F228   F     0.12309   0.43583   0.11258   0.00000  Uiso   1.00
H229   H     0.21869   0.40920   0.30444   0.00000  Uiso   1.00
H230   H     0.26021   0.52185   0.17326   0.00000  Uiso   1.00
H231   H     0.30961   0.45079   0.34427   0.00000  Uiso   1.00
H232   H     0.02373   0.54947   0.15629   0.00000  Uiso   1.00
H233   H     0.11486   0.59072   0.19518   0.00000  Uiso   1.00
H234   H     0.11463   0.40984   0.19534   0.00000  Uiso   1.00
H235   H     0.21840   0.59009   0.30517   0.00000  Uiso   1.00
H236   H     0.21308   0.56403   0.49656   0.00000  Uiso   1.00
H237   H     0.22445   0.44942   0.00832   0.00000  Uiso   1.00
H238   H     0.11192   0.55421   0.00319   0.00000  Uiso   1.00
H239   H     0.11054   0.41470   0.03865   0.00000  Uiso   1.00
H240   H     0.07372   0.47617   0.32652   0.00000  Uiso   1.00
N241   N     0.16667   0.61907   0.25000   0.00000  Uiso   1.00
N242   N     0.16667   0.38093   0.25000   0.00000  Uiso   1.00
O243   O     0.10559   0.53821   0.24999   0.00000  Uiso   1.00
O244   O     0.11399   0.62294   0.19006   0.00000  Uiso   1.00
O245   O     0.11361   0.37763   0.19041   0.00000  Uiso   1.00
O246   O     0.21927   0.62232   0.31009   0.00000  Uiso   1.00
O247   O     0.21240   0.56841   0.02918   0.00000  Uiso   1.00
O248   O     0.22374   0.44383   0.47583   0.00000  Uiso   1.00
O249   O     0.11140   0.55839   0.47050   0.00000  Uiso   1.00
O250   O     0.12442   0.43622   0.01911   0.00000  Uiso   1.00
O251   O     0.04464   0.46491   0.32500   0.00000  Uiso   1.00
O252   O     0.28877   0.53449   0.17527   0.00000  Uiso   1.00
O253   O     0.29024   0.46330   0.32077   0.00000  Uiso   1.00
O254   O     0.22774   0.46179   0.25001   0.00000  Uiso   1.00
O255   O     0.04312   0.53671   0.17963   0.00000  Uiso   1.00
O256   O     0.22774   0.53821   0.25001   0.00000  Uiso   1.00
O257   O     0.10559   0.46179   0.24999   0.00000  Uiso   1.00
O258   O     0.16666   0.53822   0.18453   0.00000  Uiso   1.00
O259   O     0.16667   0.46178   0.31547   0.00000  Uiso   1.00
O260   O     0.16667   0.53822   0.31547   0.00000  Uiso   1.00
O261   O     0.16666   0.46178   0.18453   0.00000  Uiso   1.00
O262   O     0.21950   0.37703   0.30975   0.00000  Uiso   1.00
Zn263  Zn    0.16667   0.55104   0.25000   0.00000  Uiso   1.00
Zn264  Zn    0.16667   0.44896   0.25000   0.00000  Uiso   1.00
C265   C     0.42030   0.50016   0.25031   0.00000  Uiso   1.00
C266   C     0.64390   0.51802   0.21270   0.00000  Uiso   1.00
C267   C     0.64594   0.48067   0.28620   0.00000  Uiso   1.00
C268   C     0.35413   0.51931   0.21423   0.00000  Uiso   1.00
C269   C     0.52303   0.53484   0.04843   0.00000  Uiso   1.00
C270   C     0.52853   0.47201   0.45386   0.00000  Uiso   1.00
C271   C     0.47287   0.52968   0.45121   0.00000  Uiso   1.00
C272   C     0.47891   0.46780   0.04495   0.00000  Uiso   1.00
C273   C     0.52182   0.53427   0.09445   0.00000  Uiso   1.00
C274   C     0.52736   0.47148   0.40773   0.00000  Uiso   1.00
C275   C     0.47323   0.52914   0.40511   0.00000  Uiso   1.00
C276   C     0.57973   0.49983   0.24995   0.00000  Uiso   1.00
C277   C     0.47863   0.46740   0.09143   0.00000  Uiso   1.00
C278   C     0.50015   0.50048   0.11595   0.00000  Uiso   1.00
C279   C     0.50014   0.50009   0.38361   0.00000  Uiso   1.00
C280   C     0.50121   0.50141   0.02388   0.00000  Uiso   1.00
C281   C     0.50095   0.50114   0.47573   0.00000  Uiso   1.00
C282   C     0.62395   0.49922   0.24922   0.00000  Uiso   1.00
C283   C     0.37612   0.50072   0.25118   0.00000  Uiso   1.00
C284   C     0.49983   0.50007   0.16404   0.00000  Uiso   1.00
C285   C     0.50012   0.50000   0.33580   0.00000  Uiso   1.00
C286   C     0.52572   0.35677   0.27928   0.00000  Uiso   1.00
C287   C     0.47430   0.64321   0.22069   0.00000  Uiso   1.00
C288   C     0.47422   0.35709   0.22077   0.00000  Uiso   1.00
C289   C     0.52566   0.64289   0.27936   0.00000  Uiso   1.00
C290   C     0.35620   0.48178   0.28767   0.00000  Uiso   1.00
F291   F     0.54273   0.56643   0.11816   0.00000  Uiso   1.00
F292   F     0.55407   0.44410   0.38645   0.00000  Uiso   1.00
F293   F     0.44630   0.55618   0.38117   0.00000  Uiso   1.00
F294   F     0.45642   0.43583   0.11258   0.00000  Uiso   1.00
H295   H     0.55203   0.40920   0.30444   0.00000  Uiso   1.00
H296   H     0.59354   0.52185   0.17326   0.00000  Uiso   1.00
H297   H     0.64294   0.45079   0.34427   0.00000  Uiso   1.00
H298   H     0.35706   0.54947   0.15629   0.00000  Uiso   1.00
H299   H     0.44819   0.59072   0.19518   0.00000  Uiso   1.00
H300   H     0.44796   0.40984   0.19534   0.00000  Uiso   1.00
H301   H     0.55174   0.59009   0.30517   0.00000  Uiso   1.00
H302   H     0.54642   0.56403   0.49656   0.00000  Uiso   1.00
H303   H     0.55778   0.44942   0.00832   0.00000  Uiso   1.00
H304   H     0.44526   0.55421   0.00319   0.00000  Uiso   1.00
H305   H     0.44388   0.41470   0.03865   0.00000  Uiso   1.00
H306   H     0.40705   0.47617   0.32652   0.00000  Uiso   1.00
N307   N     0.50000   0.61907   0.25000   0.00000  Uiso   1.00
N308   N     0.50000   0.38093   0.25000   0.00000  Uiso   1.00
O309   O     0.43892   0.53821   0.24999   0.00000  Uiso   1.00
O310   O     0.44733   0.62294   0.19006   0.00000  Uiso   1.00
O311   O     0.44694   0.37763   0.19041   0.00000  Uiso   1.00
O312   O     0.55261   0.62232   0.31009   0.00000  Uiso   1.00
O313   O     0.54573   0.56841   0.02918   0.00000  Uiso   1.00
O314   O     0.55708   0.44383   0.47583   0.00000  Uiso   1.00
O315   O     0.44473   0.55839   0.47050   0.00000  Uiso   1.00
O316   O     0.45775   0.43622   0.01911   0.00000  Uiso   1.00
O317   O     0.37797   0.46491   0.32500   0.00000  Uiso   1.00
O318   O     0.62210   0.53449   0.17527   0.00000  Uiso   1.00
O319   O     0.62358   0.46330   0.32077   0.00000  Uiso   1.00
O320   O     0.56108   0.46179   0.25001   0.00000  Uiso   1.00
O321   O     0.37645   0.53671   0.17963   0.00000  Uiso   1.00
O322   O     0.56108   0.53821   0.25001   0.00000  Uiso   1.00
O323   O     0.43892   0.46179   0.24999   0.00000  Uiso   1.00
O324   O     0.50000   0.53822   0.18453   0.00000  Uiso   1.00
O325   O     0.50000   0.46178   0.31547   0.00000  Uiso   1.00
O326   O     0.50000   0.53822   0.31547   0.00000  Uiso   1.00
O327   O     0.50000   0.46178   0.18453   0.00000  Uiso   1.00
O328   O     0.55283   0.37703   0.30975   0.00000  Uiso   1.00
Zn329  Zn    0.50000   0.55104   0.25000   0.00000  Uiso   1.00
Zn330  Zn    0.50000   0.44896   0.25000   0.00000  Uiso   1.00
C331   C     0.75364   0.50016   0.25031   0.00000  Uiso   1.00
C332   C     0.97723   0.51802   0.21270   0.00000  Uiso   1.00
C333   C     0.97927   0.48067   0.28620   0.00000  Uiso   1.00
C334   C     0.68746   0.51931   0.21423   0.00000  Uiso   1.00
C335   C     0.85636   0.53484   0.04843   0.00000  Uiso   1.00
C336   C     0.86187   0.47201   0.45386   0.00000  Uiso   1.00
C337   C     0.80620   0.52968   0.45121   0.00000  Uiso   1.00
C338   C     0.81224   0.46780   0.04495   0.00000  Uiso   1.00
C339   C     0.85515   0.53427   0.09445   0.00000  Uiso   1.00
C340   C     0.86069   0.47148   0.40773   0.00000  Uiso   1.00
C341   C     0.80657   0.52914   0.40511   0.00000  Uiso   1.00
C342   C     0.91306   0.49983   0.24995   0.00000  Uiso   1.00
C343   C     0.81196   0.46740   0.09143   0.00000  Uiso   1.00
C344   C     0.83348   0.50048   0.11595   0.00000  Uiso   1.00
C345   C     0.83348   0.50009   0.38361   0.00000  Uiso   1.00
C346   C     0.83455   0.50141   0.02388   0.00000  Uiso   1.00
C347   C     0.83428   0.50114   0.47573   0.00000  Uiso   1.00
C348   C     0.95728   0.49922   0.24922   0.00000  Uiso   1.00
C349   C     0.70946   0.50072   0.25118   0.00000  Uiso   1.00
C350   C     0.83317   0.50007   0.16404   0.00000  Uiso   1.00
C351   C     0.83346   0.50000   0.33580   0.00000  Uiso   1.00
C352   C     0.85906   0.35677   0.27928   0.00000  Uiso   1.00
C353   C     0.80764   0.64321   0.22069   0.00000  Uiso   1.00
C354   C     0.80756   0.35709   0.22077   0.00000  Uiso   1.00
C355   C     0.85900   0.64289   0.27936   0.00000  Uiso   1.00
C356   C     0.68953   0.48178   0.28767   0.00000  Uiso   1.00
F357   F     0.87606   0.56643   0.11816   0.00000  Uiso   1.00
F358   F     0.88740   0.44410   0.38645   0.00000  Uiso   1.00
F359   F     0.77963   0.55618   0.38117   0.00000  Uiso   1.00
F360   F     0.78976   0.43583   0.11258   0.00000  Uiso   1.00
H361   H     0.88536   0.40920   0.30444   0.00000  Uiso   1.00
H362   H     0.92687   0.52185   0.17326   0.00000  Uiso   1.00
H363   H     0.97627   0.45079   0.34427   0.00000  Uiso   1.00
H364   H     0.69040   0.54947   0.15629   0.00000  Uiso   1.00
H365   H     0.78152   0.59072   0.19518   0.00000  Uiso   1.00
H366   H     0.78130   0.40984   0.19534   0.00000  Uiso   1.00
H367   H     0.88507   0.59009   0.30517   0.00000  Uiso   1.00
H368   H     0.87975   0.56403   0.49656   0.00000  Uiso   1.00
H369   H     0.89111   0.44942   0.00832   0.00000  Uiso   1.00
H370   H     0.77859   0.55421   0.00319   0.00000  Uiso   1.00
H371   H     0.77721   0.41470   0.03865   0.00000  Uiso   1.00
H372   H     0.74039   0.47617   0.32652   0.00000  Uiso   1.00
N373   N     0.83333   0.61907   0.25000   0.00000  Uiso   1.00
N374   N     0.83333   0.38093   0.25000   0.00000  Uiso   1.00
O375   O     0.77226   0.53821   0.24999   0.00000  Uiso   1.00
O376   O     0.78066   0.62294   0.19006   0.00000  Uiso   1.00
O377   O     0.78027   0.37763   0.19041   0.00000  Uiso   1.00
O378   O     0.88594   0.62232   0.31009   0.00000  Uiso   1.00
O379   O     0.87907   0.56841   0.02918   0.00000  Uiso   1.00
O380   O     0.89041   0.44383   0.47583   0.00000  Uiso   1.00
O381   O     0.77807   0.55839   0.47050   0.00000  Uiso   1.00
O382   O     0.79108   0.43622   0.01911   0.00000  Uiso   1.00
O383   O     0.71130   0.46491   0.32500   0.00000  Uiso   1.00
O384   O     0.95543   0.53449   0.17527   0.00000  Uiso   1.00
O385   O     0.95691   0.46330   0.32077   0.00000  Uiso   1.00
O386   O     0.89441   0.46179   0.25001   0.00000  Uiso   1.00
O387   O     0.70978   0.53671   0.17963   0.00000  Uiso   1.00
O388   O     0.89441   0.53821   0.25001   0.00000  Uiso   1.00
O389   O     0.77226   0.46179   0.24999   0.00000  Uiso   1.00
O390   O     0.83333   0.53822   0.18453   0.00000  Uiso   1.00
O391   O     0.83334   0.46178   0.31547   0.00000  Uiso   1.00
O392   O     0.83334   0.53822   0.31547   0.00000  Uiso   1.00
O393   O     0.83333   0.46178   0.18453   0.00000  Uiso   1.00
O394   O     0.88616   0.37703   0.30975   0.00000  Uiso   1.00
Zn395  Zn    0.83333   0.55104   0.25000   0.00000  Uiso   1.00
Zn396  Zn    0.83333   0.44896   0.25000   0.00000  Uiso   1.00
C397   C     0.08697   0.83350   0.25031   0.00000  Uiso   1.00
C398   C     0.31056   0.85135   0.21270   0.00000  Uiso   1.00
C399   C     0.31260   0.81400   0.28620   0.00000  Uiso   1.00
C400   C     0.02079   0.85264   0.21423   0.00000  Uiso   1.00
C401   C     0.18969   0.86817   0.04843   0.00000  Uiso   1.00
C402   C     0.19520   0.80535   0.45386   0.00000  Uiso   1.00
C403   C     0.13953   0.86302   0.45121   0.00000  Uiso   1.00
C404   C     0.14557   0.80113   0.04495   0.00000  Uiso   1.00
C405   C     0.18848   0.86760   0.09445   0.00000  Uiso   1.00
C406   C     0.19402   0.80482   0.40773   0.00000  Uiso   1.00
C407   C     0.13990   0.86248   0.40511   0.00000  Uiso   1.00
C408   C     0.24639   0.83316   0.24995   0.00000  Uiso   1.00
C409   C     0.14529   0.80073   0.09143   0.00000  Uiso   1.00
C410   C     0.16681   0.83381   0.11595   0.00000  Uiso   1.00
C411   C     0.16681   0.83342   0.38361   0.00000  Uiso   1.00
C412   C     0.16788   0.83474   0.02388   0.00000  Uiso   1.00
C413   C     0.16761   0.83448   0.47573   0.00000  Uiso   1.00
C414   C     0.29061   0.83255   0.24922   0.00000  Uiso   1.00
C415   C     0.04279   0.83406   0.25118   0.00000  Uiso   1.00
C416   C     0.16650   0.83340   0.16404   0.00000  Uiso   1.00
C417   C     0.16679   0.83333   0.33580   0.00000  Uiso   1.00
C418   C     0.19239   0.69010   0.27928   0.00000  Uiso   1.00
C419   C     0.14097   0.97654   0.22069   0.00000  Uiso   1.00
C420   C     0.14089   0.69042   0.22077   0.00000  Uiso   1.00
C421   C     0.19233   0.97622   0.27936   0.00000  Uiso   1.00
C422   C     0.02286   0.81511   0.28767   0.00000  Uiso   1.00
F423   F     0.20940   0.89976   0.11816   0.00000  Uiso   1.00
F424   F     0.22073   0.77743   0.38645   0.00000  Uiso   1.00
F425   F     0.11297   0.88951   0.38117   0.00000  Uiso   1.00
F426   F     0.12309   0.76916   0.11258   0.00000  Uiso   1.00
H427   H     0.21869   0.74254   0.30444   0.00000  Uiso   1.00
H428   H     0.26021   0.85518   0.17326   0.00000  Uiso   1.00
H429   H     0.30961   0.78412   0.34427   0.00000  Uiso   1.00
H430   H     0.02373   0.88281   0.15629   0.00000  Uiso   1.00
H431   H     0.11486   0.92406   0.19518   0.00000  Uiso   1.00
H432   H     0.11463   0.74317   0.19534   0.00000  Uiso   1.00
H433   H     0.21840   0.92342   0.30517   0.00000  Uiso   1.00
H434   H     0.21308   0.89736   0.49656   0.00000  Uiso   1.00
H435   H     0.22445   0.78275   0.00832   0.00000  Uiso   1.00
H436   H     0.11192   0.88755   0.00319   0.00000  Uiso   1.00
H437   H     0.11054   0.74803   0.03865   0.00000  Uiso   1.00
H438   H     0.07372   0.80951   0.32652   0.00000  Uiso   1.00
N439   N     0.16667   0.95240   0.25000   0.00000  Uiso   1.00
N440   N     0.16667   0.71427   0.25000   0.00000  Uiso   1.00
O441   O     0.10559   0.87154   0.24999   0.00000  Uiso   1.00
O442   O     0.11399   0.95627   0.19006   0.00000  Uiso   1.00
O443   O     0.11361   0.71096   0.19041   0.00000  Uiso   1.00
O444   O     0.21927   0.95565   0.31009   0.00000  Uiso   1.00
O445   O     0.21240   0.90174   0.02918   0.00000  Uiso   1.00
O446   O     0.22374   0.77716   0.47583   0.00000  Uiso   1.00
O447   O     0.11140   0.89172   0.47050   0.00000  Uiso   1.00
O448   O     0.12442   0.76956   0.01911   0.00000  Uiso   1.00
O449   O     0.04464   0.79825   0.32500   0.00000  Uiso   1.00
O450   O     0.28877   0.86782   0.17527   0.00000  Uiso   1.00
O451   O     0.29024   0.79663   0.32077   0.00000  Uiso   1.00
O452   O     0.22774   0.79513   0.25001   0.00000  Uiso   1.00
O453   O     0.04312   0.87004   0.17963   0.00000  Uiso   1.00
O454   O     0.22774   0.87154   0.25001   0.00000  Uiso   1.00
O455   O     0.10559   0.79513   0.24999   0.00000  Uiso   1.00
O456   O     0.16666   0.87155   0.18453   0.00000  Uiso   1.00
O457   O     0.16667   0.79511   0.31547   0.00000  Uiso   1.00
O458   O     0.16667   0.87155   0.31547   0.00000  Uiso   1.00
O459   O     0.16666   0.79511   0.18453   0.00000  Uiso   1.00
O460   O     0.21950   0.71036   0.30975   0.00000  Uiso   1.00
Zn461  Zn    0.16667   0.88437   0.25000   0.00000  Uiso   1.00
Zn462  Zn    0.16667   0.78229   0.25000   0.00000  Uiso   1.00
C463   C     0.42030   0.83350   0.25031   0.00000  Uiso   1.00
C464   C     0.64390   0.85135   0.21270   0.00000  Uiso   1.00
C465   C     0.64594   0.81400   0.28620   0.00000  Uiso   1.00
C466   C     0.35413   0.85264   0.21423   0.00000  Uiso   1.00
C467   C     0.52303   0.86817   0.04843   0.00000  Uiso   1.00
C468   C     0.52853   0.80535   0.45386   0.00000  Uiso   1.00
C469   C     0.47287   0.86302   0.45121   0.00000  Uiso   1.00
C470   C     0.47891   0.80113   0.04495   0.00000  Uiso   1.00
C471   C     0.52182   0.86760   0.09445   0.00000  Uiso   1.00
C472   C     0.52736   0.80482   0.40773   0.00000  Uiso   1.00
C473   C     0.47323   0.86248   0.40511   0.00000  Uiso   1.00
C474   C     0.57973   0.83316   0.24995   0.00000  Uiso   1.00
C475   C     0.47863   0.80073   0.09143   0.00000  Uiso   1.00
C476   C     0.50015   0.83381   0.11595   0.00000  Uiso   1.00
C477   C     0.50014   0.83342   0.38361   0.00000  Uiso   1.00
C478   C     0.50121   0.83474   0.02388   0.00000  Uiso   1.00
C479   C     0.50095   0.83448   0.47573   0.00000  Uiso   1.00
C480   C     0.62395   0.83255   0.24922   0.00000  Uiso   1.00
C481   C     0.37612   0.83406   0.25118   0.00000  Uiso   1.00
C482   C     0.49983   0.83340   0.16404   0.00000  Uiso   1.00
C483   C     0.50012   0.83333   0.33580   0.00000  Uiso   1.00
C484   C     0.52572   0.69010   0.27928   0.00000  Uiso   1.00
C485   C     0.47430   0.97654   0.22069   0.00000  Uiso   1.00
C486   C     0.47422   0.69042   0.22077   0.00000  Uiso   1.00
C487   C     0.52566   0.97622   0.27936   0.00000  Uiso   1.00
C488   C     0.35620   0.81511   0.28767   0.00000  Uiso   1.00
F489   F     0.54273   0.89976   0.11816   0.00000  Uiso   1.00
F490   F     0.55407   0.77743   0.38645   0.00000  Uiso   1.00
F491   F     0.44630   0.88951   0.38117   0.00000  Uiso   1.00
F492   F     0.45642   0.76916   0.11258   0.00000  Uiso   1.00
H493   H     0.55203   0.74254   0.30444   0.00000  Uiso   1.00
H494   H     0.59354   0.85518   0.17326   0.00000  Uiso   1.00
H495   H     0.64294   0.78412   0.34427   0.00000  Uiso   1.00
H496   H     0.35706   0.88281   0.15629   0.00000  Uiso   1.00
H497   H     0.44819   0.92406   0.19518   0.00000  Uiso   1.00
H498   H     0.44796   0.74317   0.19534   0.00000  Uiso   1.00
H499   H     0.55174   0.92342   0.30517   0.00000  Uiso   1.00
H500   H     0.54642   0.89736   0.49656   0.00000  Uiso   1.00
H501   H     0.55778   0.78275   0.00832   0.00000  Uiso   1.00
H502   H     0.44526   0.88755   0.00319   0.00000  Uiso   1.00
H503   H     0.44388   0.74803   0.03865   0.00000  Uiso   1.00
H504   H     0.40705   0.80951   0.32652   0.00000  Uiso   1.00
N505   N     0.50000   0.95240   0.25000   0.00000  Uiso   1.00
N506   N     0.50000   0.71427   0.25000   0.00000  Uiso   1.00
O507   O     0.43892   0.87154   0.24999   0.00000  Uiso   1.00
O508   O     0.44733   0.95627   0.19006   0.00000  Uiso   1.00
O509   O     0.44694   0.71096   0.19041   0.00000  Uiso   1.00
O510   O     0.55261   0.95565   0.31009   0.00000  Uiso   1.00
O511   O     0.54573   0.90174   0.02918   0.00000  Uiso   1.00
O512   O     0.55708   0.77716   0.47583   0.00000  Uiso   1.00
O513   O     0.44473   0.89172   0.47050   0.00000  Uiso   1.00
O514   O     0.45775   0.76956   0.01911   0.00000  Uiso   1.00
O515   O     0.37797   0.79825   0.32500   0.00000  Uiso   1.00
O516   O     0.62210   0.86782   0.17527   0.00000  Uiso   1.00
O517   O     0.62358   0.79663   0.32077   0.00000  Uiso   1.00
O518   O     0.56108   0.79513   0.25001   0.00000  Uiso   1.00
O519   O     0.37645   0.87004   0.17963   0.00000  Uiso   1.00
O520   O     0.56108   0.87154   0.25001   0.00000  Uiso   1.00
O521   O     0.43892   0.79513   0.24999   0.00000  Uiso   1.00
O522   O     0.50000   0.87155   0.18453   0.00000  Uiso   1.00
O523   O     0.50000   0.79511   0.31547   0.00000  Uiso   1.00
O524   O     0.50000   0.87155   0.31547   0.00000  Uiso   1.00
O525   O     0.50000   0.79511   0.18453   0.00000  Uiso   1.00
O526   O     0.55283   0.71036   0.30975   0.00000  Uiso   1.00
Zn527  Zn    0.50000   0.88437   0.25000   0.00000  Uiso   1.00
Zn528  Zn    0.50000   0.78229   0.25000   0.00000  Uiso   1.00
C529   C     0.75364   0.83350   0.25031   0.00000  Uiso   1.00
C530   C     0.97723   0.85135   0.21270   0.00000  Uiso   1.00
C531   C     0.97927   0.81400   0.28620   0.00000  Uiso   1.00
C532   C     0.68746   0.85264   0.21423   0.00000  Uiso   1.00
C533   C     0.85636   0.86817   0.04843   0.00000  Uiso   1.00
C534   C     0.86187   0.80535   0.45386   0.00000  Uiso   1.00
C535   C     0.80620   0.86302   0.45121   0.00000  Uiso   1.00
C536   C     0.81224   0.80113   0.04495   0.00000  Uiso   1.00
C537   C     0.85515   0.86760   0.09445   0.00000  Uiso   1.00
C538   C     0.86069   0.80482   0.40773   0.00000  Uiso   1.00
C539   C     0.80657   0.86248   0.40511   0.00000  Uiso   1.00
C540   C     0.91306   0.83316   0.24995   0.00000  Uiso   1.00
C541   C     0.81196   0.80073   0.09143   0.00000  Uiso   1.00
C542   C     0.83348   0.83381   0.11595   0.00000  Uiso   1.00
C543   C     0.83348   0.83342   0.38361   0.00000  Uiso   1.00
C544   C     0.83455   0.83474   0.02388   0.00000  Uiso   1.00
C545   C     0.83428   0.83448   0.47573   0.00000  Uiso   1.00
C546   C     0.95728   0.83255   0.24922   0.00000  Uiso   1.00
C547   C     0.70946   0.83406   0.25118   0.00000  Uiso   1.00
C548   C     0.83317   0.83340   0.16404   0.00000  Uiso   1.00
C549   C     0.83346   0.83333   0.33580   0.00000  Uiso   1.00
C550   C     0.85906   0.69010   0.27928   0.00000  Uiso   1.00
C551   C     0.80764   0.97654   0.22069   0.00000  Uiso   1.00
C552   C     0.80756   0.69042   0.22077   0.00000  Uiso   1.00
C553   C     0.85900   0.97622   0.27936   0.00000  Uiso   1.00
C554   C     0.68953   0.81511   0.28767   0.00000  Uiso   1.00
F555   F     0.87606   0.89976   0.11816   0.00000  Uiso   1.00
F556   F     0.88740   0.77743   0.38645   0.00000  Uiso   1.00
F557   F     0.77963   0.88951   0.38117   0.00000  Uiso   1.00
F558   F     0.78976   0.76916   0.11258   0.00000  Uiso   1.00
H559   H     0.88536   0.74254   0.30444   0.00000  Uiso   1.00
H560   H     0.92687   0.85518   0.17326   0.00000  Uiso   1.00
H561   H     0.97627   0.78412   0.34427   0.00000  Uiso   1.00
H562   H     0.69040   0.88281   0.15629   0.00000  Uiso   1.00
H563   H     0.78152   0.92406   0.19518   0.00000  Uiso   1.00
H564   H     0.78130   0.74317   0.19534   0.00000  Uiso   1.00
H565   H     0.88507   0.92342   0.30517   0.00000  Uiso   1.00
H566   H     0.87975   0.89736   0.49656   0.00000  Uiso   1.00
H567   H     0.89111   0.78275   0.00832   0.00000  Uiso   1.00
H568   H     0.77859   0.88755   0.00319   0.00000  Uiso   1.00
H569   H     0.77721   0.74803   0.03865   0.00000  Uiso   1.00
H570   H     0.74039   0.80951   0.32652   0.00000  Uiso   1.00
N571   N     0.83333   0.95240   0.25000   0.00000  Uiso   1.00
N572   N     0.83333   0.71427   0.25000   0.00000  Uiso   1.00
O573   O     0.77226   0.87154   0.24999   0.00000  Uiso   1.00
O574   O     0.78066   0.95627   0.19006   0.00000  Uiso   1.00
O575   O     0.78027   0.71096   0.19041   0.00000  Uiso   1.00
O576   O     0.88594   0.95565   0.31009   0.00000  Uiso   1.00
O577   O     0.87907   0.90174   0.02918   0.00000  Uiso   1.00
O578   O     0.89041   0.77716   0.47583   0.00000  Uiso   1.00
O579   O     0.77807   0.89172   0.47050   0.00000  Uiso   1.00
O580   O     0.79108   0.76956   0.01911   0.00000  Uiso   1.00
O581   O     0.71130   0.79825   0.32500   0.00000  Uiso   1.00
O582   O     0.95543   0.86782   0.17527   0.00000  Uiso   1.00
O583   O     0.95691   0.79663   0.32077   0.00000  Uiso   1.00
O584   O     0.89441   0.79513   0.25001   0.00000  Uiso   1.00
O585   O     0.70978   0.87004   0.17963   0.00000  Uiso   1.00
O586   O     0.89441   0.87154   0.25001   0.00000  Uiso   1.00
O587   O     0.77226   0.79513   0.24999   0.00000  Uiso   1.00
O588   O     0.83333   0.87155   0.18453   0.00000  Uiso   1.00
O589   O     0.83334   0.79511   0.31547   0.00000  Uiso   1.00
O590   O     0.83334   0.87155   0.31547   0.00000  Uiso   1.00
O591   O     0.83333   0.79511   0.18453   0.00000  Uiso   1.00
O592   O     0.88616   0.71036   0.30975   0.00000  Uiso   1.00
Zn593  Zn    0.83333   0.88437   0.25000   0.00000  Uiso   1.00
Zn594  Zn    0.83333   0.78229   0.25000   0.00000  Uiso   1.00
C595   C     0.08697   0.16683   0.75031   0.00000  Uiso   1.00
C596   C     0.31056   0.18469   0.71270   0.00000  Uiso   1.00
C597   C     0.31260   0.14734   0.78620   0.00000  Uiso   1.00
C598   C     0.02079   0.18598   0.71423   0.00000  Uiso   1.00
C599   C     0.18969   0.20151   0.54843   0.00000  Uiso   1.00
C600   C     0.19520   0.13868   0.95386   0.00000  Uiso   1.00
C601   C     0.13953   0.19635   0.95121   0.00000  Uiso   1.00
C602   C     0.14557   0.13447   0.54495   0.00000  Uiso   1.00
C603   C     0.18848   0.20094   0.59445   0.00000  Uiso   1.00
C604   C     0.19402   0.13815   0.90773   0.00000  Uiso   1.00
C605   C     0.13990   0.19581   0.90511   0.00000  Uiso   1.00
C606   C     0.24639   0.16649   0.74995   0.00000  Uiso   1.00
C607   C     0.14529   0.13406   0.59143   0.00000  Uiso   1.00
C608   C     0.16681   0.16714   0.61595   0.00000  Uiso   1.00
C609   C     0.16681   0.16675   0.88361   0.00000  Uiso   1.00
C610   C     0.16788   0.16808   0.52388   0.00000  Uiso   1.00
C611   C     0.16761   0.16781   0.97573   0.00000  Uiso   1.00
C612   C     0.29061   0.16588   0.74922   0.00000  Uiso   1.00
C613   C     0.04279   0.16739   0.75118   0.00000  Uiso   1.00
C614   C     0.16650   0.16674   0.66404   0.00000  Uiso   1.00
C615   C     0.16679   0.16667   0.83580   0.00000  Uiso   1.00
C616   C     0.19239   0.02344   0.77928   0.00000  Uiso   1.00
C617   C     0.14097   0.30987   0.72069   0.00000  Uiso   1.00
C618   C     0.14089   0.02375   0.72077   0.00000  Uiso   1.00
C619   C     0.19233   0.30955   0.77936   0.00000  Uiso   1.00
C620   C     0.02286   0.14845   0.78767   0.00000  Uiso   1.00
F621   F     0.20940   0.23309   0.61816   0.00000  Uiso   1.00
F622   F     0.22073   0.11076   0.88645   0.00000  Uiso   1.00
F623   F     0.11297   0.22285   0.88117   0.00000  Uiso   1.00
F624   F     0.12309   0.10250   0.61258   0.00000  Uiso   1.00
H625   H     0.21869   0.07587   0.80444   0.00000  Uiso   1.00
H626   H     0.26021   0.18851   0.67326   0.00000  Uiso   1.00
H627   H     0.30961   0.11745   0.84427   0.00000  Uiso   1.00
H628   H     0.02373   0.21614   0.65629   0.00000  Uiso   1.00
H629   H     0.11486   0.25739   0.69518   0.00000  Uiso   1.00
H630   H     0.11463   0.07651   0.69534   0.00000  Uiso   1.00
H631   H     0.21840   0.25676   0.80517   0.00000  Uiso   1.00
H632   H     0.21308   0.23069   0.99656   0.00000  Uiso   1.00
H633   H     0.22445   0.11609   0.50832   0.00000  Uiso   1.00
H634   H     0.11192   0.22088   0.50319   0.00000  Uiso   1.00
H635   H     0.11054   0.08136   0.53865   0.00000  Uiso   1.00
H636   H     0.07372   0.14284   0.82652   0.00000  Uiso   1.00
N637   N     0.16667   0.28573   0.75000   0.00000  Uiso   1.00
N638   N     0.16667   0.04760   0.75000   0.00000  Uiso   1.00
O639   O     0.10559   0.20487   0.74999   0.00000  Uiso   1.00
O640   O     0.11399   0.28961   0.69006   0.00000  Uiso   1.00
O641   O     0.11361   0.04430   0.69041   0.00000  Uiso   1.00
O642   O     0.21927   0.28898   0.81009   0.00000  Uiso   1.00
O643   O     0.21240   0.23508   0.52918   0.00000  Uiso   1.00
O644   O     0.22374   0.11049   0.97583   0.00000  Uiso   1.00
O645   O     0.11140   0.22505   0.97050   0.00000  Uiso   1.00
O646   O     0.12442   0.10289   0.51911   0.00000  Uiso   1.00
O647   O     0.04464   0.13158   0.82500   0.00000  Uiso   1.00
O648   O     0.28877   0.20116   0.67527   0.00000  Uiso   1.00
O649   O     0.29024   0.12997   0.82077   0.00000  Uiso   1.00
O650   O     0.22774   0.12846   0.75001   0.00000  Uiso   1.00
O651   O     0.04312   0.20337   0.67963   0.00000  Uiso   1.00
O652   O     0.22774   0.20487   0.75001   0.00000  Uiso   1.00
O653   O     0.10559   0.12846   0.74999   0.00000  Uiso   1.00
O654   O     0.16666   0.20489   0.68453   0.00000  Uiso   1.00
O655   O     0.16667   0.12845   0.81547   0.00000  Uiso   1.00
O656   O     0.16667   0.20489   0.81547   0.00000  Uiso   1.00
O657   O     0.16666   0.12845   0.68453   0.00000  Uiso   1.00
O658   O     0.21950   0.04369   0.80975   0.00000  Uiso   1.00
Zn659  Zn    0.16667   0.21771   0.75000   0.00000  Uiso   1.00
Zn660  Zn    0.16667   0.11563   0.75000   0.00000  Uiso   1.00
C661   C     0.42030   0.16683   0.75031   0.00000  Uiso   1.00
C662   C     0.64390   0.18469   0.71270   0.00000  Uiso   1.00
C663   C     0.64594   0.14734   0.78620   0.00000  Uiso   1.00
C664   C     0.35413   0.18598   0.71423   0.00000  Uiso   1.00
C665   C     0.52303   0.20151   0.54843   0.00000  Uiso   1.00
C666   C     0.52853   0.13868   0.95386   0.00000  Uiso   1.00
C667   C     0.47287   0.19635   0.95121   0.00000  Uiso   1.00
C668   C     0.47891   0.13447   0.54495   0.00000  Uiso   1.00
C669   C     0.52182   0.20094   0.59445   0.00000  Uiso   1.00
C670   C     0.52736   0.13815   0.90773   0.00000  Uiso   1.00
C671   C     0.47323   0.19581   0.90511   0.00000  Uiso   1.00
C672   C     0.57973   0.16649   0.74995   0.00000  Uiso   1.00
C673   C     0.47863   0.13406   0.59143   0.00000  Uiso   1.00
C674   C     0.50015   0.16714   0.61595   0.00000  Uiso   1.00
C675   C     0.50014   0.16675   0.88361   0.00000  Uiso   1.00
C676   C     0.50121   0.16808   0.52388   0.00000  Uiso   1.00
C677   C     0.50095   0.16781   0.97573   0.00000  Uiso   1.00
C678   C     0.62395   0.16588   0.74922   0.00000  Uiso   1.00
C679   C     0.37612   0.16739   0.75118   0.00000  Uiso   1.00
C680   C     0.49983   0.16674   0.66404   0.00000  Uiso   1.00
C681   C     0.50012   0.16667   0.83580   0.00000  Uiso   1.00
C682   C     0.52572   0.02344   0.77928   0.00000  Uiso   1.00
C683   C     0.47430   0.30987   0.72069   0.00000  Uiso   1.00
C684   C     0.47422   0.02375   0.72077   0.00000  Uiso   1.00
C685   C     0.52566   0.30955   0.77936   0.00000  Uiso   1.00
C686   C     0.35620   0.14845   0.78767   0.00000  Uiso   1.00
F687   F     0.54273   0.23309   0.61816   0.00000  Uiso   1.00
F688   F     0.55407   0.11076   0.88645   0.00000  Uiso   1.00
F689   F     0.44630   0.22285   0.88117   0.00000  Uiso   1.00
F690   F     0.45642   0.10250   0.61258   0.00000  Uiso   1.00
H691   H     0.55203   0.07587   0.80444   0.00000  Uiso   1.00
H692   H     0.59354   0.18851   0.67326   0.00000  Uiso   1.00
H693   H     0.64294   0.11745   0.84427   0.00000  Uiso   1.00
H694   H     0.35706   0.21614   0.65629   0.00000  Uiso   1.00
H695   H     0.44819   0.25739   0.69518   0.00000  Uiso   1.00
H696   H     0.44796   0.07651   0.69534   0.00000  Uiso   1.00
H697   H     0.55174   0.25676   0.80517   0.00000  Uiso   1.00
H698   H     0.54642   0.23069   0.99656   0.00000  Uiso   1.00
H699   H     0.55778   0.11609   0.50832   0.00000  Uiso   1.00
H700   H     0.44526   0.22088   0.50319   0.00000  Uiso   1.00
H701   H     0.44388   0.08136   0.53865   0.00000  Uiso   1.00
H702   H     0.40705   0.14284   0.82652   0.00000  Uiso   1.00
N703   N     0.50000   0.28573   0.75000   0.00000  Uiso   1.00
N704   N     0.50000   0.04760   0.75000   0.00000  Uiso   1.00
O705   O     0.43892   0.20487   0.74999   0.00000  Uiso   1.00
O706   O     0.44733   0.28961   0.69006   0.00000  Uiso   1.00
O707   O     0.44694   0.04430   0.69041   0.00000  Uiso   1.00
O708   O     0.55261   0.28898   0.81009   0.00000  Uiso   1.00
O709   O     0.54573   0.23508   0.52918   0.00000  Uiso   1.00
O710   O     0.55708   0.11049   0.97583   0.00000  Uiso   1.00
O711   O     0.44473   0.22505   0.97050   0.00000  Uiso   1.00
O712   O     0.45775   0.10289   0.51911   0.00000  Uiso   1.00
O713   O     0.37797   0.13158   0.82500   0.00000  Uiso   1.00
O714   O     0.62210   0.20116   0.67527   0.00000  Uiso   1.00
O715   O     0.62358   0.12997   0.82077   0.00000  Uiso   1.00
O716   O     0.56108   0.12846   0.75001   0.00000  Uiso   1.00
O717   O     0.37645   0.20337   0.67963   0.00000  Uiso   1.00
O718   O     0.56108   0.20487   0.75001   0.00000  Uiso   1.00
O719   O     0.43892   0.12846   0.74999   0.00000  Uiso   1.00
O720   O     0.50000   0.20489   0.68453   0.00000  Uiso   1.00
O721   O     0.50000   0.12845   0.81547   0.00000  Uiso   1.00
O722   O     0.50000   0.20489   0.81547   0.00000  Uiso   1.00
O723   O     0.50000   0.12845   0.68453   0.00000  Uiso   1.00
O724   O     0.55283   0.04369   0.80975   0.00000  Uiso   1.00
Zn725  Zn    0.50000   0.21771   0.75000   0.00000  Uiso   1.00
Zn726  Zn    0.50000   0.11563   0.75000   0.00000  Uiso   1.00
C727   C     0.75364   0.16683   0.75031   0.00000  Uiso   1.00
C728   C     0.97723   0.18469   0.71270   0.00000  Uiso   1.00
C729   C     0.97927   0.14734   0.78620   0.00000  Uiso   1.00
C730   C     0.68746   0.18598   0.71423   0.00000  Uiso   1.00
C731   C     0.85636   0.20151   0.54843   0.00000  Uiso   1.00
C732   C     0.86187   0.13868   0.95386   0.00000  Uiso   1.00
C733   C     0.80620   0.19635   0.95121   0.00000  Uiso   1.00
C734   C     0.81224   0.13447   0.54495   0.00000  Uiso   1.00
C735   C     0.85515   0.20094   0.59445   0.00000  Uiso   1.00
C736   C     0.86069   0.13815   0.90773   0.00000  Uiso   1.00
C737   C     0.80657   0.19581   0.90511   0.00000  Uiso   1.00
C738   C     0.91306   0.16649   0.74995   0.00000  Uiso   1.00
C739   C     0.81196   0.13406   0.59143   0.00000  Uiso   1.00
C740   C     0.83348   0.16714   0.61595   0.00000  Uiso   1.00
C741   C     0.83348   0.16675   0.88361   0.00000  Uiso   1.00
C742   C     0.83455   0.16808   0.52388   0.00000  Uiso   1.00
C743   C     0.83428   0.16781   0.97573   0.00000  Uiso   1.00
C744   C     0.95728   0.16588   0.74922   0.00000  Uiso   1.00
C745   C     0.70946   0.16739   0.75118   0.00000  Uiso   1.00
C746   C     0.83317   0.16674   0.66404   0.00000  Uiso   1.00
C747   C     0.83346   0.16667   0.83580   0.00000  Uiso   1.00
C748   C     0.85906   0.02344   0.77928   0.00000  Uiso   1.00
C749   C     0.80764   0.30987   0.72069   0.00000  Uiso   1.00
C750   C     0.80756   0.02375   0.72077   0.00000  Uiso   1.00
C751   C     0.85900   0.30955   0.77936   0.00000  Uiso   1.00
C752   C     0.68953   0.14845   0.78767   0.00000  Uiso   1.00
F753   F     0.87606   0.23309   0.61816   0.00000  Uiso   1.00
F754   F     0.88740   0.11076   0.88645   0.00000  Uiso   1.00
F755   F     0.77963   0.22285   0.88117   0.00000  Uiso   1.00
F756   F     0.78976   0.10250   0.61258   0.00000  Uiso   1.00
H757   H     0.88536   0.07587   0.80444   0.00000  Uiso   1.00
H758   H     0.92687   0.18851   0.67326   0.00000  Uiso   1.00
H759   H     0.97627   0.11745   0.84427   0.00000  Uiso   1.00
H760   H     0.69040   0.21614   0.65629   0.00000  Uiso   1.00
H761   H     0.78152   0.25739   0.69518   0.00000  Uiso   1.00
H762   H     0.78130   0.07651   0.69534   0.00000  Uiso   1.00
H763   H     0.88507   0.25676   0.80517   0.00000  Uiso   1.00
H764   H     0.87975   0.23069   0.99656   0.00000  Uiso   1.00
H765   H     0.89111   0.11609   0.50832   0.00000  Uiso   1.00
H766   H     0.77859   0.22088   0.50319   0.00000  Uiso   1.00
H767   H     0.77721   0.08136   0.53865   0.00000  Uiso   1.00
H768   H     0.74039   0.14284   0.82652   0.00000  Uiso   1.00
N769   N     0.83333   0.28573   0.75000   0.00000  Uiso   1.00
N770   N     0.83333   0.04760   0.75000   0.00000  Uiso   1.00
O771   O     0.77226   0.20487   0.74999   0.00000  Uiso   1.00
O772   O     0.78066   0.28961   0.69006   0.00000  Uiso   1.00
O773   O     0.78027   0.04430   0.69041   0.00000  Uiso   1.00
O774   O     0.88594   0.28898   0.81009   0.00000  Uiso   1.00
O775   O     0.87907   0.23508   0.52918   0.00000  Uiso   1.00
O776   O     0.89041   0.11049   0.97583   0.00000  Uiso   1.00
O777   O     0.77807   0.22505   0.97050   0.00000  Uiso   1.00
O778   O     0.79108   0.10289   0.51911   0.00000  Uiso   1.00
O779   O     0.71130   0.13158   0.82500   0.00000  Uiso   1.00
O780   O     0.95543   0.20116   0.67527   0.00000  Uiso   1.00
O781   O     0.95691   0.12997   0.82077   0.00000  Uiso   1.00
O782   O     0.89441   0.12846   0.75001   0.00000  Uiso   1.00
O783   O     0.70978   0.20337   0.67963   0.00000  Uiso   1.00
O784   O     0.89441   0.20487   0.75001   0.00000  Uiso   1.00
O785   O     0.77226   0.12846   0.74999   0.00000  Uiso   1.00
O786   O     0.83333   0.20489   0.68453   0.00000  Uiso   1.00
O787   O     0.83334   0.12845   0.81547   0.00000  Uiso   1.00
O788   O     0.83334   0.20489   0.81547   0.00000  Uiso   1.00
O789   O     0.83333   0.12845   0.68453   0.00000  Uiso   1.00
O790   O     0.88616   0.04369   0.80975   0.00000  Uiso   1.00
Zn791  Zn    0.83333   0.21771   0.75000   0.00000  Uiso   1.00
Zn792  Zn    0.83333   0.11563   0.75000   0.00000  Uiso   1.00
C793   C     0.08697   0.50016   0.75031   0.00000  Uiso   1.00
C794   C     0.31056   0.51802   0.71270   0.00000  Uiso   1.00
C795   C     0.31260   0.48067   0.78620   0.00000  Uiso   1.00
C796   C     0.02079   0.51931   0.71423   0.00000  Uiso   1.00
C797   C     0.18969   0.53484   0.54843   0.00000  Uiso   1.00
C798   C     0.19520   0.47201   0.95386   0.00000  Uiso   1.00
C799   C     0.13953   0.52968   0.95121   0.00000  Uiso   1.00
C800   C     0.14557   0.46780   0.54495   0.00000  Uiso   1.00
C801   C     0.18848   0.53427   0.59445   0.00000  Uiso   1.00
C802   C     0.19402   0.47148   0.90773   0.00000  Uiso   1.00
C803   C     0.13990   0.52914   0.90511   0.00000  Uiso   1.00
C804   C     0.24639   0.49983   0.74995   0.00000  Uiso   1.00
C805   C     0.14529   0.46740   0.59143   0.00000  Uiso   1.00
C806   C     0.16681   0.50048   0.61595   0.00000  Uiso   1.00
C807   C     0.16681   0.50009   0.88361   0.00000  Uiso   1.00
C808   C     0.16788   0.50141   0.52388   0.00000  Uiso   1.00
C809   C     0.16761   0.50114   0.97573   0.00000  Uiso   1.00
C810   C     0.29061   0.49922   0.74922   0.00000  Uiso   1.00
C811   C     0.04279   0.50072   0.75118   0.00000  Uiso   1.00
C812   C     0.16650   0.50007   0.66404   0.00000  Uiso   1.00
C813   C     0.16679   0.50000   0.83580   0.00000  Uiso   1.00
C814   C     0.19239   0.35677   0.77928   0.00000  Uiso   1.00
C815   C     0.14097   0.64321   0.72069   0.00000  Uiso   1.00
C816   C     0.14089   0.35709   0.72077   0.00000  Uiso   1.00
C817   C     0.19233   0.64289   0.77936   0.00000  Uiso   1.00
C818   C     0.02286   0.48178   0.78767   0.00000  Uiso   1.00
F819   F     0.20940   0.56643   0.61816   0.00000  Uiso   1.00
F820   F     0.22073   0.44410   0.88645   0.00000  Uiso   1.00
F821   F     0.11297   0.55618   0.88117   0.00000  Uiso   1.00
F822   F     0.12309   0.43583   0.61258   0.00000  Uiso   1.00
H823   H     0.21869   0.40920   0.80444   0.00000  Uiso   1.00
H824   H     0.26021   0.52185   0.67326   0.00000  Uiso   1.00
H825   H     0.30961   0.45079   0.84427   0.00000  Uiso   1.00
H826   H     0.02373   0.54947   0.65629   0.00000  Uiso   1.00
H827   H     0.11486   0.59072   0.69518   0.00000  Uiso   1.00
H828   H     0.11463   0.40984   0.69534   0.00000  Uiso   1.00
H829   H     0.21840   0.59009   0.80517   0.00000  Uiso   1.00
H830   H     0.21308   0.56403   0.99656   0.00000  Uiso   1.00
H831   H     0.22445   0.44942   0.50832   0.00000  Uiso   1.00
H832   H     0.11192   0.55421   0.50319   0.00000  Uiso   1.00
H833   H     0.11054   0.41470   0.53865   0.00000  Uiso   1.00
H834   H     0.07372   0.47617   0.82652   0.00000  Uiso   1.00
N835   N     0.16667   0.61907   0.75000   0.00000  Uiso   1.00
N836   N     0.16667   0.38093   0.75000   0.00000  Uiso   1.00
O837   O     0.10559   0.53821   0.74999   0.00000  Uiso   1.00
O838   O     0.11399   0.62294   0.69006   0.00000  Uiso   1.00
O839   O     0.11361   0.37763   0.69041   0.00000  Uiso   1.00
O840   O     0.21927   0.62232   0.81009   0.00000  Uiso   1.00
O841   O     0.21240   0.56841   0.52918   0.00000  Uiso   1.00
O842   O     0.22374   0.44383   0.97583   0.00000  Uiso   1.00
O843   O     0.11140   0.55839   0.97050   0.00000  Uiso   1.00
O844   O     0.12442   0.43622   0.51911   0.00000  Uiso   1.00
O845   O     0.04464   0.46491   0.82500   0.00000  Uiso   1.00
O846   O     0.28877   0.53449   0.67527   0.00000  Uiso   1.00
O847   O     0.29024   0.46330   0.82077   0.00000  Uiso   1.00
O848   O     0.22774   0.46179   0.75001   0.00000  Uiso   1.00
O849   O     0.04312   0.53671   0.67963   0.00000  Uiso   1.00
O850   O     0.22774   0.53821   0.75001   0.00000  Uiso   1.00
O851   O     0.10559   0.46179   0.74999   0.00000  Uiso   1.00
O852   O     0.16666   0.53822   0.68453   0.00000  Uiso   1.00
O853   O     0.16667   0.46178   0.81547   0.00000  Uiso   1.00
O854   O     0.16667   0.53822   0.81547   0.00000  Uiso   1.00
O855   O     0.16666   0.46178   0.68453   0.00000  Uiso   1.00
O856   O     0.21950   0.37703   0.80975   0.00000  Uiso   1.00
Zn857  Zn    0.16667   0.55104   0.75000   0.00000  Uiso   1.00
Zn858  Zn    0.16667   0.44896   0.75000   0.00000  Uiso   1.00
C859   C     0.42030   0.50016   0.75031   0.00000  Uiso   1.00
C860   C     0.64390   0.51802   0.71270   0.00000  Uiso   1.00
C861   C     0.64594   0.48067   0.78620   0.00000  Uiso   1.00
C862   C     0.35413   0.51931   0.71423   0.00000  Uiso   1.00
C863   C     0.52303   0.53484   0.54843   0.00000  Uiso   1.00
C864   C     0.52853   0.47201   0.95386   0.00000  Uiso   1.00
C865   C     0.47287   0.52968   0.95121   0.00000  Uiso   1.00
C866   C     0.47891   0.46780   0.54495   0.00000  Uiso   1.00
C867   C     0.52182   0.53427   0.59445   0.00000  Uiso   1.00
C868   C     0.52736   0.47148   0.90773   0.00000  Uiso   1.00
C869   C     0.47323   0.52914   0.90511   0.00000  Uiso   1.00
C870   C     0.57973   0.49983   0.74995   0.00000  Uiso   1.00
C871   C     0.47863   0.46740   0.59143   0.00000  Uiso   1.00
C872   C     0.50015   0.50048   0.61595   0.00000  Uiso   1.00
C873   C     0.50014   0.50009   0.88361   0.00000  Uiso   1.00
C874   C     0.50121   0.50141   0.52388   0.00000  Uiso   1.00
C875   C     0.50095   0.50114   0.97573   0.00000  Uiso   1.00
C876   C     0.62395   0.49922   0.74922   0.00000  Uiso   1.00
C877   C     0.37612   0.50072   0.75118   0.00000  Uiso   1.00
C878   C     0.49983   0.50007   0.66404   0.00000  Uiso   1.00
C879   C     0.50012   0.50000   0.83580   0.00000  Uiso   1.00
C880   C     0.52572   0.35677   0.77928   0.00000  Uiso   1.00
C881   C     0.47430   0.64321   0.72069   0.00000  Uiso   1.00
C882   C     0.47422   0.35709   0.72077   0.00000  Uiso   1.00
C883   C     0.52566   0.64289   0.77936   0.00000  Uiso   1.00
C884   C     0.35620   0.48178   0.78767   0.00000  Uiso   1.00
F885   F     0.54273   0.56643   0.61816   0.00000  Uiso   1.00
F886   F     0.55407   0.44410   0.88645   0.00000  Uiso   1.00
F887   F     0.44630   0.55618   0.88117   0.00000  Uiso   1.00
F888   F     0.45642   0.43583   0.61258   0.00000  Uiso   1.00
H889   H     0.55203   0.40920   0.80444   0.00000  Uiso   1.00
H890   H     0.59354   0.52185   0.67326   0.00000  Uiso   1.00
H891   H     0.64294   0.45079   0.84427   0.00000  Uiso   1.00
H892   H     0.35706   0.54947   0.65629   0.00000  Uiso   1.00
H893   H     0.44819   0.59072   0.69518   0.00000  Uiso   1.00
H894   H     0.44796   0.40984   0.69534   0.00000  Uiso   1.00
H895   H     0.55174   0.59009   0.80517   0.00000  Uiso   1.00
H896   H     0.54642   0.56403   0.99656   0.00000  Uiso   1.00
H897   H     0.55778   0.44942   0.50832   0.00000  Uiso   1.00
H898   H     0.44526   0.55421   0.50319   0.00000  Uiso   1.00
H899   H     0.44388   0.41470   0.53865   0.00000  Uiso   1.00
H900   H     0.40705   0.47617   0.82652   0.00000  Uiso   1.00
N901   N     0.50000   0.61907   0.75000   0.00000  Uiso   1.00
N902   N     0.50000   0.38093   0.75000   0.00000  Uiso   1.00
O903   O     0.43892   0.53821   0.74999   0.00000  Uiso   1.00
O904   O     0.44733   0.62294   0.69006   0.00000  Uiso   1.00
O905   O     0.44694   0.37763   0.69041   0.00000  Uiso   1.00
O906   O     0.55261   0.62232   0.81009   0.00000  Uiso   1.00
O907   O     0.54573   0.56841   0.52918   0.00000  Uiso   1.00
O908   O     0.55708   0.44383   0.97583   0.00000  Uiso   1.00
O909   O     0.44473   0.55839   0.97050   0.00000  Uiso   1.00
O910   O     0.45775   0.43622   0.51911   0.00000  Uiso   1.00
O911   O     0.37797   0.46491   0.82500   0.00000  Uiso   1.00
O912   O     0.62210   0.53449   0.67527   0.00000  Uiso   1.00
O913   O     0.62358   0.46330   0.82077   0.00000  Uiso   1.00
O914   O     0.56108   0.46179   0.75001   0.00000  Uiso   1.00
O915   O     0.37645   0.53671   0.67963   0.00000  Uiso   1.00
O916   O     0.56108   0.53821   0.75001   0.00000  Uiso   1.00
O917   O     0.43892   0.46179   0.74999   0.00000  Uiso   1.00
O918   O     0.50000   0.53822   0.68453   0.00000  Uiso   1.00
O919   O     0.50000   0.46178   0.81547   0.00000  Uiso   1.00
O920   O     0.50000   0.53822   0.81547   0.00000  Uiso   1.00
O921   O     0.50000   0.46178   0.68453   0.00000  Uiso   1.00
O922   O     0.55283   0.37703   0.80975   0.00000  Uiso   1.00
Zn923  Zn    0.50000   0.55104   0.75000   0.00000  Uiso   1.00
Zn924  Zn    0.50000   0.44896   0.75000   0.00000  Uiso   1.00
C925   C     0.75364   0.50016   0.75031   0.00000  Uiso   1.00
C926   C     0.97723   0.51802   0.71270   0.00000  Uiso   1.00
C927   C     0.97927   0.48067   0.78620   0.00000  Uiso   1.00
C928   C     0.68746   0.51931   0.71423   0.00000  Uiso   1.00
C929   C     0.85636   0.53484   0.54843   0.00000  Uiso   1.00
C930   C     0.86187   0.47201   0.95386   0.00000  Uiso   1.00
C931   C     0.80620   0.52968   0.95121   0.00000  Uiso   1.00
C932   C     0.81224   0.46780   0.54495   0.00000  Uiso   1.00
C933   C     0.85515   0.53427   0.59445   0.00000  Uiso   1.00
C934   C     0.86069   0.47148   0.90773   0.00000  Uiso   1.00
C935   C     0.80657   0.52914   0.90511   0.00000  Uiso   1.00
C936   C     0.91306   0.49983   0.74995   0.00000  Uiso   1.00
C937   C     0.81196   0.46740   0.59143   0.00000  Uiso   1.00
C938   C     0.83348   0.50048   0.61595   0.00000  Uiso   1.00
C939   C     0.83348   0.50009   0.88361   0.00000  Uiso   1.00
C940   C     0.83455   0.50141   0.52388   0.00000  Uiso   1.00
C941   C     0.83428   0.50114   0.97573   0.00000  Uiso   1.00
C942   C     0.95728   0.49922   0.74922   0.00000  Uiso   1.00
C943   C     0.70946   0.50072   0.75118   0.00000  Uiso   1.00
C944   C     0.83317   0.50007   0.66404   0.00000  Uiso   1.00
C945   C     0.83346   0.50000   0.83580   0.00000  Uiso   1.00
C946   C     0.85906   0.35677   0.77928   0.00000  Uiso   1.00
C947   C     0.80764   0.64321   0.72069   0.00000  Uiso   1.00
C948   C     0.80756   0.35709   0.72077   0.00000  Uiso   1.00
C949   C     0.85900   0.64289   0.77936   0.00000  Uiso   1.00
C950   C     0.68953   0.48178   0.78767   0.00000  Uiso   1.00
F951   F     0.87606   0.56643   0.61816   0.00000  Uiso   1.00
F952   F     0.88740   0.44410   0.88645   0.00000  Uiso   1.00
F953   F     0.77963   0.55618   0.88117   0.00000  Uiso   1.00
F954   F     0.78976   0.43583   0.61258   0.00000  Uiso   1.00
H955   H     0.88536   0.40920   0.80444   0.00000  Uiso   1.00
H956   H     0.92687   0.52185   0.67326   0.00000  Uiso   1.00
H957   H     0.97627   0.45079   0.84427   0.00000  Uiso   1.00
H958   H     0.69040   0.54947   0.65629   0.00000  Uiso   1.00
H959   H     0.78152   0.59072   0.69518   0.00000  Uiso   1.00
H960   H     0.78130   0.40984   0.69534   0.00000  Uiso   1.00
H961   H     0.88507   0.59009   0.80517   0.00000  Uiso   1.00
H962   H     0.87975   0.56403   0.99656   0.00000  Uiso   1.00
H963   H     0.89111   0.44942   0.50832   0.00000  Uiso   1.00
H964   H     0.77859   0.55421   0.50319   0.00000  Uiso   1.00
H965   H     0.77721   0.41470   0.53865   0.00000  Uiso   1.00
H966   H     0.74039   0.47617   0.82652   0.00000  Uiso   1.00
N967   N     0.83333   0.61907   0.75000   0.00000  Uiso   1.00
N968   N     0.83333   0.38093   0.75000   0.00000  Uiso   1.00
O969   O     0.77226   0.53821   0.74999   0.00000  Uiso   1.00
O970   O     0.78066   0.62294   0.69006   0.00000  Uiso   1.00
O971   O     0.78027   0.37763   0.69041   0.00000  Uiso   1.00
O972   O     0.88594   0.62232   0.81009   0.00000  Uiso   1.00
O973   O     0.87907   0.56841   0.52918   0.00000  Uiso   1.00
O974   O     0.89041   0.44383   0.97583   0.00000  Uiso   1.00
O975   O     0.77807   0.55839   0.97050   0.00000  Uiso   1.00
O976   O     0.79108   0.43622   0.51911   0.00000  Uiso   1.00
O977   O     0.71130   0.46491   0.82500   0.00000  Uiso   1.00
O978   O     0.95543   0.53449   0.67527   0.00000  Uiso   1.00
O979   O     0.95691   0.46330   0.82077   0.00000  Uiso   1.00
O980   O     0.89441   0.46179   0.75001   0.00000  Uiso   1.00
O981   O     0.70978   0.53671   0.67963   0.00000  Uiso   1.00
O982   O     0.89441   0.53821   0.75001   0.00000  Uiso   1.00
O983   O     0.77226   0.46179   0.74999   0.00000  Uiso   1.00
O984   O     0.83333   0.53822   0.68453   0.00000  Uiso   1.00
O985   O     0.83334   0.46178   0.81547   0.00000  Uiso   1.00
O986   O     0.83334   0.53822   0.81547   0.00000  Uiso   1.00
O987   O     0.83333   0.46178   0.68453   0.00000  Uiso   1.00
O988   O     0.88616   0.37703   0.80975   0.00000  Uiso   1.00
Zn989  Zn    0.83333   0.55104   0.75000   0.00000  Uiso   1.00
Zn990  Zn    0.83333   0.44896   0.75000   0.00000  Uiso   1.00
C991   C     0.08697   0.83350   0.75031   0.00000  Uiso   1.00
C992   C     0.31056   0.85135   0.71270   0.00000  Uiso   1.00
C993   C     0.31260   0.81400   0.78620   0.00000  Uiso   1.00
C994   C     0.02079   0.85264   0.71423   0.00000  Uiso   1.00
C995   C     0.18969   0.86817   0.54843   0.00000  Uiso   1.00
C996   C     0.19520   0.80535   0.95386   0.00000  Uiso   1.00
C997   C     0.13953   0.86302   0.95121   0.00000  Uiso   1.00
C998   C     0.14557   0.80113   0.54495   0.00000  Uiso   1.00
C999   C     0.18848   0.86760   0.59445   0.00000  Uiso   1.00
C1000  C     0.19402   0.80482   0.90773   0.00000  Uiso   1.00
C1001  C     0.13990   0.86248   0.90511   0.00000  Uiso   1.00
C1002  C     0.24639   0.83316   0.74995   0.00000  Uiso   1.00
C1003  C     0.14529   0.80073   0.59143   0.00000  Uiso   1.00
C1004  C     0.16681   0.83381   0.61595   0.00000  Uiso   1.00
C1005  C     0.16681   0.83342   0.88361   0.00000  Uiso   1.00
C1006  C     0.16788   0.83474   0.52388   0.00000  Uiso   1.00
C1007  C     0.16761   0.83448   0.97573   0.00000  Uiso   1.00
C1008  C     0.29061   0.83255   0.74922   0.00000  Uiso   1.00
C1009  C     0.04279   0.83406   0.75118   0.00000  Uiso   1.00
C1010  C     0.16650   0.83340   0.66404   0.00000  Uiso   1.00
C1011  C     0.16679   0.83333   0.83580   0.00000  Uiso   1.00
C1012  C     0.19239   0.69010   0.77928   0.00000  Uiso   1.00
C1013  C     0.14097   0.97654   0.72069   0.00000  Uiso   1.00
C1014  C     0.14089   0.69042   0.72077   0.00000  Uiso   1.00
C1015  C     0.19233   0.97622   0.77936   0.00000  Uiso   1.00
C1016  C     0.02286   0.81511   0.78767   0.00000  Uiso   1.00
F1017  F     0.20940   0.89976   0.61816   0.00000  Uiso   1.00
F1018  F     0.22073   0.77743   0.88645   0.00000  Uiso   1.00
F1019  F     0.11297   0.88951   0.88117   0.00000  Uiso   1.00
F1020  F     0.12309   0.76916   0.61258   0.00000  Uiso   1.00
H1021  H     0.21869   0.74254   0.80444   0.00000  Uiso   1.00
H1022  H     0.26021   0.85518   0.67326   0.00000  Uiso   1.00
H1023  H     0.30961   0.78412   0.84427   0.00000  Uiso   1.00
H1024  H     0.02373   0.88281   0.65629   0.00000  Uiso   1.00
H1025  H     0.11486   0.92406   0.69518   0.00000  Uiso   1.00
H1026  H     0.11463   0.74317   0.69534   0.00000  Uiso   1.00
H1027  H     0.21840   0.92342   0.80517   0.00000  Uiso   1.00
H1028  H     0.21308   0.89736   0.99656   0.00000  Uiso   1.00
H1029  H     0.22445   0.78275   0.50832   0.00000  Uiso   1.00
H1030  H     0.11192   0.88755   0.50319   0.00000  Uiso   1.00
H1031  H     0.11054   0.74803   0.53865   0.00000  Uiso   1.00
H1032  H     0.07372   0.80951   0.82652   0.00000  Uiso   1.00
N1033  N     0.16667   0.95240   0.75000   0.00000  Uiso   1.00
N1034  N     0.16667   0.71427   0.75000   0.00000  Uiso   1.00
O1035  O     0.10559   0.87154   0.74999   0.00000  Uiso   1.00
O1036  O     0.11399   0.95627   0.69006   0.00000  Uiso   1.00
O1037  O     0.11361   0.71096   0.69041   0.00000  Uiso   1.00
O1038  O     0.21927   0.95565   0.81009   0.00000  Uiso   1.00
O1039  O     0.21240   0.90174   0.52918   0.00000  Uiso   1.00
O1040  O     0.22374   0.77716   0.97583   0.00000  Uiso   1.00
O1041  O     0.11140   0.89172   0.97050   0.00000  Uiso   1.00
O1042  O     0.12442   0.76956   0.51911   0.00000  Uiso   1.00
O1043  O     0.04464   0.79825   0.82500   0.00000  Uiso   1.00
O1044  O     0.28877   0.86782   0.67527   0.00000  Uiso   1.00
O1045  O     0.29024   0.79663   0.82077   0.00000  Uiso   1.00
O1046  O     0.22774   0.79513   0.75001   0.00000  Uiso   1.00
O1047  O     0.04312   0.87004   0.67963   0.00000  Uiso   1.00
O1048  O     0.22774   0.87154   0.75001   0.00000  Uiso   1.00
O1049  O     0.10559   0.79513   0.74999   0.00000  Uiso   1.00
O1050  O     0.16666   0.87155   0.68453   0.00000  Uiso   1.00
O1051  O     0.16667   0.79511   0.81547   0.00000  Uiso   1.00
O1052  O     0.16667   0.87155   0.81547   0.00000  Uiso   1.00
O1053  O     0.16666   0.79511   0.68453   0.00000  Uiso   1.00
O1054  O     0.21950   0.71036   0.80975   0.00000  Uiso   1.00
Zn1055 Zn    0.16667   0.88437   0.75000   0.00000  Uiso   1.00
Zn1056 Zn    0.16667   0.78229   0.75000   0.00000  Uiso   1.00
C1057  C     0.42030   0.83350   0.75031   0.00000  Uiso   1.00
C1058  C     0.64390   0.85135   0.71270   0.00000  Uiso   1.00
C1059  C     0.64594   0.81400   0.78620   0.00000  Uiso   1.00
C1060  C     0.35413   0.85264   0.71423   0.00000  Uiso   1.00
C1061  C     0.52303   0.86817   0.54843   0.00000  Uiso   1.00
C1062  C     0.52853   0.80535   0.95386   0.00000  Uiso   1.00
C1063  C     0.47287   0.86302   0.95121   0.00000  Uiso   1.00
C1064  C     0.47891   0.80113   0.54495   0.00000  Uiso   1.00
C1065  C     0.52182   0.86760   0.59445   0.00000  Uiso   1.00
C1066  C     0.52736   0.80482   0.90773   0.00000  Uiso   1.00
C1067  C     0.47323   0.86248   0.90511   0.00000  Uiso   1.00
C1068  C     0.57973   0.83316   0.74995   0.00000  Uiso   1.00
C1069  C     0.47863   0.80073   0.59143   0.00000  Uiso   1.00
C1070  C     0.50015   0.83381   0.61595   0.00000  Uiso   1.00
C1071  C     0.50014   0.83342   0.88361   0.00000  Uiso   1.00
C1072  C     0.50121   0.83474   0.52388   0.00000  Uiso   1.00
C1073  C     0.50095   0.83448   0.97573   0.00000  Uiso   1.00
C1074  C     0.62395   0.83255   0.74922   0.00000  Uiso   1.00
C1075  C     0.37612   0.83406   0.75118   0.00000  Uiso   1.00
C1076  C     0.49983   0.83340   0.66404   0.00000  Uiso   1.00
C1077  C     0.50012   0.83333   0.83580   0.00000  Uiso   1.00
C1078  C     0.52572   0.69010   0.77928   0.00000  Uiso   1.00
C1079  C     0.47430   0.97654   0.72069   0.00000  Uiso   1.00
C1080  C     0.47422   0.69042   0.72077   0.00000  Uiso   1.00
C1081  C     0.52566   0.97622   0.77936   0.00000  Uiso   1.00
C1082  C     0.35620   0.81511   0.78767   0.00000  Uiso   1.00
F1083  F     0.54273   0.89976   0.61816   0.00000  Uiso   1.00
F1084  F     0.55407   0.77743   0.88645   0.00000  Uiso   1.00
F1085  F     0.44630   0.88951   0.88117   0.00000  Uiso   1.00
F1086  F     0.45642   0.76916   0.61258   0.00000  Uiso   1.00
H1087  H     0.55203   0.74254   0.80444   0.00000  Uiso   1.00
H1088  H     0.59354   0.85518   0.67326   0.00000  Uiso   1.00
H1089  H     0.64294   0.78412   0.84427   0.00000  Uiso   1.00
H1090  H     0.35706   0.88281   0.65629   0.00000  Uiso   1.00
H1091  H     0.44819   0.92406   0.69518   0.00000  Uiso   1.00
H1092  H     0.44796   0.74317   0.69534   0.00000  Uiso   1.00
H1093  H     0.55174   0.92342   0.80517   0.00000  Uiso   1.00
H1094  H     0.54642   0.89736   0.99656   0.00000  Uiso   1.00
H1095  H     0.55778   0.78275   0.50832   0.00000  Uiso   1.00
H1096  H     0.44526   0.88755   0.50319   0.00000  Uiso   1.00
H1097  H     0.44388   0.74803   0.53865   0.00000  Uiso   1.00
H1098  H     0.40705   0.80951   0.82652   0.00000  Uiso   1.00
N1099  N     0.50000   0.95240   0.75000   0.00000  Uiso   1.00
N1100  N     0.50000   0.71427   0.75000   0.00000  Uiso   1.00
O1101  O     0.43892   0.87154   0.74999   0.00000  Uiso   1.00
O1102  O     0.44733   0.95627   0.69006   0.00000  Uiso   1.00
O1103  O     0.44694   0.71096   0.69041   0.00000  Uiso   1.00
O1104  O     0.55261   0.95565   0.81009   0.00000  Uiso   1.00
O1105  O     0.54573   0.90174   0.52918   0.00000  Uiso   1.00
O1106  O     0.55708   0.77716   0.97583   0.00000  Uiso   1.00
O1107  O     0.44473   0.89172   0.97050   0.00000  Uiso   1.00
O1108  O     0.45775   0.76956   0.51911   0.00000  Uiso   1.00
O1109  O     0.37797   0.79825   0.82500   0.00000  Uiso   1.00
O1110  O     0.62210   0.86782   0.67527   0.00000  Uiso   1.00
O1111  O     0.62358   0.79663   0.82077   0.00000  Uiso   1.00
O1112  O     0.56108   0.79513   0.75001   0.00000  Uiso   1.00
O1113  O     0.37645   0.87004   0.67963   0.00000  Uiso   1.00
O1114  O     0.56108   0.87154   0.75001   0.00000  Uiso   1.00
O1115  O     0.43892   0.79513   0.74999   0.00000  Uiso   1.00
O1116  O     0.50000   0.87155   0.68453   0.00000  Uiso   1.00
O1117  O     0.50000   0.79511   0.81547   0.00000  Uiso   1.00
O1118  O     0.50000   0.87155   0.81547   0.00000  Uiso   1.00
O1119  O     0.50000   0.79511   0.68453   0.00000  Uiso   1.00
O1120  O     0.55283   0.71036   0.80975   0.00000  Uiso   1.00
Zn1121 Zn    0.50000   0.88437   0.75000   0.00000  Uiso   1.00
Zn1122 Zn    0.50000   0.78229   0.75000   0.00000  Uiso   1.00
C1123  C     0.75364   0.83350   0.75031   0.00000  Uiso   1.00
C1124  C     0.97723   0.85135   0.71270   0.00000  Uiso   1.00
C1125  C     0.97927   0.81400   0.78620   0.00000  Uiso   1.00
C1126  C     0.68746   0.85264   0.71423   0.00000  Uiso   1.00
C1127  C     0.85636   0.86817   0.54843   0.00000  Uiso   1.00
C1128  C     0.86187   0.80535   0.95386   0.00000  Uiso   1.00
C1129  C     0.80620   0.86302   0.95121   0.00000  Uiso   1.00
C1130  C     0.81224   0.80113   0.54495   0.00000  Uiso   1.00
C1131  C     0.85515   0.86760   0.59445   0.00000  Uiso   1.00
C1132  C     0.86069   0.80482   0.90773   0.00000  Uiso   1.00
C1133  C     0.80657   0.86248   0.90511   0.00000  Uiso   1.00
C1134  C     0.91306   0.83316   0.74995   0.00000  Uiso   1.00
C1135  C     0.81196   0.80073   0.59143   0.00000  Uiso   1.00
C1136  C     0.83348   0.83381   0.61595   0.00000  Uiso   1.00
C1137  C     0.83348   0.83342   0.88361   0.00000  Uiso   1.00
C1138  C     0.83455   0.83474   0.52388   0.00000  Uiso   1.00
C1139  C     0.83428   0.83448   0.97573   0.00000  Uiso   1.00
C1140  C     0.95728   0.83255   0.74922   0.00000  Uiso   1.00
C1141  C     0.70946   0.83406   0.75118   0.00000  Uiso   1.00
C1142  C     0.83317   0.83340   0.66404   0.00000  Uiso   1.00
C1143  C     0.83346   0.83333   0.83580   0.00000  Uiso   1.00
C1144  C     0.85906   0.69010   0.77928   0.00000  Uiso   1.00
C1145  C     0.80764   0.97654   0.72069   0.00000  Uiso   1.00
C1146  C     0.80756   0.69042   0.72077   0.00000  Uiso   1.00
C1147  C     0.85900   0.97622   0.77936   0.00000  Uiso   1.00
C1148  C     0.68953   0.81511   0.78767   0.00000  Uiso   1.00
F1149  F     0.87606   0.89976   0.61816   0.00000  Uiso   1.00
F1150  F     0.88740   0.77743   0.88645   0.00000  Uiso   1.00
F1151  F     0.77963   0.88951   0.88117   0.00000  Uiso   1.00
F1152  F     0.78976   0.76916   0.61258   0.00000  Uiso   1.00
H1153  H     0.88536   0.74254   0.80444   0.00000  Uiso   1.00
H1154  H     0.92687   0.85518   0.67326   0.00000  Uiso   1.00
H1155  H     0.97627   0.78412   0.84427   0.00000  Uiso   1.00
H1156  H     0.69040   0.88281   0.65629   0.00000  Uiso   1.00
H1157  H     0.78152   0.92406   0.69518   0.00000  Uiso   1.00
H1158  H     0.78130   0.74317   0.69534   0.00000  Uiso   1.00
H1159  H     0.88507   0.92342   0.80517   0.00000  Uiso   1.00
H1160  H     0.87975   0.89736   0.99656   0.00000  Uiso   1.00
H1161  H     0.89111   0.78275   0.50832   0.00000  Uiso   1.00
H1162  H     0.77859   0.88755   0.50319   0.00000  Uiso   1.00
H1163  H     0.77721   0.74803   0.53865   0.00000  Uiso   1.00
H1164  H     0.74039   0.80951   0.82652   0.00000  Uiso   1.00
N1165  N     0.83333   0.95240   0.75000   0.00000  Uiso   1.00
N1166  N     0.83333   0.71427   0.75000   0.00000  Uiso   1.00
O1167  O     0.77226   0.87154   0.74999   0.00000  Uiso   1.00
O1168  O     0.78066   0.95627   0.69006   0.00000  Uiso   1.00
O1169  O     0.78027   0.71096   0.69041   0.00000  Uiso   1.00
O1170  O     0.88594   0.95565   0.81009   0.00000  Uiso   1.00
O1171  O     0.87907   0.90174   0.52918   0.00000  Uiso   1.00
O1172  O     0.89041   0.77716   0.97583   0.00000  Uiso   1.00
O1173  O     0.77807   0.89172   0.97050   0.00000  Uiso   1.00
O1174  O     0.79108   0.76956   0.51911   0.00000  Uiso   1.00
O1175  O     0.71130   0.79825   0.82500   0.00000  Uiso   1.00
O1176  O     0.95543   0.86782   0.67527   0.00000  Uiso   1.00
O1177  O     0.95691   0.79663   0.82077   0.00000  Uiso   1.00
O1178  O     0.89441   0.79513   0.75001   0.00000  Uiso   1.00
O1179  O     0.70978   0.87004   0.67963   0.00000  Uiso   1.00
O1180  O     0.89441   0.87154   0.75001   0.00000  Uiso   1.00
O1181  O     0.77226   0.79513   0.74999   0.00000  Uiso   1.00
O1182  O     0.83333   0.87155   0.68453   0.00000  Uiso   1.00
O1183  O     0.83334   0.79511   0.81547   0.00000  Uiso   1.00
O1184  O     0.83334   0.87155   0.81547   0.00000  Uiso   1.00
O1185  O     0.83333   0.79511   0.68453   0.00000  Uiso   1.00
O1186  O     0.88616   0.71036   0.80975   0.00000  Uiso   1.00
Zn1187 Zn    0.83333   0.88437   0.75000   0.00000  Uiso   1.00
Zn1188 Zn    0.83333   0.78229   0.75000   0.00000  Uiso   1.00
loop_
_geom_bond_atom_site_label_1
_geom_bond_atom_site_label_2
_geom_bond_distance
_geom_bond_site_symmetry_2
_ccdc_geom_bond_type
C1     O45     1.289   .     A
C1     O59     1.291   .     A
C1     C19     1.411   .     S
C2     C18     1.409   .     A
C2     O54     1.385   .     S
C2     C70     1.390   .     S
C3     O55     1.386   .     S
C3     C18     1.400   .     A
C3     C92     1.390   .     S
C4     O57     1.387   .     S
C4     C19     1.400   .     A
C4     C134    1.390   1_455 S
C5     C9      1.383   .     A
C5     O49     1.384   .     S
C5     C16     1.413   .     A
C6     C10     1.383   .     A
C6     O50     1.384   .     S
C6     C17     1.417   .     A
C7     O51     1.384   .     S
C7     C11     1.383   .     A
C7     C17     1.417   .     A
C8     C13     1.395   .     A
C8     O52     1.384   .     S
C8     C16     1.403   .     A
C9     C14     1.402   .     A
C9     F27     1.359   .     S
C10    F28     1.358   .     S
C10    C15     1.396   .     A
C11    F29     1.360   .     S
C11    C15     1.396   .     A
C12    O56     1.289   .     A
C12    O58     1.292   .     A
C12    C18     1.412   .     S
C13    C14     1.400   .     A
C13    F30     1.358   .     S
C14    C20     1.443   .     S
C15    C21     1.434   .     S
C16    C611    1.444   1_554 S
C17    C610    1.444   .     S
C19    C26     1.410   .     A
C20    O60     1.298   .     A
C20    O63     1.301   .     A
C21    O61     1.298   .     A
C21    O62     1.297   .     A
C22    O64     1.375   .     S
C22    N44     1.378   .     A
C22    C421    1.415   1_545 S
C23    O46     1.376   .     S
C23    N43     1.378   .     A
C23    C222    1.415   .     S
C24    N44     1.379   .     A
C24    O47     1.375   .     S
C24    C419    1.415   1_545 S
C25    N43     1.379   .     A
C25    O48     1.376   .     S
C25    C220    1.415   .     S
C26    O53     1.386   .     S
C26    C135    1.390   1_455 S
H31    O64     0.977   .     S
H32    O54     0.988   .     S
H33    O55     0.989   .     S
H34    O57     0.989   .     S
H35    O46     0.978   .     S
H36    O47     0.977   .     S
H37    O48     0.977   .     S
H38    O643    0.988   .     S
H39    O644    0.988   1_554 S
H40    O645    0.988   1_554 S
H41    O52     0.990   .     S
H42    O53     0.989   .     S
N43    Zn65    2.039   .     S
N44    Zn66    2.039   .     S
O45    Zn65    1.989   .     S
O49    H632    0.988   1_554 S
O50    H633    0.988   .     S
O51    H634    0.988   .     S
O56    Zn66    1.989   .     S
O58    Zn65    1.984   .     S
O59    Zn66    1.984   .     S
O60    Zn65    2.001   .     S
O61    Zn66    2.001   .     S
O62    Zn65    2.001   .     S
O63    Zn66    2.001   .     S
C67    O111    1.289   .     A
C67    O125    1.291   .     A
C67    C85     1.411   .     S
C68    C84     1.409   .     A
C68    O120    1.385   .     S
C68    C136    1.390   .     S
C69    O121    1.386   .     S
C69    C84     1.400   .     A
C69    C158    1.390   .     S
C70    O123    1.387   .     S
C70    C85     1.400   .     A
C71    C75     1.383   .     A
C71    O115    1.384   .     S
C71    C82     1.413   .     A
C72    C76     1.383   .     A
C72    O116    1.384   .     S
C72    C83     1.417   .     A
C73    O117    1.384   .     S
C73    C77     1.383   .     A
C73    C83     1.417   .     A
C74    C79     1.395   .     A
C74    O118    1.384   .     S
C74    C82     1.403   .     A
C75    C80     1.402   .     A
C75    F93     1.359   .     S
C76    F94     1.358   .     S
C76    C81     1.396   .     A
C77    F95     1.360   .     S
C77    C81     1.396   .     A
C78    O122    1.289   .     A
C78    O124    1.292   .     A
C78    C84     1.412   .     S
C79    C80     1.400   .     A
C79    F96     1.358   .     S
C80    C86     1.443   .     S
C81    C87     1.434   .     S
C82    C677    1.444   1_554 S
C83    C676    1.444   .     S
C85    C92     1.410   .     A
C86    O126    1.298   .     A
C86    O129    1.301   .     A
C87    O127    1.298   .     A
C87    O128    1.297   .     A
C88    O130    1.375   .     S
C88    N110    1.378   .     A
C88    C487    1.415   1_545 S
C89    O112    1.376   .     S
C89    N109    1.378   .     A
C89    C288    1.415   .     S
C90    N110    1.379   .     A
C90    O113    1.375   .     S
C90    C485    1.415   1_545 S
C91    N109    1.379   .     A
C91    O114    1.376   .     S
C91    C286    1.415   .     S
C92    O119    1.386   .     S
H97    O130    0.977   .     S
H98    O120    0.988   .     S
H99    O121    0.989   .     S
H100   O123    0.989   .     S
H101   O112    0.978   .     S
H102   O113    0.977   .     S
H103   O114    0.977   .     S
H104   O709    0.988   .     S
H105   O710    0.988   1_554 S
H106   O711    0.988   1_554 S
H107   O118    0.990   .     S
H108   O119    0.989   .     S
N109   Zn131   2.039   .     S
N110   Zn132   2.039   .     S
O111   Zn131   1.989   .     S
O115   H698    0.988   1_554 S
O116   H699    0.988   .     S
O117   H700    0.988   .     S
O122   Zn132   1.989   .     S
O124   Zn131   1.984   .     S
O125   Zn132   1.984   .     S
O126   Zn131   2.001   .     S
O127   Zn132   2.001   .     S
O128   Zn131   2.001   .     S
O129   Zn132   2.001   .     S
C133   O177    1.289   .     A
C133   O191    1.291   .     A
C133   C151    1.411   .     S
C134   C150    1.409   .     A
C134   O186    1.385   .     S
C134   C4      1.390   1_655 S
C135   O187    1.386   .     S
C135   C150    1.400   .     A
C135   C26     1.390   1_655 S
C136   O189    1.387   .     S
C136   C151    1.400   .     A
C137   C141    1.383   .     A
C137   O181    1.384   .     S
C137   C148    1.413   .     A
C138   C142    1.383   .     A
C138   O182    1.384   .     S
C138   C149    1.417   .     A
C139   O183    1.384   .     S
C139   C143    1.383   .     A
C139   C149    1.417   .     A
C140   C145    1.395   .     A
C140   O184    1.384   .     S
C140   C148    1.403   .     A
C141   C146    1.402   .     A
C141   F159    1.359   .     S
C142   F160    1.358   .     S
C142   C147    1.396   .     A
C143   F161    1.360   .     S
C143   C147    1.396   .     A
C144   O188    1.289   .     A
C144   O190    1.292   .     A
C144   C150    1.412   .     S
C145   C146    1.400   .     A
C145   F162    1.358   .     S
C146   C152    1.443   .     S
C147   C153    1.434   .     S
C148   C743    1.444   1_554 S
C149   C742    1.444   .     S
C151   C158    1.410   .     A
C152   O192    1.298   .     A
C152   O195    1.301   .     A
C153   O193    1.298   .     A
C153   O194    1.297   .     A
C154   O196    1.375   .     S
C154   N176    1.378   .     A
C154   C553    1.415   1_545 S
C155   O178    1.376   .     S
C155   N175    1.378   .     A
C155   C354    1.415   .     S
C156   N176    1.379   .     A
C156   O179    1.375   .     S
C156   C551    1.415   1_545 S
C157   N175    1.379   .     A
C157   O180    1.376   .     S
C157   C352    1.415   .     S
C158   O185    1.386   .     S
H163   O196    0.977   .     S
H164   O186    0.988   .     S
H165   O187    0.989   .     S
H166   O189    0.989   .     S
H167   O178    0.978   .     S
H168   O179    0.977   .     S
H169   O180    0.977   .     S
H170   O775    0.988   .     S
H171   O776    0.988   1_554 S
H172   O777    0.988   1_554 S
H173   O184    0.990   .     S
H174   O185    0.989   .     S
N175   Zn197   2.039   .     S
N176   Zn198   2.039   .     S
O177   Zn197   1.989   .     S
O181   H764    0.988   1_554 S
O182   H765    0.988   .     S
O183   H766    0.988   .     S
O188   Zn198   1.989   .     S
O190   Zn197   1.984   .     S
O191   Zn198   1.984   .     S
O192   Zn197   2.001   .     S
O193   Zn198   2.001   .     S
O194   Zn197   2.001   .     S
O195   Zn198   2.001   .     S
C199   O243    1.289   .     A
C199   O257    1.291   .     A
C199   C217    1.411   .     S
C200   C216    1.409   .     A
C200   O252    1.385   .     S
C200   C268    1.390   .     S
C201   O253    1.386   .     S
C201   C216    1.400   .     A
C201   C290    1.390   .     S
C202   O255    1.387   .     S
C202   C217    1.400   .     A
C202   C332    1.390   1_455 S
C203   C207    1.383   .     A
C203   O247    1.384   .     S
C203   C214    1.413   .     A
C204   C208    1.383   .     A
C204   O248    1.384   .     S
C204   C215    1.417   .     A
C205   O249    1.384   .     S
C205   C209    1.383   .     A
C205   C215    1.417   .     A
C206   C211    1.395   .     A
C206   O250    1.384   .     S
C206   C214    1.403   .     A
C207   C212    1.402   .     A
C207   F225    1.359   .     S
C208   F226    1.358   .     S
C208   C213    1.396   .     A
C209   F227    1.360   .     S
C209   C213    1.396   .     A
C210   O254    1.289   .     A
C210   O256    1.292   .     A
C210   C216    1.412   .     S
C211   C212    1.400   .     A
C211   F228    1.358   .     S
C212   C218    1.443   .     S
C213   C219    1.434   .     S
C214   C809    1.444   1_554 S
C215   C808    1.444   .     S
C217   C224    1.410   .     A
C218   O258    1.298   .     A
C218   O261    1.301   .     A
C219   O259    1.298   .     A
C219   O260    1.297   .     A
C220   O262    1.375   .     S
C220   N242    1.378   .     A
C221   O244    1.376   .     S
C221   N241    1.378   .     A
C221   C420    1.415   .     S
C222   N242    1.379   .     A
C222   O245    1.375   .     S
C223   N241    1.379   .     A
C223   O246    1.376   .     S
C223   C418    1.415   .     S
C224   O251    1.386   .     S
C224   C333    1.390   1_455 S
H229   O262    0.977   .     S
H230   O252    0.988   .     S
H231   O253    0.989   .     S
H232   O255    0.989   .     S
H233   O244    0.978   .     S
H234   O245    0.977   .     S
H235   O246    0.977   .     S
H236   O841    0.988   .     S
H237   O842    0.988   1_554 S
H238   O843    0.988   1_554 S
H239   O250    0.990   .     S
H240   O251    0.989   .     S
N241   Zn263   2.039   .     S
N242   Zn264   2.039   .     S
O243   Zn263   1.989   .     S
O247   H830    0.988   1_554 S
O248   H831    0.988   .     S
O249   H832    0.988   .     S
O254   Zn264   1.989   .     S
O256   Zn263   1.984   .     S
O257   Zn264   1.984   .     S
O258   Zn263   2.001   .     S
O259   Zn264   2.001   .     S
O260   Zn263   2.001   .     S
O261   Zn264   2.001   .     S
C265   O309    1.289   .     A
C265   O323    1.291   .     A
C265   C283    1.411   .     S
C266   C282    1.409   .     A
C266   O318    1.385   .     S
C266   C334    1.390   .     S
C267   O319    1.386   .     S
C267   C282    1.400   .     A
C267   C356    1.390   .     S
C268   O321    1.387   .     S
C268   C283    1.400   .     A
C269   C273    1.383   .     A
C269   O313    1.384   .     S
C269   C280    1.413   .     A
C270   C274    1.383   .     A
C270   O314    1.384   .     S
C270   C281    1.417   .     A
C271   O315    1.384   .     S
C271   C275    1.383   .     A
C271   C281    1.417   .     A
C272   C277    1.395   .     A
C272   O316    1.384   .     S
C272   C280    1.403   .     A
C273   C278    1.402   .     A
C273   F291    1.359   .     S
C274   F292    1.358   .     S
C274   C279    1.396   .     A
C275   F293    1.360   .     S
C275   C279    1.396   .     A
C276   O320    1.289   .     A
C276   O322    1.292   .     A
C276   C282    1.412   .     S
C277   C278    1.400   .     A
C277   F294    1.358   .     S
C278   C284    1.443   .     S
C279   C285    1.434   .     S
C280   C875    1.444   1_554 S
C281   C874    1.444   .     S
C283   C290    1.410   .     A
C284   O324    1.298   .     A
C284   O327    1.301   .     A
C285   O325    1.298   .     A
C285   O326    1.297   .     A
C286   O328    1.375   .     S
C286   N308    1.378   .     A
C287   O310    1.376   .     S
C287   N307    1.378   .     A
C287   C486    1.415   .     S
C288   N308    1.379   .     A
C288   O311    1.375   .     S
C289   N307    1.379   .     A
C289   O312    1.376   .     S
C289   C484    1.415   .     S
C290   O317    1.386   .     S
H295   O328    0.977   .     S
H296   O318    0.988   .     S
H297   O319    0.989   .     S
H298   O321    0.989   .     S
H299   O310    0.978   .     S
H300   O311    0.977   .     S
H301   O312    0.977   .     S
H302   O907    0.988   .     S
H303   O908    0.988   1_554 S
H304   O909    0.988   1_554 S
H305   O316    0.990   .     S
H306   O317    0.989   .     S
N307   Zn329   2.039   .     S
N308   Zn330   2.039   .     S
O309   Zn329   1.989   .     S
O313   H896    0.988   1_554 S
O314   H897    0.988   .     S
O315   H898    0.988   .     S
O320   Zn330   1.989   .     S
O322   Zn329   1.984   .     S
O323   Zn330   1.984   .     S
O324   Zn329   2.001   .     S
O325   Zn330   2.001   .     S
O326   Zn329   2.001   .     S
O327   Zn330   2.001   .     S
C331   O375    1.289   .     A
C331   O389    1.291   .     A
C331   C349    1.411   .     S
C332   C348    1.409   .     A
C332   O384    1.385   .     S
C332   C202    1.390   1_655 S
C333   O385    1.386   .     S
C333   C348    1.400   .     A
C333   C224    1.390   1_655 S
C334   O387    1.387   .     S
C334   C349    1.400   .     A
C335   C339    1.383   .     A
C335   O379    1.384   .     S
C335   C346    1.413   .     A
C336   C340    1.383   .     A
C336   O380    1.384   .     S
C336   C347    1.417   .     A
C337   O381    1.384   .     S
C337   C341    1.383   .     A
C337   C347    1.417   .     A
C338   C343    1.395   .     A
C338   O382    1.384   .     S
C338   C346    1.403   .     A
C339   C344    1.402   .     A
C339   F357    1.359   .     S
C340   F358    1.358   .     S
C340   C345    1.396   .     A
C341   F359    1.360   .     S
C341   C345    1.396   .     A
C342   O386    1.289   .     A
C342   O388    1.292   .     A
C342   C348    1.412   .     S
C343   C344    1.400   .     A
C343   F360    1.358   .     S
C344   C350    1.443   .     S
C345   C351    1.434   .     S
C346   C941    1.444   1_554 S
C347   C940    1.444   .     S
C349   C356    1.410   .     A
C350   O390    1.298   .     A
C350   O393    1.301   .     A
C351   O391    1.298   .     A
C351   O392    1.297   .     A
C352   O394    1.375   .     S
C352   N374    1.378   .     A
C353   O376    1.376   .     S
C353   N373    1.378   .     A
C353   C552    1.415   .     S
C354   N374    1.379   .     A
C354   O377    1.375   .     S
C355   N373    1.379   .     A
C355   O378    1.376   .     S
C355   C550    1.415   .     S
C356   O383    1.386   .     S
H361   O394    0.977   .     S
H362   O384    0.988   .     S
H363   O385    0.989   .     S
H364   O387    0.989   .     S
H365   O376    0.978   .     S
H366   O377    0.977   .     S
H367   O378    0.977   .     S
H368   O973    0.988   .     S
H369   O974    0.988   1_554 S
H370   O975    0.988   1_554 S
H371   O382    0.990   .     S
H372   O383    0.989   .     S
N373   Zn395   2.039   .     S
N374   Zn396   2.039   .     S
O375   Zn395   1.989   .     S
O379   H962    0.988   1_554 S
O380   H963    0.988   .     S
O381   H964    0.988   .     S
O386   Zn396   1.989   .     S
O388   Zn395   1.984   .     S
O389   Zn396   1.984   .     S
O390   Zn395   2.001   .     S
O391   Zn396   2.001   .     S
O392   Zn395   2.001   .     S
O393   Zn396   2.001   .     S
C397   O441    1.289   .     A
C397   O455    1.291   .     A
C397   C415    1.411   .     S
C398   C414    1.409   .     A
C398   O450    1.385   .     S
C398   C466    1.390   .     S
C399   O451    1.386   .     S
C399   C414    1.400   .     A
C399   C488    1.390   .     S
C400   O453    1.387   .     S
C400   C415    1.400   .     A
C400   C530    1.390   1_455 S
C401   C405    1.383   .     A
C401   O445    1.384   .     S
C401   C412    1.413   .     A
C402   C406    1.383   .     A
C402   O446    1.384   .     S
C402   C413    1.417   .     A
C403   O447    1.384   .     S
C403   C407    1.383   .     A
C403   C413    1.417   .     A
C404   C409    1.395   .     A
C404   O448    1.384   .     S
C404   C412    1.403   .     A
C405   C410    1.402   .     A
C405   F423    1.359   .     S
C406   F424    1.358   .     S
C406   C411    1.396   .     A
C407   F425    1.360   .     S
C407   C411    1.396   .     A
C408   O452    1.289   .     A
C408   O454    1.292   .     A
C408   C414    1.412   .     S
C409   C410    1.400   .     A
C409   F426    1.358   .     S
C410   C416    1.443   .     S
C411   C417    1.434   .     S
C412   C1007   1.444   1_554 S
C413   C1006   1.444   .     S
C415   C422    1.410   .     A
C416   O456    1.298   .     A
C416   O459    1.301   .     A
C417   O457    1.298   .     A
C417   O458    1.297   .     A
C418   O460    1.375   .     S
C418   N440    1.378   .     A
C419   O442    1.376   .     S
C419   N439    1.378   .     A
C419   C24     1.415   1_565 S
C420   N440    1.379   .     A
C420   O443    1.375   .     S
C421   N439    1.379   .     A
C421   O444    1.376   .     S
C421   C22     1.415   1_565 S
C422   O449    1.386   .     S
C422   C531    1.390   1_455 S
H427   O460    0.977   .     S
H428   O450    0.988   .     S
H429   O451    0.989   .     S
H430   O453    0.989   .     S
H431   O442    0.978   .     S
H432   O443    0.977   .     S
H433   O444    0.977   .     S
H434   O1039   0.988   .     S
H435   O1040   0.988   1_554 S
H436   O1041   0.988   1_554 S
H437   O448    0.990   .     S
H438   O449    0.989   .     S
N439   Zn461   2.039   .     S
N440   Zn462   2.039   .     S
O441   Zn461   1.989   .     S
O445   H1028   0.988   1_554 S
O446   H1029   0.988   .     S
O447   H1030   0.988   .     S
O452   Zn462   1.989   .     S
O454   Zn461   1.984   .     S
O455   Zn462   1.984   .     S
O456   Zn461   2.001   .     S
O457   Zn462   2.001   .     S
O458   Zn461   2.001   .     S
O459   Zn462   2.001   .     S
C463   O507    1.289   .     A
C463   O521    1.291   .     A
C463   C481    1.411   .     S
C464   C480    1.409   .     A
C464   O516    1.385   .     S
C464   C532    1.390   .     S
C465   O517    1.386   .     S
C465   C480    1.400   .     A
C465   C554    1.390   .     S
C466   O519    1.387   .     S
C466   C481    1.400   .     A
C467   C471    1.383   .     A
C467   O511    1.384   .     S
C467   C478    1.413   .     A
C468   C472    1.383   .     A
C468   O512    1.384   .     S
C468   C479    1.417   .     A
C469   O513    1.384   .     S
C469   C473    1.383   .     A
C469   C479    1.417   .     A
C470   C475    1.395   .     A
C470   O514    1.384   .     S
C470   C478    1.403   .     A
C471   C476    1.402   .     A
C471   F489    1.359   .     S
C472   F490    1.358   .     S
C472   C477    1.396   .     A
C473   F491    1.360   .     S
C473   C477    1.396   .     A
C474   O518    1.289   .     A
C474   O520    1.292   .     A
C474   C480    1.412   .     S
C475   C476    1.400   .     A
C475   F492    1.358   .     S
C476   C482    1.443   .     S
C477   C483    1.434   .     S
C478   C1073   1.444   1_554 S
C479   C1072   1.444   .     S
C481   C488    1.410   .     A
C482   O522    1.298   .     A
C482   O525    1.301   .     A
C483   O523    1.298   .     A
C483   O524    1.297   .     A
C484   O526    1.375   .     S
C484   N506    1.378   .     A
C485   O508    1.376   .     S
C485   N505    1.378   .     A
C485   C90     1.415   1_565 S
C486   N506    1.379   .     A
C486   O509    1.375   .     S
C487   N505    1.379   .     A
C487   O510    1.376   .     S
C487   C88     1.415   1_565 S
C488   O515    1.386   .     S
H493   O526    0.977   .     S
H494   O516    0.988   .     S
H495   O517    0.989   .     S
H496   O519    0.989   .     S
H497   O508    0.978   .     S
H498   O509    0.977   .     S
H499   O510    0.977   .     S
H500   O1105   0.988   .     S
H501   O1106   0.988   1_554 S
H502   O1107   0.988   1_554 S
H503   O514    0.990   .     S
H504   O515    0.989   .     S
N505   Zn527   2.039   .     S
N506   Zn528   2.039   .     S
O507   Zn527   1.989   .     S
O511   H1094   0.988   1_554 S
O512   H1095   0.988   .     S
O513   H1096   0.988   .     S
O518   Zn528   1.989   .     S
O520   Zn527   1.984   .     S
O521   Zn528   1.984   .     S
O522   Zn527   2.001   .     S
O523   Zn528   2.001   .     S
O524   Zn527   2.001   .     S
O525   Zn528   2.001   .     S
C529   O573    1.289   .     A
C529   O587    1.291   .     A
C529   C547    1.411   .     S
C530   C546    1.409   .     A
C530   O582    1.385   .     S
C530   C400    1.390   1_655 S
C531   O583    1.386   .     S
C531   C546    1.400   .     A
C531   C422    1.390   1_655 S
C532   O585    1.387   .     S
C532   C547    1.400   .     A
C533   C537    1.383   .     A
C533   O577    1.384   .     S
C533   C544    1.413   .     A
C534   C538    1.383   .     A
C534   O578    1.384   .     S
C534   C545    1.417   .     A
C535   O579    1.384   .     S
C535   C539    1.383   .     A
C535   C545    1.417   .     A
C536   C541    1.395   .     A
C536   O580    1.384   .     S
C536   C544    1.403   .     A
C537   C542    1.402   .     A
C537   F555    1.359   .     S
C538   F556    1.358   .     S
C538   C543    1.396   .     A
C539   F557    1.360   .     S
C539   C543    1.396   .     A
C540   O584    1.289   .     A
C540   O586    1.292   .     A
C540   C546    1.412   .     S
C541   C542    1.400   .     A
C541   F558    1.358   .     S
C542   C548    1.443   .     S
C543   C549    1.434   .     S
C544   C1139   1.444   1_554 S
C545   C1138   1.444   .     S
C547   C554    1.410   .     A
C548   O588    1.298   .     A
C548   O591    1.301   .     A
C549   O589    1.298   .     A
C549   O590    1.297   .     A
C550   O592    1.375   .     S
C550   N572    1.378   .     A
C551   O574    1.376   .     S
C551   N571    1.378   .     A
C551   C156    1.415   1_565 S
C552   N572    1.379   .     A
C552   O575    1.375   .     S
C553   N571    1.379   .     A
C553   O576    1.376   .     S
C553   C154    1.415   1_565 S
C554   O581    1.386   .     S
H559   O592    0.977   .     S
H560   O582    0.988   .     S
H561   O583    0.989   .     S
H562   O585    0.989   .     S
H563   O574    0.978   .     S
H564   O575    0.977   .     S
H565   O576    0.977   .     S
H566   O1171   0.988   .     S
H567   O1172   0.988   1_554 S
H568   O1173   0.988   1_554 S
H569   O580    0.990   .     S
H570   O581    0.989   .     S
N571   Zn593   2.039   .     S
N572   Zn594   2.039   .     S
O573   Zn593   1.989   .     S
O577   H1160   0.988   1_554 S
O578   H1161   0.988   .     S
O579   H1162   0.988   .     S
O584   Zn594   1.989   .     S
O586   Zn593   1.984   .     S
O587   Zn594   1.984   .     S
O588   Zn593   2.001   .     S
O589   Zn594   2.001   .     S
O590   Zn593   2.001   .     S
O591   Zn594   2.001   .     S
C595   O639    1.289   .     A
C595   O653    1.291   .     A
C595   C613    1.411   .     S
C596   C612    1.409   .     A
C596   O648    1.385   .     S
C596   C664    1.390   .     S
C597   O649    1.386   .     S
C597   C612    1.400   .     A
C597   C686    1.390   .     S
C598   O651    1.387   .     S
C598   C613    1.400   .     A
C598   C728    1.390   1_455 S
C599   C603    1.383   .     A
C599   O643    1.384   .     S
C599   C610    1.413   .     A
C600   C604    1.383   .     A
C600   O644    1.384   .     S
C600   C611    1.417   .     A
C601   O645    1.384   .     S
C601   C605    1.383   .     A
C601   C611    1.417   .     A
C602   C607    1.395   .     A
C602   O646    1.384   .     S
C602   C610    1.403   .     A
C603   C608    1.402   .     A
C603   F621    1.359   .     S
C604   F622    1.358   .     S
C604   C609    1.396   .     A
C605   F623    1.360   .     S
C605   C609    1.396   .     A
C606   O650    1.289   .     A
C606   O652    1.292   .     A
C606   C612    1.412   .     S
C607   C608    1.400   .     A
C607   F624    1.358   .     S
C608   C614    1.443   .     S
C609   C615    1.434   .     S
C611   C16     1.444   1_556 S
C613   C620    1.410   .     A
C614   O654    1.298   .     A
C614   O657    1.301   .     A
C615   O655    1.298   .     A
C615   O656    1.297   .     A
C616   O658    1.375   .     S
C616   N638    1.378   .     A
C616   C1015   1.415   1_545 S
C617   O640    1.376   .     S
C617   N637    1.378   .     A
C617   C816    1.415   .     S
C618   N638    1.379   .     A
C618   O641    1.375   .     S
C618   C1013   1.415   1_545 S
C619   N637    1.379   .     A
C619   O642    1.376   .     S
C619   C814    1.415   .     S
C620   O647    1.386   .     S
C620   C729    1.390   1_455 S
H625   O658    0.977   .     S
H626   O648    0.988   .     S
H627   O649    0.989   .     S
H628   O651    0.989   .     S
H629   O640    0.978   .     S
H630   O641    0.977   .     S
H631   O642    0.977   .     S
H632   O49     0.988   1_556 S
H635   O646    0.990   .     S
H636   O647    0.989   .     S
N637   Zn659   2.039   .     S
N638   Zn660   2.039   .     S
O639   Zn659   1.989   .     S
O644   H39     0.988   1_556 S
O645   H40     0.988   1_556 S
O650   Zn660   1.989   .     S
O652   Zn659   1.984   .     S
O653   Zn660   1.984   .     S
O654   Zn659   2.001   .     S
O655   Zn660   2.001   .     S
O656   Zn659   2.001   .     S
O657   Zn660   2.001   .     S
C661   O705    1.289   .     A
C661   O719    1.291   .     A
C661   C679    1.411   .     S
C662   C678    1.409   .     A
C662   O714    1.385   .     S
C662   C730    1.390   .     S
C663   O715    1.386   .     S
C663   C678    1.400   .     A
C663   C752    1.390   .     S
C664   O717    1.387   .     S
C664   C679    1.400   .     A
C665   C669    1.383   .     A
C665   O709    1.384   .     S
C665   C676    1.413   .     A
C666   C670    1.383   .     A
C666   O710    1.384   .     S
C666   C677    1.417   .     A
C667   O711    1.384   .     S
C667   C671    1.383   .     A
C667   C677    1.417   .     A
C668   C673    1.395   .     A
C668   O712    1.384   .     S
C668   C676    1.403   .     A
C669   C674    1.402   .     A
C669   F687    1.359   .     S
C670   F688    1.358   .     S
C670   C675    1.396   .     A
C671   F689    1.360   .     S
C671   C675    1.396   .     A
C672   O716    1.289   .     A
C672   O718    1.292   .     A
C672   C678    1.412   .     S
C673   C674    1.400   .     A
C673   F690    1.358   .     S
C674   C680    1.443   .     S
C675   C681    1.434   .     S
C677   C82     1.444   1_556 S
C679   C686    1.410   .     A
C680   O720    1.298   .     A
C680   O723    1.301   .     A
C681   O721    1.298   .     A
C681   O722    1.297   .     A
C682   O724    1.375   .     S
C682   N704    1.378   .     A
C682   C1081   1.415   1_545 S
C683   O706    1.376   .     S
C683   N703    1.378   .     A
C683   C882    1.415   .     S
C684   N704    1.379   .     A
C684   O707    1.375   .     S
C684   C1079   1.415   1_545 S
C685   N703    1.379   .     A
C685   O708    1.376   .     S
C685   C880    1.415   .     S
C686   O713    1.386   .     S
H691   O724    0.977   .     S
H692   O714    0.988   .     S
H693   O715    0.989   .     S
H694   O717    0.989   .     S
H695   O706    0.978   .     S
H696   O707    0.977   .     S
H697   O708    0.977   .     S
H698   O115    0.988   1_556 S
H701   O712    0.990   .     S
H702   O713    0.989   .     S
N703   Zn725   2.039   .     S
N704   Zn726   2.039   .     S
O705   Zn725   1.989   .     S
O710   H105    0.988   1_556 S
O711   H106    0.988   1_556 S
O716   Zn726   1.989   .     S
O718   Zn725   1.984   .     S
O719   Zn726   1.984   .     S
O720   Zn725   2.001   .     S
O721   Zn726   2.001   .     S
O722   Zn725   2.001   .     S
O723   Zn726   2.001   .     S
C727   O771    1.289   .     A
C727   O785    1.291   .     A
C727   C745    1.411   .     S
C728   C744    1.409   .     A
C728   O780    1.385   .     S
C728   C598    1.390   1_655 S
C729   O781    1.386   .     S
C729   C744    1.400   .     A
C729   C620    1.390   1_655 S
C730   O783    1.387   .     S
C730   C745    1.400   .     A
C731   C735    1.383   .     A
C731   O775    1.384   .     S
C731   C742    1.413   .     A
C732   C736    1.383   .     A
C732   O776    1.384   .     S
C732   C743    1.417   .     A
C733   O777    1.384   .     S
C733   C737    1.383   .     A
C733   C743    1.417   .     A
C734   C739    1.395   .     A
C734   O778    1.384   .     S
C734   C742    1.403   .     A
C735   C740    1.402   .     A
C735   F753    1.359   .     S
C736   F754    1.358   .     S
C736   C741    1.396   .     A
C737   F755    1.360   .     S
C737   C741    1.396   .     A
C738   O782    1.289   .     A
C738   O784    1.292   .     A
C738   C744    1.412   .     S
C739   C740    1.400   .     A
C739   F756    1.358   .     S
C740   C746    1.443   .     S
C741   C747    1.434   .     S
C743   C148    1.444   1_556 S
C745   C752    1.410   .     A
C746   O786    1.298   .     A
C746   O789    1.301   .     A
C747   O787    1.298   .     A
C747   O788    1.297   .     A
C748   O790    1.375   .     S
C748   N770    1.378   .     A
C748   C1147   1.415   1_545 S
C749   O772    1.376   .     S
C749   N769    1.378   .     A
C749   C948    1.415   .     S
C750   N770    1.379   .     A
C750   O773    1.375   .     S
C750   C1145   1.415   1_545 S
C751   N769    1.379   .     A
C751   O774    1.376   .     S
C751   C946    1.415   .     S
C752   O779    1.386   .     S
H757   O790    0.977   .     S
H758   O780    0.988   .     S
H759   O781    0.989   .     S
H760   O783    0.989   .     S
H761   O772    0.978   .     S
H762   O773    0.977   .     S
H763   O774    0.977   .     S
H764   O181    0.988   1_556 S
H767   O778    0.990   .     S
H768   O779    0.989   .     S
N769   Zn791   2.039   .     S
N770   Zn792   2.039   .     S
O771   Zn791   1.989   .     S
O776   H171    0.988   1_556 S
O777   H172    0.988   1_556 S
O782   Zn792   1.989   .     S
O784   Zn791   1.984   .     S
O785   Zn792   1.984   .     S
O786   Zn791   2.001   .     S
O787   Zn792   2.001   .     S
O788   Zn791   2.001   .     S
O789   Zn792   2.001   .     S
C793   O837    1.289   .     A
C793   O851    1.291   .     A
C793   C811    1.411   .     S
C794   C810    1.409   .     A
C794   O846    1.385   .     S
C794   C862    1.390   .     S
C795   O847    1.386   .     S
C795   C810    1.400   .     A
C795   C884    1.390   .     S
C796   O849    1.387   .     S
C796   C811    1.400   .     A
C796   C926    1.390   1_455 S
C797   C801    1.383   .     A
C797   O841    1.384   .     S
C797   C808    1.413   .     A
C798   C802    1.383   .     A
C798   O842    1.384   .     S
C798   C809    1.417   .     A
C799   O843    1.384   .     S
C799   C803    1.383   .     A
C799   C809    1.417   .     A
C800   C805    1.395   .     A
C800   O844    1.384   .     S
C800   C808    1.403   .     A
C801   C806    1.402   .     A
C801   F819    1.359   .     S
C802   F820    1.358   .     S
C802   C807    1.396   .     A
C803   F821    1.360   .     S
C803   C807    1.396   .     A
C804   O848    1.289   .     A
C804   O850    1.292   .     A
C804   C810    1.412   .     S
C805   C806    1.400   .     A
C805   F822    1.358   .     S
C806   C812    1.443   .     S
C807   C813    1.434   .     S
C809   C214    1.444   1_556 S
C811   C818    1.410   .     A
C812   O852    1.298   .     A
C812   O855    1.301   .     A
C813   O853    1.298   .     A
C813   O854    1.297   .     A
C814   O856    1.375   .     S
C814   N836    1.378   .     A
C815   O838    1.376   .     S
C815   N835    1.378   .     A
C815   C1014   1.415   .     S
C816   N836    1.379   .     A
C816   O839    1.375   .     S
C817   N835    1.379   .     A
C817   O840    1.376   .     S
C817   C1012   1.415   .     S
C818   O845    1.386   .     S
C818   C927    1.390   1_455 S
H823   O856    0.977   .     S
H824   O846    0.988   .     S
H825   O847    0.989   .     S
H826   O849    0.989   .     S
H827   O838    0.978   .     S
H828   O839    0.977   .     S
H829   O840    0.977   .     S
H830   O247    0.988   1_556 S
H833   O844    0.990   .     S
H834   O845    0.989   .     S
N835   Zn857   2.039   .     S
N836   Zn858   2.039   .     S
O837   Zn857   1.989   .     S
O842   H237    0.988   1_556 S
O843   H238    0.988   1_556 S
O848   Zn858   1.989   .     S
O850   Zn857   1.984   .     S
O851   Zn858   1.984   .     S
O852   Zn857   2.001   .     S
O853   Zn858   2.001   .     S
O854   Zn857   2.001   .     S
O855   Zn858   2.001   .     S
C859   O903    1.289   .     A
C859   O917    1.291   .     A
C859   C877    1.411   .     S
C860   C876    1.409   .     A
C860   O912    1.385   .     S
C860   C928    1.390   .     S
C861   O913    1.386   .     S
C861   C876    1.400   .     A
C861   C950    1.390   .     S
C862   O915    1.387   .     S
C862   C877    1.400   .     A
C863   C867    1.383   .     A
C863   O907    1.384   .     S
C863   C874    1.413   .     A
C864   C868    1.383   .     A
C864   O908    1.384   .     S
C864   C875    1.417   .     A
C865   O909    1.384   .     S
C865   C869    1.383   .     A
C865   C875    1.417   .     A
C866   C871    1.395   .     A
C866   O910    1.384   .     S
C866   C874    1.403   .     A
C867   C872    1.402   .     A
C867   F885    1.359   .     S
C868   F886    1.358   .     S
C868   C873    1.396   .     A
C869   F887    1.360   .     S
C869   C873    1.396   .     A
C870   O914    1.289   .     A
C870   O916    1.292   .     A
C870   C876    1.412   .     S
C871   C872    1.400   .     A
C871   F888    1.358   .     S
C872   C878    1.443   .     S
C873   C879    1.434   .     S
C875   C280    1.444   1_556 S
C877   C884    1.410   .     A
C878   O918    1.298   .     A
C878   O921    1.301   .     A
C879   O919    1.298   .     A
C879   O920    1.297   .     A
C880   O922    1.375   .     S
C880   N902    1.378   .     A
C881   O904    1.376   .     S
C881   N901    1.378   .     A
C881   C1080   1.415   .     S
C882   N902    1.379   .     A
C882   O905    1.375   .     S
C883   N901    1.379   .     A
C883   O906    1.376   .     S
C883   C1078   1.415   .     S
C884   O911    1.386   .     S
H889   O922    0.977   .     S
H890   O912    0.988   .     S
H891   O913    0.989   .     S
H892   O915    0.989   .     S
H893   O904    0.978   .     S
H894   O905    0.977   .     S
H895   O906    0.977   .     S
H896   O313    0.988   1_556 S
H899   O910    0.990   .     S
H900   O911    0.989   .     S
N901   Zn923   2.039   .     S
N902   Zn924   2.039   .     S
O903   Zn923   1.989   .     S
O908   H303    0.988   1_556 S
O909   H304    0.988   1_556 S
O914   Zn924   1.989   .     S
O916   Zn923   1.984   .     S
O917   Zn924   1.984   .     S
O918   Zn923   2.001   .     S
O919   Zn924   2.001   .     S
O920   Zn923   2.001   .     S
O921   Zn924   2.001   .     S
C925   O969    1.289   .     A
C925   O983    1.291   .     A
C925   C943    1.411   .     S
C926   C942    1.409   .     A
C926   O978    1.385   .     S
C926   C796    1.390   1_655 S
C927   O979    1.386   .     S
C927   C942    1.400   .     A
C927   C818    1.390   1_655 S
C928   O981    1.387   .     S
C928   C943    1.400   .     A
C929   C933    1.383   .     A
C929   O973    1.384   .     S
C929   C940    1.413   .     A
C930   C934    1.383   .     A
C930   O974    1.384   .     S
C930   C941    1.417   .     A
C931   O975    1.384   .     S
C931   C935    1.383   .     A
C931   C941    1.417   .     A
C932   C937    1.395   .     A
C932   O976    1.384   .     S
C932   C940    1.403   .     A
C933   C938    1.402   .     A
C933   F951    1.359   .     S
C934   F952    1.358   .     S
C934   C939    1.396   .     A
C935   F953    1.360   .     S
C935   C939    1.396   .     A
C936   O980    1.289   .     A
C936   O982    1.292   .     A
C936   C942    1.412   .     S
C937   C938    1.400   .     A
C937   F954    1.358   .     S
C938   C944    1.443   .     S
C939   C945    1.434   .     S
C941   C346    1.444   1_556 S
C943   C950    1.410   .     A
C944   O984    1.298   .     A
C944   O987    1.301   .     A
C945   O985    1.298   .     A
C945   O986    1.297   .     A
C946   O988    1.375   .     S
C946   N968    1.378   .     A
C947   O970    1.376   .     S
C947   N967    1.378   .     A
C947   C1146   1.415   .     S
C948   N968    1.379   .     A
C948   O971    1.375   .     S
C949   N967    1.379   .     A
C949   O972    1.376   .     S
C949   C1144   1.415   .     S
C950   O977    1.386   .     S
H955   O988    0.977   .     S
H956   O978    0.988   .     S
H957   O979    0.989   .     S
H958   O981    0.989   .     S
H959   O970    0.978   .     S
H960   O971    0.977   .     S
H961   O972    0.977   .     S
H962   O379    0.988   1_556 S
H965   O976    0.990   .     S
H966   O977    0.989   .     S
N967   Zn989   2.039   .     S
N968   Zn990   2.039   .     S
O969   Zn989   1.989   .     S
O974   H369    0.988   1_556 S
O975   H370    0.988   1_556 S
O980   Zn990   1.989   .     S
O982   Zn989   1.984   .     S
O983   Zn990   1.984   .     S
O984   Zn989   2.001   .     S
O985   Zn990   2.001   .     S
O986   Zn989   2.001   .     S
O987   Zn990   2.001   .     S
C991   O1035   1.289   .     A
C991   O1049   1.291   .     A
C991   C1009   1.411   .     S
C992   C1008   1.409   .     A
C992   O1044   1.385   .     S
C992   C1060   1.390   .     S
C993   O1045   1.386   .     S
C993   C1008   1.400   .     A
C993   C1082   1.390   .     S
C994   O1047   1.387   .     S
C994   C1009   1.400   .     A
C994   C1124   1.390   1_455 S
C995   C999    1.383   .     A
C995   O1039   1.384   .     S
C995   C1006   1.413   .     A
C996   C1000   1.383   .     A
C996   O1040   1.384   .     S
C996   C1007   1.417   .     A
C997   O1041   1.384   .     S
C997   C1001   1.383   .     A
C997   C1007   1.417   .     A
C998   C1003   1.395   .     A
C998   O1042   1.384   .     S
C998   C1006   1.403   .     A
C999   C1004   1.402   .     A
C999   F1017   1.359   .     S
C1000  F1018   1.358   .     S
C1000  C1005   1.396   .     A
C1001  F1019   1.360   .     S
C1001  C1005   1.396   .     A
C1002  O1046   1.289   .     A
C1002  O1048   1.292   .     A
C1002  C1008   1.412   .     S
C1003  C1004   1.400   .     A
C1003  F1020   1.358   .     S
C1004  C1010   1.443   .     S
C1005  C1011   1.434   .     S
C1007  C412    1.444   1_556 S
C1009  C1016   1.410   .     A
C1010  O1050   1.298   .     A
C1010  O1053   1.301   .     A
C1011  O1051   1.298   .     A
C1011  O1052   1.297   .     A
C1012  O1054   1.375   .     S
C1012  N1034   1.378   .     A
C1013  O1036   1.376   .     S
C1013  N1033   1.378   .     A
C1013  C618    1.415   1_565 S
C1014  N1034   1.379   .     A
C1014  O1037   1.375   .     S
C1015  N1033   1.379   .     A
C1015  O1038   1.376   .     S
C1015  C616    1.415   1_565 S
C1016  O1043   1.386   .     S
C1016  C1125   1.390   1_455 S
H1021  O1054   0.977   .     S
H1022  O1044   0.988   .     S
H1023  O1045   0.989   .     S
H1024  O1047   0.989   .     S
H1025  O1036   0.978   .     S
H1026  O1037   0.977   .     S
H1027  O1038   0.977   .     S
H1028  O445    0.988   1_556 S
H1031  O1042   0.990   .     S
H1032  O1043   0.989   .     S
N1033  Zn1055  2.039   .     S
N1034  Zn1056  2.039   .     S
O1035  Zn1055  1.989   .     S
O1040  H435    0.988   1_556 S
O1041  H436    0.988   1_556 S
O1046  Zn1056  1.989   .     S
O1048  Zn1055  1.984   .     S
O1049  Zn1056  1.984   .     S
O1050  Zn1055  2.001   .     S
O1051  Zn1056  2.001   .     S
O1052  Zn1055  2.001   .     S
O1053  Zn1056  2.001   .     S
C1057  O1101   1.289   .     A
C1057  O1115   1.291   .     A
C1057  C1075   1.411   .     S
C1058  C1074   1.409   .     A
C1058  O1110   1.385   .     S
C1058  C1126   1.390   .     S
C1059  O1111   1.386   .     S
C1059  C1074   1.400   .     A
C1059  C1148   1.390   .     S
C1060  O1113   1.387   .     S
C1060  C1075   1.400   .     A
C1061  C1065   1.383   .     A
C1061  O1105   1.384   .     S
C1061  C1072   1.413   .     A
C1062  C1066   1.383   .     A
C1062  O1106   1.384   .     S
C1062  C1073   1.417   .     A
C1063  O1107   1.384   .     S
C1063  C1067   1.383   .     A
C1063  C1073   1.417   .     A
C1064  C1069   1.395   .     A
C1064  O1108   1.384   .     S
C1064  C1072   1.403   .     A
C1065  C1070   1.402   .     A
C1065  F1083   1.359   .     S
C1066  F1084   1.358   .     S
C1066  C1071   1.396   .     A
C1067  F1085   1.360   .     S
C1067  C1071   1.396   .     A
C1068  O1112   1.289   .     A
C1068  O1114   1.292   .     A
C1068  C1074   1.412   .     S
C1069  C1070   1.400   .     A
C1069  F1086   1.358   .     S
C1070  C1076   1.443   .     S
C1071  C1077   1.434   .     S
C1073  C478    1.444   1_556 S
C1075  C1082   1.410   .     A
C1076  O1116   1.298   .     A
C1076  O1119   1.301   .     A
C1077  O1117   1.298   .     A
C1077  O1118   1.297   .     A
C1078  O1120   1.375   .     S
C1078  N1100   1.378   .     A
C1079  O1102   1.376   .     S
C1079  N1099   1.378   .     A
C1079  C684    1.415   1_565 S
C1080  N1100   1.379   .     A
C1080  O1103   1.375   .     S
C1081  N1099   1.379   .     A
C1081  O1104   1.376   .     S
C1081  C682    1.415   1_565 S
C1082  O1109   1.386   .     S
H1087  O1120   0.977   .     S
H1088  O1110   0.988   .     S
H1089  O1111   0.989   .     S
H1090  O1113   0.989   .     S
H1091  O1102   0.978   .     S
H1092  O1103   0.977   .     S
H1093  O1104   0.977   .     S
H1094  O511    0.988   1_556 S
H1097  O1108   0.990   .     S
H1098  O1109   0.989   .     S
N1099  Zn1121  2.039   .     S
N1100  Zn1122  2.039   .     S
O1101  Zn1121  1.989   .     S
O1106  H501    0.988   1_556 S
O1107  H502    0.988   1_556 S
O1112  Zn1122  1.989   .     S
O1114  Zn1121  1.984   .     S
O1115  Zn1122  1.984   .     S
O1116  Zn1121  2.001   .     S
O1117  Zn1122  2.001   .     S
O1118  Zn1121  2.001   .     S
O1119  Zn1122  2.001   .     S
C1123  O1167   1.289   .     A
C1123  O1181   1.291   .     A
C1123  C1141   1.411   .     S
C1124  C1140   1.409   .     A
C1124  O1176   1.385   .     S
C1124  C994    1.390   1_655 S
C1125  O1177   1.386   .     S
C1125  C1140   1.400   .     A
C1125  C1016   1.390   1_655 S
C1126  O1179   1.387   .     S
C1126  C1141   1.400   .     A
C1127  C1131   1.383   .     A
C1127  O1171   1.384   .     S
C1127  C1138   1.413   .     A
C1128  C1132   1.383   .     A
C1128  O1172   1.384   .     S
C1128  C1139   1.417   .     A
C1129  O1173   1.384   .     S
C1129  C1133   1.383   .     A
C1129  C1139   1.417   .     A
C1130  C1135   1.395   .     A
C1130  O1174   1.384   .     S
C1130  C1138   1.403   .     A
C1131  C1136   1.402   .     A
C1131  F1149   1.359   .     S
C1132  F1150   1.358   .     S
C1132  C1137   1.396   .     A
C1133  F1151   1.360   .     S
C1133  C1137   1.396   .     A
C1134  O1178   1.289   .     A
C1134  O1180   1.292   .     A
C1134  C1140   1.412   .     S
C1135  C1136   1.400   .     A
C1135  F1152   1.358   .     S
C1136  C1142   1.443   .     S
C1137  C1143   1.434   .     S
C1139  C544    1.444   1_556 S
C1141  C1148   1.410   .     A
C1142  O1182   1.298   .     A
C1142  O1185   1.301   .     A
C1143  O1183   1.298   .     A
C1143  O1184   1.297   .     A
C1144  O1186   1.375   .     S
C1144  N1166   1.378   .     A
C1145  O1168   1.376   .     S
C1145  N1165   1.378   .     A
C1145  C750    1.415   1_565 S
C1146  N1166   1.379   .     A
C1146  O1169   1.375   .     S
C1147  N1165   1.379   .     A
C1147  O1170   1.376   .     S
C1147  C748    1.415   1_565 S
C1148  O1175   1.386   .     S
H1153  O1186   0.977   .     S
H1154  O1176   0.988   .     S
H1155  O1177   0.989   .     S
H1156  O1179   0.989   .     S
H1157  O1168   0.978   .     S
H1158  O1169   0.977   .     S
H1159  O1170   0.977   .     S
H1160  O577    0.988   1_556 S
H1163  O1174   0.990   .     S
H1164  O1175   0.989   .     S
N1165  Zn1187  2.039   .     S
N1166  Zn1188  2.039   .     S
O1167  Zn1187  1.989   .     S
O1172  H567    0.988   1_556 S
O1173  H568    0.988   1_556 S
O1178  Zn1188  1.989   .     S
O1180  Zn1187  1.984   .     S
O1181  Zn1188  1.984   .     S
O1182  Zn1187  2.001   .     S
O1183  Zn1188  2.001   .     S
O1184  Zn1187  2.001   .     S
O1185  Zn1188  2.001   .     S
