data_str_m3_o10_o17_pcu_sym.81
_audit_creation_date              2020-01-03
_audit_creation_method            'Materials Studio'
_symmetry_space_group_name_H-M    'P1'
_symmetry_Int_Tables_number       1
_symmetry_cell_setting            triclinic
loop_
_symmetry_equiv_pos_as_xyz
  x,y,z
_cell_length_a                    23.2357
_cell_length_b                    25.8685
_cell_length_c                    29.9333
_cell_angle_alpha                 91.3280
_cell_angle_beta                  86.6931
_cell_angle_gamma                 93.4193
loop_
_atom_site_label
_atom_site_type_symbol
_atom_site_fract_x
_atom_site_fract_y
_atom_site_fract_z
_atom_site_U_iso_or_equiv
_atom_site_adp_type
_atom_site_occupancy
C1     C     0.18166   0.26472   0.24917   0.00000  Uiso   1.00
C2     C     0.19696   0.20616   0.40562   0.00000  Uiso   1.00
C3     C     0.16301   0.16931   0.11628   0.00000  Uiso   1.00
C4     C     0.17033   0.16402   0.38372   0.00000  Uiso   1.00
C5     C     0.18882   0.21223   0.09361   0.00000  Uiso   1.00
C6     C     0.14452   0.12111   0.40639   0.00000  Uiso   1.00
C7     C     0.18795   0.21321   0.04652   0.00000  Uiso   1.00
C8     C     0.14538   0.12012   0.45348   0.00000  Uiso   1.00
C9     C     0.16553   0.16788   0.02357   0.00000  Uiso   1.00
C10    C     0.16780   0.16545   0.47643   0.00000  Uiso   1.00
C11    C     0.14049   0.12490   0.04769   0.00000  Uiso   1.00
C12    C     0.15168   0.06861   0.25083   0.00000  Uiso   1.00
C13    C     0.19284   0.20843   0.45231   0.00000  Uiso   1.00
C14    C     0.20915   0.25683   0.02116   0.00000  Uiso   1.00
C15    C     0.12419   0.07651   0.47884   0.00000  Uiso   1.00
C16    C     0.04497   0.08842   0.12368   0.00000  Uiso   1.00
C17    C     0.28837   0.24491   0.37632   0.00000  Uiso   1.00
C18    C     0.21703   0.25338   0.11987   0.00000  Uiso   1.00
C19    C     0.11631   0.07995   0.38013   0.00000  Uiso   1.00
C20    C     0.22585   0.30720   0.03999   0.00000  Uiso   1.00
C21    C     0.10749   0.02613   0.46001   0.00000  Uiso   1.00
C22    C     0.23872   0.00390   0.27937   0.00000  Uiso   1.00
C23    C     0.21234   0.25335   0.47497   0.00000  Uiso   1.00
C24    C     0.09462   0.32943   0.22063   0.00000  Uiso   1.00
C25    C     0.12099   0.07998   0.02503   0.00000  Uiso   1.00
C26    C     0.18853   0.31861   0.25519   0.00000  Uiso   1.00
C27    C     0.14480   0.01472   0.24481   0.00000  Uiso   1.00
C28    C     0.16780   0.16624   0.33624   0.00000  Uiso   1.00
C29    C     0.16554   0.16709   0.16376   0.00000  Uiso   1.00
C30    C     0.13637   0.12717   0.09438   0.00000  Uiso   1.00
H31    H     0.22942   0.28715   0.45686   0.00000  Uiso   1.00
H32    H     0.30673   0.25426   0.40917   0.00000  Uiso   1.00
H33    H     0.30685   0.27362   0.35171   0.00000  Uiso   1.00
H34    H     0.30112   0.20587   0.36479   0.00000  Uiso   1.00
H35    H     0.10392   0.04618   0.04314   0.00000  Uiso   1.00
H36    H     0.00447   0.12659   0.21725   0.00000  Uiso   1.00
H37    H     0.32886   0.20674   0.28275   0.00000  Uiso   1.00
H38    H     0.12200   0.05035   0.11435   0.00000  Uiso   1.00
H39    H     0.02661   0.07907   0.09083   0.00000  Uiso   1.00
H40    H     0.03221   0.12746   0.13521   0.00000  Uiso   1.00
H41    H     0.02648   0.05971   0.14829   0.00000  Uiso   1.00
H42    H     0.21134   0.28298   0.38565   0.00000  Uiso   1.00
N43    N     0.31678   0.15265   0.23783   0.00000  Uiso   1.00
N44    N     0.05478   0.31457   0.20154   0.00000  Uiso   1.00
N45    N     0.01656   0.18068   0.26217   0.00000  Uiso   1.00
N46    N     0.10725   0.08682   0.12028   0.00000  Uiso   1.00
N47    N     0.22609   0.24652   0.37972   0.00000  Uiso   1.00
N48    N     0.23941   0.28572   0.14122   0.00000  Uiso   1.00
N49    N     0.09392   0.04761   0.35878   0.00000  Uiso   1.00
N50    N     0.23920   0.01443   0.05448   0.00000  Uiso   1.00
N51    N     0.09413   0.31891   0.44552   0.00000  Uiso   1.00
N52    N     0.27856   0.01877   0.29846   0.00000  Uiso   1.00
O53    O     0.12975   0.24619   0.25299   0.00000  Uiso   1.00
O54    O     0.20358   0.08714   0.24702   0.00000  Uiso   1.00
O55    O     0.22613   0.23721   0.24519   0.00000  Uiso   1.00
O56    O     0.10720   0.09613   0.25482   0.00000  Uiso   1.00
O57    O     0.11847   0.17117   0.31998   0.00000  Uiso   1.00
O58    O     0.21486   0.16216   0.18003   0.00000  Uiso   1.00
O59    O     0.21485   0.16219   0.31218   0.00000  Uiso   1.00
O60    O     0.11848   0.17115   0.18783   0.00000  Uiso   1.00
Zn61   Zn    0.10231   0.17266   0.25521   0.00000  Uiso   1.00
Zn62   Zn    0.23102   0.16067   0.24479   0.00000  Uiso   1.00
C63    C     0.51499   0.26472   0.24917   0.00000  Uiso   1.00
C64    C     0.53030   0.20616   0.40562   0.00000  Uiso   1.00
C65    C     0.49634   0.16931   0.11628   0.00000  Uiso   1.00
C66    C     0.50366   0.16402   0.38372   0.00000  Uiso   1.00
C67    C     0.52215   0.21223   0.09361   0.00000  Uiso   1.00
C68    C     0.47785   0.12111   0.40639   0.00000  Uiso   1.00
C69    C     0.52129   0.21321   0.04652   0.00000  Uiso   1.00
C70    C     0.47871   0.12012   0.45348   0.00000  Uiso   1.00
C71    C     0.49887   0.16788   0.02357   0.00000  Uiso   1.00
C72    C     0.50113   0.16545   0.47643   0.00000  Uiso   1.00
C73    C     0.47382   0.12490   0.04769   0.00000  Uiso   1.00
C74    C     0.48501   0.06861   0.25083   0.00000  Uiso   1.00
C75    C     0.52618   0.20843   0.45231   0.00000  Uiso   1.00
C76    C     0.54248   0.25683   0.02116   0.00000  Uiso   1.00
C77    C     0.45752   0.07651   0.47884   0.00000  Uiso   1.00
C78    C     0.37830   0.08842   0.12368   0.00000  Uiso   1.00
C79    C     0.62170   0.24491   0.37632   0.00000  Uiso   1.00
C80    C     0.55036   0.25338   0.11987   0.00000  Uiso   1.00
C81    C     0.44964   0.07995   0.38013   0.00000  Uiso   1.00
C82    C     0.55918   0.30720   0.03999   0.00000  Uiso   1.00
C83    C     0.44082   0.02613   0.46001   0.00000  Uiso   1.00
C84    C     0.57205   0.00390   0.27937   0.00000  Uiso   1.00
C85    C     0.54567   0.25335   0.47497   0.00000  Uiso   1.00
C86    C     0.42795   0.32943   0.22063   0.00000  Uiso   1.00
C87    C     0.45433   0.07998   0.02503   0.00000  Uiso   1.00
C88    C     0.52187   0.31861   0.25519   0.00000  Uiso   1.00
C89    C     0.47813   0.01472   0.24481   0.00000  Uiso   1.00
C90    C     0.50113   0.16624   0.33624   0.00000  Uiso   1.00
C91    C     0.49887   0.16709   0.16376   0.00000  Uiso   1.00
C92    C     0.46970   0.12717   0.09438   0.00000  Uiso   1.00
H93    H     0.56275   0.28715   0.45686   0.00000  Uiso   1.00
H94    H     0.64006   0.25426   0.40917   0.00000  Uiso   1.00
H95    H     0.64018   0.27362   0.35171   0.00000  Uiso   1.00
H96    H     0.63445   0.20587   0.36479   0.00000  Uiso   1.00
H97    H     0.43725   0.04618   0.04314   0.00000  Uiso   1.00
H98    H     0.33781   0.12659   0.21725   0.00000  Uiso   1.00
H99    H     0.66219   0.20674   0.28275   0.00000  Uiso   1.00
H100   H     0.45533   0.05035   0.11435   0.00000  Uiso   1.00
H101   H     0.35994   0.07907   0.09083   0.00000  Uiso   1.00
H102   H     0.36555   0.12746   0.13521   0.00000  Uiso   1.00
H103   H     0.35982   0.05971   0.14829   0.00000  Uiso   1.00
H104   H     0.54467   0.28298   0.38565   0.00000  Uiso   1.00
N105   N     0.65011   0.15265   0.23783   0.00000  Uiso   1.00
N106   N     0.38811   0.31457   0.20154   0.00000  Uiso   1.00
N107   N     0.34989   0.18068   0.26217   0.00000  Uiso   1.00
N108   N     0.44058   0.08682   0.12028   0.00000  Uiso   1.00
N109   N     0.55942   0.24652   0.37972   0.00000  Uiso   1.00
N110   N     0.57274   0.28572   0.14122   0.00000  Uiso   1.00
N111   N     0.42726   0.04761   0.35878   0.00000  Uiso   1.00
N112   N     0.57253   0.01443   0.05448   0.00000  Uiso   1.00
N113   N     0.42747   0.31891   0.44552   0.00000  Uiso   1.00
N114   N     0.61189   0.01877   0.29846   0.00000  Uiso   1.00
O115   O     0.46308   0.24619   0.25299   0.00000  Uiso   1.00
O116   O     0.53692   0.08714   0.24702   0.00000  Uiso   1.00
O117   O     0.55946   0.23721   0.24519   0.00000  Uiso   1.00
O118   O     0.44054   0.09613   0.25482   0.00000  Uiso   1.00
O119   O     0.45181   0.17117   0.31998   0.00000  Uiso   1.00
O120   O     0.54819   0.16216   0.18003   0.00000  Uiso   1.00
O121   O     0.54819   0.16219   0.31218   0.00000  Uiso   1.00
O122   O     0.45181   0.17115   0.18783   0.00000  Uiso   1.00
Zn123  Zn    0.43565   0.17266   0.25521   0.00000  Uiso   1.00
Zn124  Zn    0.56435   0.16067   0.24479   0.00000  Uiso   1.00
C125   C     0.84832   0.26472   0.24917   0.00000  Uiso   1.00
C126   C     0.86363   0.20616   0.40562   0.00000  Uiso   1.00
C127   C     0.82967   0.16931   0.11628   0.00000  Uiso   1.00
C128   C     0.83699   0.16402   0.38372   0.00000  Uiso   1.00
C129   C     0.85548   0.21223   0.09361   0.00000  Uiso   1.00
C130   C     0.81118   0.12111   0.40639   0.00000  Uiso   1.00
C131   C     0.85462   0.21321   0.04652   0.00000  Uiso   1.00
C132   C     0.81205   0.12012   0.45348   0.00000  Uiso   1.00
C133   C     0.83220   0.16788   0.02357   0.00000  Uiso   1.00
C134   C     0.83447   0.16545   0.47643   0.00000  Uiso   1.00
C135   C     0.80716   0.12490   0.04769   0.00000  Uiso   1.00
C136   C     0.81834   0.06861   0.25083   0.00000  Uiso   1.00
C137   C     0.85951   0.20843   0.45231   0.00000  Uiso   1.00
C138   C     0.87581   0.25683   0.02116   0.00000  Uiso   1.00
C139   C     0.79085   0.07651   0.47884   0.00000  Uiso   1.00
C140   C     0.71164   0.08842   0.12368   0.00000  Uiso   1.00
C141   C     0.95503   0.24491   0.37632   0.00000  Uiso   1.00
C142   C     0.88369   0.25338   0.11987   0.00000  Uiso   1.00
C143   C     0.78297   0.07995   0.38013   0.00000  Uiso   1.00
C144   C     0.89251   0.30720   0.03999   0.00000  Uiso   1.00
C145   C     0.77415   0.02613   0.46001   0.00000  Uiso   1.00
C146   C     0.90538   0.00390   0.27937   0.00000  Uiso   1.00
C147   C     0.87901   0.25335   0.47497   0.00000  Uiso   1.00
C148   C     0.76128   0.32943   0.22063   0.00000  Uiso   1.00
C149   C     0.78766   0.07998   0.02503   0.00000  Uiso   1.00
C150   C     0.85520   0.31861   0.25519   0.00000  Uiso   1.00
C151   C     0.81147   0.01472   0.24481   0.00000  Uiso   1.00
C152   C     0.83446   0.16624   0.33624   0.00000  Uiso   1.00
C153   C     0.83220   0.16709   0.16376   0.00000  Uiso   1.00
C154   C     0.80304   0.12717   0.09438   0.00000  Uiso   1.00
H155   H     0.89609   0.28715   0.45686   0.00000  Uiso   1.00
H156   H     0.97339   0.25426   0.40917   0.00000  Uiso   1.00
H157   H     0.97352   0.27362   0.35171   0.00000  Uiso   1.00
H158   H     0.96779   0.20587   0.36479   0.00000  Uiso   1.00
H159   H     0.77058   0.04618   0.04314   0.00000  Uiso   1.00
H160   H     0.67114   0.12659   0.21725   0.00000  Uiso   1.00
H161   H     0.99553   0.20674   0.28275   0.00000  Uiso   1.00
H162   H     0.78866   0.05035   0.11435   0.00000  Uiso   1.00
H163   H     0.69327   0.07907   0.09083   0.00000  Uiso   1.00
H164   H     0.69888   0.12746   0.13521   0.00000  Uiso   1.00
H165   H     0.69315   0.05971   0.14829   0.00000  Uiso   1.00
H166   H     0.87800   0.28298   0.38565   0.00000  Uiso   1.00
N167   N     0.98344   0.15265   0.23783   0.00000  Uiso   1.00
N168   N     0.72144   0.31457   0.20154   0.00000  Uiso   1.00
N169   N     0.68322   0.18068   0.26217   0.00000  Uiso   1.00
N170   N     0.77391   0.08682   0.12028   0.00000  Uiso   1.00
N171   N     0.89275   0.24652   0.37972   0.00000  Uiso   1.00
N172   N     0.90608   0.28572   0.14122   0.00000  Uiso   1.00
N173   N     0.76059   0.04761   0.35878   0.00000  Uiso   1.00
N174   N     0.90587   0.01443   0.05448   0.00000  Uiso   1.00
N175   N     0.76080   0.31891   0.44552   0.00000  Uiso   1.00
N176   N     0.94522   0.01877   0.29846   0.00000  Uiso   1.00
O177   O     0.79642   0.24619   0.25299   0.00000  Uiso   1.00
O178   O     0.87025   0.08714   0.24702   0.00000  Uiso   1.00
O179   O     0.89280   0.23721   0.24519   0.00000  Uiso   1.00
O180   O     0.77387   0.09613   0.25482   0.00000  Uiso   1.00
O181   O     0.78514   0.17117   0.31998   0.00000  Uiso   1.00
O182   O     0.88153   0.16216   0.18003   0.00000  Uiso   1.00
O183   O     0.88152   0.16219   0.31218   0.00000  Uiso   1.00
O184   O     0.78515   0.17115   0.18783   0.00000  Uiso   1.00
Zn185  Zn    0.76898   0.17266   0.25521   0.00000  Uiso   1.00
Zn186  Zn    0.89769   0.16067   0.24479   0.00000  Uiso   1.00
C187   C     0.18166   0.59805   0.24917   0.00000  Uiso   1.00
C188   C     0.19696   0.53949   0.40562   0.00000  Uiso   1.00
C189   C     0.16301   0.50264   0.11628   0.00000  Uiso   1.00
C190   C     0.17033   0.49736   0.38372   0.00000  Uiso   1.00
C191   C     0.18882   0.54556   0.09361   0.00000  Uiso   1.00
C192   C     0.14452   0.45444   0.40639   0.00000  Uiso   1.00
C193   C     0.18795   0.54654   0.04652   0.00000  Uiso   1.00
C194   C     0.14538   0.45346   0.45348   0.00000  Uiso   1.00
C195   C     0.16553   0.50121   0.02357   0.00000  Uiso   1.00
C196   C     0.16780   0.49879   0.47643   0.00000  Uiso   1.00
C197   C     0.14049   0.45823   0.04769   0.00000  Uiso   1.00
C198   C     0.15168   0.40195   0.25083   0.00000  Uiso   1.00
C199   C     0.19284   0.54177   0.45231   0.00000  Uiso   1.00
C200   C     0.20915   0.59016   0.02116   0.00000  Uiso   1.00
C201   C     0.12419   0.40984   0.47884   0.00000  Uiso   1.00
C202   C     0.04497   0.42176   0.12368   0.00000  Uiso   1.00
C203   C     0.28837   0.57824   0.37632   0.00000  Uiso   1.00
C204   C     0.21703   0.58671   0.11987   0.00000  Uiso   1.00
C205   C     0.11631   0.41329   0.38013   0.00000  Uiso   1.00
C206   C     0.22585   0.64054   0.03999   0.00000  Uiso   1.00
C207   C     0.10749   0.35946   0.46001   0.00000  Uiso   1.00
C208   C     0.23872   0.33723   0.27937   0.00000  Uiso   1.00
C209   C     0.21234   0.58668   0.47497   0.00000  Uiso   1.00
C210   C     0.09462   0.66277   0.22063   0.00000  Uiso   1.00
C211   C     0.12099   0.41332   0.02503   0.00000  Uiso   1.00
C212   C     0.18853   0.65195   0.25519   0.00000  Uiso   1.00
C213   C     0.14480   0.34805   0.24481   0.00000  Uiso   1.00
C214   C     0.16780   0.49958   0.33624   0.00000  Uiso   1.00
C215   C     0.16554   0.50042   0.16376   0.00000  Uiso   1.00
C216   C     0.13637   0.46051   0.09438   0.00000  Uiso   1.00
H217   H     0.22942   0.62049   0.45686   0.00000  Uiso   1.00
H218   H     0.30673   0.58760   0.40917   0.00000  Uiso   1.00
H219   H     0.30685   0.60695   0.35171   0.00000  Uiso   1.00
H220   H     0.30112   0.53921   0.36479   0.00000  Uiso   1.00
H221   H     0.10392   0.37951   0.04314   0.00000  Uiso   1.00
H222   H     0.00447   0.45993   0.21725   0.00000  Uiso   1.00
H223   H     0.32886   0.54007   0.28275   0.00000  Uiso   1.00
H224   H     0.12200   0.38369   0.11435   0.00000  Uiso   1.00
H225   H     0.02661   0.41240   0.09083   0.00000  Uiso   1.00
H226   H     0.03221   0.46079   0.13521   0.00000  Uiso   1.00
H227   H     0.02648   0.39305   0.14829   0.00000  Uiso   1.00
H228   H     0.21134   0.61631   0.38565   0.00000  Uiso   1.00
N229   N     0.31678   0.48598   0.23783   0.00000  Uiso   1.00
N230   N     0.05478   0.64790   0.20154   0.00000  Uiso   1.00
N231   N     0.01656   0.51402   0.26217   0.00000  Uiso   1.00
N232   N     0.10725   0.42015   0.12028   0.00000  Uiso   1.00
N233   N     0.22609   0.57985   0.37972   0.00000  Uiso   1.00
N234   N     0.23941   0.61906   0.14122   0.00000  Uiso   1.00
N235   N     0.09392   0.38094   0.35878   0.00000  Uiso   1.00
N236   N     0.23920   0.34776   0.05448   0.00000  Uiso   1.00
N237   N     0.09413   0.65224   0.44552   0.00000  Uiso   1.00
N238   N     0.27856   0.35210   0.29846   0.00000  Uiso   1.00
O239   O     0.12975   0.57952   0.25299   0.00000  Uiso   1.00
O240   O     0.20358   0.42048   0.24702   0.00000  Uiso   1.00
O241   O     0.22613   0.57054   0.24519   0.00000  Uiso   1.00
O242   O     0.10720   0.42946   0.25482   0.00000  Uiso   1.00
O243   O     0.11847   0.50450   0.31998   0.00000  Uiso   1.00
O244   O     0.21486   0.49550   0.18003   0.00000  Uiso   1.00
O245   O     0.21485   0.49552   0.31218   0.00000  Uiso   1.00
O246   O     0.11848   0.50448   0.18783   0.00000  Uiso   1.00
Zn247  Zn    0.10231   0.50600   0.25521   0.00000  Uiso   1.00
Zn248  Zn    0.23102   0.49400   0.24479   0.00000  Uiso   1.00
C249   C     0.51499   0.59805   0.24917   0.00000  Uiso   1.00
C250   C     0.53030   0.53949   0.40562   0.00000  Uiso   1.00
C251   C     0.49634   0.50264   0.11628   0.00000  Uiso   1.00
C252   C     0.50366   0.49736   0.38372   0.00000  Uiso   1.00
C253   C     0.52215   0.54556   0.09361   0.00000  Uiso   1.00
C254   C     0.47785   0.45444   0.40639   0.00000  Uiso   1.00
C255   C     0.52129   0.54654   0.04652   0.00000  Uiso   1.00
C256   C     0.47871   0.45346   0.45348   0.00000  Uiso   1.00
C257   C     0.49887   0.50121   0.02357   0.00000  Uiso   1.00
C258   C     0.50113   0.49879   0.47643   0.00000  Uiso   1.00
C259   C     0.47382   0.45823   0.04769   0.00000  Uiso   1.00
C260   C     0.48501   0.40195   0.25083   0.00000  Uiso   1.00
C261   C     0.52618   0.54177   0.45231   0.00000  Uiso   1.00
C262   C     0.54248   0.59016   0.02116   0.00000  Uiso   1.00
C263   C     0.45752   0.40984   0.47884   0.00000  Uiso   1.00
C264   C     0.37830   0.42176   0.12368   0.00000  Uiso   1.00
C265   C     0.62170   0.57824   0.37632   0.00000  Uiso   1.00
C266   C     0.55036   0.58671   0.11987   0.00000  Uiso   1.00
C267   C     0.44964   0.41329   0.38013   0.00000  Uiso   1.00
C268   C     0.55918   0.64054   0.03999   0.00000  Uiso   1.00
C269   C     0.44082   0.35946   0.46001   0.00000  Uiso   1.00
C270   C     0.57205   0.33723   0.27937   0.00000  Uiso   1.00
C271   C     0.54567   0.58668   0.47497   0.00000  Uiso   1.00
C272   C     0.42795   0.66277   0.22063   0.00000  Uiso   1.00
C273   C     0.45433   0.41332   0.02503   0.00000  Uiso   1.00
C274   C     0.52187   0.65195   0.25519   0.00000  Uiso   1.00
C275   C     0.47813   0.34805   0.24481   0.00000  Uiso   1.00
C276   C     0.50113   0.49958   0.33624   0.00000  Uiso   1.00
C277   C     0.49887   0.50042   0.16376   0.00000  Uiso   1.00
C278   C     0.46970   0.46051   0.09438   0.00000  Uiso   1.00
H279   H     0.56275   0.62049   0.45686   0.00000  Uiso   1.00
H280   H     0.64006   0.58760   0.40917   0.00000  Uiso   1.00
H281   H     0.64018   0.60695   0.35171   0.00000  Uiso   1.00
H282   H     0.63445   0.53921   0.36479   0.00000  Uiso   1.00
H283   H     0.43725   0.37951   0.04314   0.00000  Uiso   1.00
H284   H     0.33781   0.45993   0.21725   0.00000  Uiso   1.00
H285   H     0.66219   0.54007   0.28275   0.00000  Uiso   1.00
H286   H     0.45533   0.38369   0.11435   0.00000  Uiso   1.00
H287   H     0.35994   0.41240   0.09083   0.00000  Uiso   1.00
H288   H     0.36555   0.46079   0.13521   0.00000  Uiso   1.00
H289   H     0.35982   0.39305   0.14829   0.00000  Uiso   1.00
H290   H     0.54467   0.61631   0.38565   0.00000  Uiso   1.00
N291   N     0.65011   0.48598   0.23783   0.00000  Uiso   1.00
N292   N     0.38811   0.64790   0.20154   0.00000  Uiso   1.00
N293   N     0.34989   0.51402   0.26217   0.00000  Uiso   1.00
N294   N     0.44058   0.42015   0.12028   0.00000  Uiso   1.00
N295   N     0.55942   0.57985   0.37972   0.00000  Uiso   1.00
N296   N     0.57274   0.61906   0.14122   0.00000  Uiso   1.00
N297   N     0.42726   0.38094   0.35878   0.00000  Uiso   1.00
N298   N     0.57253   0.34776   0.05448   0.00000  Uiso   1.00
N299   N     0.42747   0.65224   0.44552   0.00000  Uiso   1.00
N300   N     0.61189   0.35210   0.29846   0.00000  Uiso   1.00
O301   O     0.46308   0.57952   0.25299   0.00000  Uiso   1.00
O302   O     0.53692   0.42048   0.24702   0.00000  Uiso   1.00
O303   O     0.55946   0.57054   0.24519   0.00000  Uiso   1.00
O304   O     0.44054   0.42946   0.25482   0.00000  Uiso   1.00
O305   O     0.45181   0.50450   0.31998   0.00000  Uiso   1.00
O306   O     0.54819   0.49550   0.18003   0.00000  Uiso   1.00
O307   O     0.54819   0.49552   0.31218   0.00000  Uiso   1.00
O308   O     0.45181   0.50448   0.18783   0.00000  Uiso   1.00
Zn309  Zn    0.43565   0.50600   0.25521   0.00000  Uiso   1.00
Zn310  Zn    0.56435   0.49400   0.24479   0.00000  Uiso   1.00
C311   C     0.84832   0.59805   0.24917   0.00000  Uiso   1.00
C312   C     0.86363   0.53949   0.40562   0.00000  Uiso   1.00
C313   C     0.82967   0.50264   0.11628   0.00000  Uiso   1.00
C314   C     0.83699   0.49736   0.38372   0.00000  Uiso   1.00
C315   C     0.85548   0.54556   0.09361   0.00000  Uiso   1.00
C316   C     0.81118   0.45444   0.40639   0.00000  Uiso   1.00
C317   C     0.85462   0.54654   0.04652   0.00000  Uiso   1.00
C318   C     0.81205   0.45346   0.45348   0.00000  Uiso   1.00
C319   C     0.83220   0.50121   0.02357   0.00000  Uiso   1.00
C320   C     0.83447   0.49879   0.47643   0.00000  Uiso   1.00
C321   C     0.80716   0.45823   0.04769   0.00000  Uiso   1.00
C322   C     0.81834   0.40195   0.25083   0.00000  Uiso   1.00
C323   C     0.85951   0.54177   0.45231   0.00000  Uiso   1.00
C324   C     0.87581   0.59016   0.02116   0.00000  Uiso   1.00
C325   C     0.79085   0.40984   0.47884   0.00000  Uiso   1.00
C326   C     0.71164   0.42176   0.12368   0.00000  Uiso   1.00
C327   C     0.95503   0.57824   0.37632   0.00000  Uiso   1.00
C328   C     0.88369   0.58671   0.11987   0.00000  Uiso   1.00
C329   C     0.78297   0.41329   0.38013   0.00000  Uiso   1.00
C330   C     0.89251   0.64054   0.03999   0.00000  Uiso   1.00
C331   C     0.77415   0.35946   0.46001   0.00000  Uiso   1.00
C332   C     0.90538   0.33723   0.27937   0.00000  Uiso   1.00
C333   C     0.87901   0.58668   0.47497   0.00000  Uiso   1.00
C334   C     0.76128   0.66277   0.22063   0.00000  Uiso   1.00
C335   C     0.78766   0.41332   0.02503   0.00000  Uiso   1.00
C336   C     0.85520   0.65195   0.25519   0.00000  Uiso   1.00
C337   C     0.81147   0.34805   0.24481   0.00000  Uiso   1.00
C338   C     0.83446   0.49958   0.33624   0.00000  Uiso   1.00
C339   C     0.83220   0.50042   0.16376   0.00000  Uiso   1.00
C340   C     0.80304   0.46051   0.09438   0.00000  Uiso   1.00
H341   H     0.89609   0.62049   0.45686   0.00000  Uiso   1.00
H342   H     0.97339   0.58760   0.40917   0.00000  Uiso   1.00
H343   H     0.97352   0.60695   0.35171   0.00000  Uiso   1.00
H344   H     0.96779   0.53921   0.36479   0.00000  Uiso   1.00
H345   H     0.77058   0.37951   0.04314   0.00000  Uiso   1.00
H346   H     0.67114   0.45993   0.21725   0.00000  Uiso   1.00
H347   H     0.99553   0.54007   0.28275   0.00000  Uiso   1.00
H348   H     0.78866   0.38369   0.11435   0.00000  Uiso   1.00
H349   H     0.69327   0.41240   0.09083   0.00000  Uiso   1.00
H350   H     0.69888   0.46079   0.13521   0.00000  Uiso   1.00
H351   H     0.69315   0.39305   0.14829   0.00000  Uiso   1.00
H352   H     0.87800   0.61631   0.38565   0.00000  Uiso   1.00
N353   N     0.98344   0.48598   0.23783   0.00000  Uiso   1.00
N354   N     0.72144   0.64790   0.20154   0.00000  Uiso   1.00
N355   N     0.68322   0.51402   0.26217   0.00000  Uiso   1.00
N356   N     0.77391   0.42015   0.12028   0.00000  Uiso   1.00
N357   N     0.89275   0.57985   0.37972   0.00000  Uiso   1.00
N358   N     0.90608   0.61906   0.14122   0.00000  Uiso   1.00
N359   N     0.76059   0.38094   0.35878   0.00000  Uiso   1.00
N360   N     0.90587   0.34776   0.05448   0.00000  Uiso   1.00
N361   N     0.76080   0.65224   0.44552   0.00000  Uiso   1.00
N362   N     0.94522   0.35210   0.29846   0.00000  Uiso   1.00
O363   O     0.79642   0.57952   0.25299   0.00000  Uiso   1.00
O364   O     0.87025   0.42048   0.24702   0.00000  Uiso   1.00
O365   O     0.89280   0.57054   0.24519   0.00000  Uiso   1.00
O366   O     0.77387   0.42946   0.25482   0.00000  Uiso   1.00
O367   O     0.78514   0.50450   0.31998   0.00000  Uiso   1.00
O368   O     0.88153   0.49550   0.18003   0.00000  Uiso   1.00
O369   O     0.88152   0.49552   0.31218   0.00000  Uiso   1.00
O370   O     0.78515   0.50448   0.18783   0.00000  Uiso   1.00
Zn371  Zn    0.76898   0.50600   0.25521   0.00000  Uiso   1.00
Zn372  Zn    0.89769   0.49400   0.24479   0.00000  Uiso   1.00
C373   C     0.18166   0.93139   0.24917   0.00000  Uiso   1.00
C374   C     0.19696   0.87283   0.40562   0.00000  Uiso   1.00
C375   C     0.16301   0.83598   0.11628   0.00000  Uiso   1.00
C376   C     0.17033   0.83069   0.38372   0.00000  Uiso   1.00
C377   C     0.18882   0.87889   0.09361   0.00000  Uiso   1.00
C378   C     0.14452   0.78777   0.40639   0.00000  Uiso   1.00
C379   C     0.18795   0.87988   0.04652   0.00000  Uiso   1.00
C380   C     0.14538   0.78679   0.45348   0.00000  Uiso   1.00
C381   C     0.16553   0.83455   0.02357   0.00000  Uiso   1.00
C382   C     0.16780   0.83212   0.47643   0.00000  Uiso   1.00
C383   C     0.14049   0.79157   0.04769   0.00000  Uiso   1.00
C384   C     0.15168   0.73528   0.25083   0.00000  Uiso   1.00
C385   C     0.19284   0.87510   0.45231   0.00000  Uiso   1.00
C386   C     0.20915   0.92349   0.02116   0.00000  Uiso   1.00
C387   C     0.12419   0.74317   0.47884   0.00000  Uiso   1.00
C388   C     0.04497   0.75509   0.12368   0.00000  Uiso   1.00
C389   C     0.28837   0.91158   0.37632   0.00000  Uiso   1.00
C390   C     0.21703   0.92005   0.11987   0.00000  Uiso   1.00
C391   C     0.11631   0.74662   0.38013   0.00000  Uiso   1.00
C392   C     0.22585   0.97387   0.03999   0.00000  Uiso   1.00
C393   C     0.10749   0.69280   0.46001   0.00000  Uiso   1.00
C394   C     0.23872   0.67057   0.27937   0.00000  Uiso   1.00
C395   C     0.21234   0.92002   0.47497   0.00000  Uiso   1.00
C396   C     0.09462   0.99610   0.22063   0.00000  Uiso   1.00
C397   C     0.12099   0.74665   0.02503   0.00000  Uiso   1.00
C398   C     0.18853   0.98528   0.25519   0.00000  Uiso   1.00
C399   C     0.14480   0.68139   0.24481   0.00000  Uiso   1.00
C400   C     0.16780   0.83291   0.33624   0.00000  Uiso   1.00
C401   C     0.16554   0.83375   0.16376   0.00000  Uiso   1.00
C402   C     0.13637   0.79384   0.09438   0.00000  Uiso   1.00
H403   H     0.22942   0.95382   0.45686   0.00000  Uiso   1.00
H404   H     0.30673   0.92093   0.40917   0.00000  Uiso   1.00
H405   H     0.30685   0.94029   0.35171   0.00000  Uiso   1.00
H406   H     0.30112   0.87254   0.36479   0.00000  Uiso   1.00
H407   H     0.10392   0.71285   0.04314   0.00000  Uiso   1.00
H408   H     0.00447   0.79326   0.21725   0.00000  Uiso   1.00
H409   H     0.32886   0.87341   0.28275   0.00000  Uiso   1.00
H410   H     0.12200   0.71702   0.11435   0.00000  Uiso   1.00
H411   H     0.02661   0.74573   0.09083   0.00000  Uiso   1.00
H412   H     0.03221   0.79413   0.13521   0.00000  Uiso   1.00
H413   H     0.02648   0.72638   0.14829   0.00000  Uiso   1.00
H414   H     0.21134   0.94965   0.38565   0.00000  Uiso   1.00
N415   N     0.31678   0.81932   0.23783   0.00000  Uiso   1.00
N416   N     0.05478   0.98123   0.20154   0.00000  Uiso   1.00
N417   N     0.01656   0.84735   0.26217   0.00000  Uiso   1.00
N418   N     0.10725   0.75348   0.12028   0.00000  Uiso   1.00
N419   N     0.22609   0.91318   0.37972   0.00000  Uiso   1.00
N420   N     0.23941   0.95239   0.14122   0.00000  Uiso   1.00
N421   N     0.09392   0.71428   0.35878   0.00000  Uiso   1.00
N422   N     0.23920   0.68109   0.05448   0.00000  Uiso   1.00
N423   N     0.09413   0.98557   0.44552   0.00000  Uiso   1.00
N424   N     0.27856   0.68543   0.29846   0.00000  Uiso   1.00
O425   O     0.12975   0.91286   0.25299   0.00000  Uiso   1.00
O426   O     0.20358   0.75381   0.24702   0.00000  Uiso   1.00
O427   O     0.22613   0.90387   0.24519   0.00000  Uiso   1.00
O428   O     0.10720   0.76279   0.25482   0.00000  Uiso   1.00
O429   O     0.11847   0.83784   0.31998   0.00000  Uiso   1.00
O430   O     0.21486   0.82883   0.18003   0.00000  Uiso   1.00
O431   O     0.21485   0.82885   0.31218   0.00000  Uiso   1.00
O432   O     0.11848   0.83781   0.18783   0.00000  Uiso   1.00
Zn433  Zn    0.10231   0.83933   0.25521   0.00000  Uiso   1.00
Zn434  Zn    0.23102   0.82734   0.24479   0.00000  Uiso   1.00
C435   C     0.51499   0.93139   0.24917   0.00000  Uiso   1.00
C436   C     0.53030   0.87283   0.40562   0.00000  Uiso   1.00
C437   C     0.49634   0.83598   0.11628   0.00000  Uiso   1.00
C438   C     0.50366   0.83069   0.38372   0.00000  Uiso   1.00
C439   C     0.52215   0.87889   0.09361   0.00000  Uiso   1.00
C440   C     0.47785   0.78777   0.40639   0.00000  Uiso   1.00
C441   C     0.52129   0.87988   0.04652   0.00000  Uiso   1.00
C442   C     0.47871   0.78679   0.45348   0.00000  Uiso   1.00
C443   C     0.49887   0.83455   0.02357   0.00000  Uiso   1.00
C444   C     0.50113   0.83212   0.47643   0.00000  Uiso   1.00
C445   C     0.47382   0.79157   0.04769   0.00000  Uiso   1.00
C446   C     0.48501   0.73528   0.25083   0.00000  Uiso   1.00
C447   C     0.52618   0.87510   0.45231   0.00000  Uiso   1.00
C448   C     0.54248   0.92349   0.02116   0.00000  Uiso   1.00
C449   C     0.45752   0.74317   0.47884   0.00000  Uiso   1.00
C450   C     0.37830   0.75509   0.12368   0.00000  Uiso   1.00
C451   C     0.62170   0.91158   0.37632   0.00000  Uiso   1.00
C452   C     0.55036   0.92005   0.11987   0.00000  Uiso   1.00
C453   C     0.44964   0.74662   0.38013   0.00000  Uiso   1.00
C454   C     0.55918   0.97387   0.03999   0.00000  Uiso   1.00
C455   C     0.44082   0.69280   0.46001   0.00000  Uiso   1.00
C456   C     0.57205   0.67057   0.27937   0.00000  Uiso   1.00
C457   C     0.54567   0.92002   0.47497   0.00000  Uiso   1.00
C458   C     0.42795   0.99610   0.22063   0.00000  Uiso   1.00
C459   C     0.45433   0.74665   0.02503   0.00000  Uiso   1.00
C460   C     0.52187   0.98528   0.25519   0.00000  Uiso   1.00
C461   C     0.47813   0.68139   0.24481   0.00000  Uiso   1.00
C462   C     0.50113   0.83291   0.33624   0.00000  Uiso   1.00
C463   C     0.49887   0.83375   0.16376   0.00000  Uiso   1.00
C464   C     0.46970   0.79384   0.09438   0.00000  Uiso   1.00
H465   H     0.56275   0.95382   0.45686   0.00000  Uiso   1.00
H466   H     0.64006   0.92093   0.40917   0.00000  Uiso   1.00
H467   H     0.64018   0.94029   0.35171   0.00000  Uiso   1.00
H468   H     0.63445   0.87254   0.36479   0.00000  Uiso   1.00
H469   H     0.43725   0.71285   0.04314   0.00000  Uiso   1.00
H470   H     0.33781   0.79326   0.21725   0.00000  Uiso   1.00
H471   H     0.66219   0.87341   0.28275   0.00000  Uiso   1.00
H472   H     0.45533   0.71702   0.11435   0.00000  Uiso   1.00
H473   H     0.35994   0.74573   0.09083   0.00000  Uiso   1.00
H474   H     0.36555   0.79413   0.13521   0.00000  Uiso   1.00
H475   H     0.35982   0.72638   0.14829   0.00000  Uiso   1.00
H476   H     0.54467   0.94965   0.38565   0.00000  Uiso   1.00
N477   N     0.65011   0.81932   0.23783   0.00000  Uiso   1.00
N478   N     0.38811   0.98123   0.20154   0.00000  Uiso   1.00
N479   N     0.34989   0.84735   0.26217   0.00000  Uiso   1.00
N480   N     0.44058   0.75348   0.12028   0.00000  Uiso   1.00
N481   N     0.55942   0.91318   0.37972   0.00000  Uiso   1.00
N482   N     0.57274   0.95239   0.14122   0.00000  Uiso   1.00
N483   N     0.42726   0.71428   0.35878   0.00000  Uiso   1.00
N484   N     0.57253   0.68109   0.05448   0.00000  Uiso   1.00
N485   N     0.42747   0.98557   0.44552   0.00000  Uiso   1.00
N486   N     0.61189   0.68543   0.29846   0.00000  Uiso   1.00
O487   O     0.46308   0.91286   0.25299   0.00000  Uiso   1.00
O488   O     0.53692   0.75381   0.24702   0.00000  Uiso   1.00
O489   O     0.55946   0.90387   0.24519   0.00000  Uiso   1.00
O490   O     0.44054   0.76279   0.25482   0.00000  Uiso   1.00
O491   O     0.45181   0.83784   0.31998   0.00000  Uiso   1.00
O492   O     0.54819   0.82883   0.18003   0.00000  Uiso   1.00
O493   O     0.54819   0.82885   0.31218   0.00000  Uiso   1.00
O494   O     0.45181   0.83781   0.18783   0.00000  Uiso   1.00
Zn495  Zn    0.43565   0.83933   0.25521   0.00000  Uiso   1.00
Zn496  Zn    0.56435   0.82734   0.24479   0.00000  Uiso   1.00
C497   C     0.84832   0.93139   0.24917   0.00000  Uiso   1.00
C498   C     0.86363   0.87283   0.40562   0.00000  Uiso   1.00
C499   C     0.82967   0.83598   0.11628   0.00000  Uiso   1.00
C500   C     0.83699   0.83069   0.38372   0.00000  Uiso   1.00
C501   C     0.85548   0.87889   0.09361   0.00000  Uiso   1.00
C502   C     0.81118   0.78777   0.40639   0.00000  Uiso   1.00
C503   C     0.85462   0.87988   0.04652   0.00000  Uiso   1.00
C504   C     0.81205   0.78679   0.45348   0.00000  Uiso   1.00
C505   C     0.83220   0.83455   0.02357   0.00000  Uiso   1.00
C506   C     0.83447   0.83212   0.47643   0.00000  Uiso   1.00
C507   C     0.80716   0.79157   0.04769   0.00000  Uiso   1.00
C508   C     0.81834   0.73528   0.25083   0.00000  Uiso   1.00
C509   C     0.85951   0.87510   0.45231   0.00000  Uiso   1.00
C510   C     0.87581   0.92349   0.02116   0.00000  Uiso   1.00
C511   C     0.79085   0.74317   0.47884   0.00000  Uiso   1.00
C512   C     0.71164   0.75509   0.12368   0.00000  Uiso   1.00
C513   C     0.95503   0.91158   0.37632   0.00000  Uiso   1.00
C514   C     0.88369   0.92005   0.11987   0.00000  Uiso   1.00
C515   C     0.78297   0.74662   0.38013   0.00000  Uiso   1.00
C516   C     0.89251   0.97387   0.03999   0.00000  Uiso   1.00
C517   C     0.77415   0.69280   0.46001   0.00000  Uiso   1.00
C518   C     0.90538   0.67057   0.27937   0.00000  Uiso   1.00
C519   C     0.87901   0.92002   0.47497   0.00000  Uiso   1.00
C520   C     0.76128   0.99610   0.22063   0.00000  Uiso   1.00
C521   C     0.78766   0.74665   0.02503   0.00000  Uiso   1.00
C522   C     0.85520   0.98528   0.25519   0.00000  Uiso   1.00
C523   C     0.81147   0.68139   0.24481   0.00000  Uiso   1.00
C524   C     0.83446   0.83291   0.33624   0.00000  Uiso   1.00
C525   C     0.83220   0.83375   0.16376   0.00000  Uiso   1.00
C526   C     0.80304   0.79384   0.09438   0.00000  Uiso   1.00
H527   H     0.89609   0.95382   0.45686   0.00000  Uiso   1.00
H528   H     0.97339   0.92093   0.40917   0.00000  Uiso   1.00
H529   H     0.97352   0.94029   0.35171   0.00000  Uiso   1.00
H530   H     0.96779   0.87254   0.36479   0.00000  Uiso   1.00
H531   H     0.77058   0.71285   0.04314   0.00000  Uiso   1.00
H532   H     0.67114   0.79326   0.21725   0.00000  Uiso   1.00
H533   H     0.99553   0.87341   0.28275   0.00000  Uiso   1.00
H534   H     0.78866   0.71702   0.11435   0.00000  Uiso   1.00
H535   H     0.69327   0.74573   0.09083   0.00000  Uiso   1.00
H536   H     0.69888   0.79413   0.13521   0.00000  Uiso   1.00
H537   H     0.69315   0.72638   0.14829   0.00000  Uiso   1.00
H538   H     0.87800   0.94965   0.38565   0.00000  Uiso   1.00
N539   N     0.98344   0.81932   0.23783   0.00000  Uiso   1.00
N540   N     0.72144   0.98123   0.20154   0.00000  Uiso   1.00
N541   N     0.68322   0.84735   0.26217   0.00000  Uiso   1.00
N542   N     0.77391   0.75348   0.12028   0.00000  Uiso   1.00
N543   N     0.89275   0.91318   0.37972   0.00000  Uiso   1.00
N544   N     0.90608   0.95239   0.14122   0.00000  Uiso   1.00
N545   N     0.76059   0.71428   0.35878   0.00000  Uiso   1.00
N546   N     0.90587   0.68109   0.05448   0.00000  Uiso   1.00
N547   N     0.76080   0.98557   0.44552   0.00000  Uiso   1.00
N548   N     0.94522   0.68543   0.29846   0.00000  Uiso   1.00
O549   O     0.79642   0.91286   0.25299   0.00000  Uiso   1.00
O550   O     0.87025   0.75381   0.24702   0.00000  Uiso   1.00
O551   O     0.89280   0.90387   0.24519   0.00000  Uiso   1.00
O552   O     0.77387   0.76279   0.25482   0.00000  Uiso   1.00
O553   O     0.78514   0.83784   0.31998   0.00000  Uiso   1.00
O554   O     0.88153   0.82883   0.18003   0.00000  Uiso   1.00
O555   O     0.88152   0.82885   0.31218   0.00000  Uiso   1.00
O556   O     0.78515   0.83781   0.18783   0.00000  Uiso   1.00
Zn557  Zn    0.76898   0.83933   0.25521   0.00000  Uiso   1.00
Zn558  Zn    0.89769   0.82734   0.24479   0.00000  Uiso   1.00
C559   C     0.18166   0.26472   0.74917   0.00000  Uiso   1.00
C560   C     0.19696   0.20616   0.90562   0.00000  Uiso   1.00
C561   C     0.16301   0.16931   0.61628   0.00000  Uiso   1.00
C562   C     0.17033   0.16402   0.88372   0.00000  Uiso   1.00
C563   C     0.18882   0.21223   0.59361   0.00000  Uiso   1.00
C564   C     0.14452   0.12111   0.90639   0.00000  Uiso   1.00
C565   C     0.18795   0.21321   0.54652   0.00000  Uiso   1.00
C566   C     0.14538   0.12012   0.95348   0.00000  Uiso   1.00
C567   C     0.16553   0.16788   0.52357   0.00000  Uiso   1.00
C568   C     0.16780   0.16545   0.97643   0.00000  Uiso   1.00
C569   C     0.14049   0.12490   0.54769   0.00000  Uiso   1.00
C570   C     0.15168   0.06861   0.75083   0.00000  Uiso   1.00
C571   C     0.19284   0.20843   0.95231   0.00000  Uiso   1.00
C572   C     0.20915   0.25683   0.52116   0.00000  Uiso   1.00
C573   C     0.12419   0.07651   0.97884   0.00000  Uiso   1.00
C574   C     0.04497   0.08842   0.62368   0.00000  Uiso   1.00
C575   C     0.28837   0.24491   0.87632   0.00000  Uiso   1.00
C576   C     0.21703   0.25338   0.61987   0.00000  Uiso   1.00
C577   C     0.11631   0.07995   0.88013   0.00000  Uiso   1.00
C578   C     0.22585   0.30720   0.53999   0.00000  Uiso   1.00
C579   C     0.10749   0.02613   0.96001   0.00000  Uiso   1.00
C580   C     0.23872   0.00390   0.77937   0.00000  Uiso   1.00
C581   C     0.21234   0.25335   0.97497   0.00000  Uiso   1.00
C582   C     0.09462   0.32943   0.72063   0.00000  Uiso   1.00
C583   C     0.12099   0.07998   0.52503   0.00000  Uiso   1.00
C584   C     0.18853   0.31861   0.75519   0.00000  Uiso   1.00
C585   C     0.14480   0.01472   0.74481   0.00000  Uiso   1.00
C586   C     0.16780   0.16624   0.83624   0.00000  Uiso   1.00
C587   C     0.16554   0.16709   0.66376   0.00000  Uiso   1.00
C588   C     0.13637   0.12717   0.59438   0.00000  Uiso   1.00
H589   H     0.22942   0.28715   0.95686   0.00000  Uiso   1.00
H590   H     0.30673   0.25426   0.90917   0.00000  Uiso   1.00
H591   H     0.30685   0.27362   0.85171   0.00000  Uiso   1.00
H592   H     0.30112   0.20587   0.86479   0.00000  Uiso   1.00
H593   H     0.10392   0.04618   0.54314   0.00000  Uiso   1.00
H594   H     0.00447   0.12659   0.71725   0.00000  Uiso   1.00
H595   H     0.32886   0.20674   0.78275   0.00000  Uiso   1.00
H596   H     0.12200   0.05035   0.61435   0.00000  Uiso   1.00
H597   H     0.02661   0.07907   0.59083   0.00000  Uiso   1.00
H598   H     0.03221   0.12746   0.63521   0.00000  Uiso   1.00
H599   H     0.02648   0.05971   0.64829   0.00000  Uiso   1.00
H600   H     0.21134   0.28298   0.88565   0.00000  Uiso   1.00
N601   N     0.31678   0.15265   0.73783   0.00000  Uiso   1.00
N602   N     0.05478   0.31457   0.70154   0.00000  Uiso   1.00
N603   N     0.01656   0.18068   0.76217   0.00000  Uiso   1.00
N604   N     0.10725   0.08682   0.62028   0.00000  Uiso   1.00
N605   N     0.22609   0.24652   0.87972   0.00000  Uiso   1.00
N606   N     0.23941   0.28572   0.64122   0.00000  Uiso   1.00
N607   N     0.09392   0.04761   0.85878   0.00000  Uiso   1.00
N608   N     0.23920   0.01443   0.55448   0.00000  Uiso   1.00
N609   N     0.09413   0.31891   0.94552   0.00000  Uiso   1.00
N610   N     0.27856   0.01877   0.79846   0.00000  Uiso   1.00
O611   O     0.12975   0.24619   0.75299   0.00000  Uiso   1.00
O612   O     0.20358   0.08714   0.74702   0.00000  Uiso   1.00
O613   O     0.22613   0.23721   0.74519   0.00000  Uiso   1.00
O614   O     0.10720   0.09613   0.75482   0.00000  Uiso   1.00
O615   O     0.11847   0.17117   0.81998   0.00000  Uiso   1.00
O616   O     0.21486   0.16216   0.68003   0.00000  Uiso   1.00
O617   O     0.21485   0.16219   0.81218   0.00000  Uiso   1.00
O618   O     0.11848   0.17115   0.68783   0.00000  Uiso   1.00
Zn619  Zn    0.10231   0.17266   0.75521   0.00000  Uiso   1.00
Zn620  Zn    0.23102   0.16067   0.74479   0.00000  Uiso   1.00
C621   C     0.51499   0.26472   0.74917   0.00000  Uiso   1.00
C622   C     0.53030   0.20616   0.90562   0.00000  Uiso   1.00
C623   C     0.49634   0.16931   0.61628   0.00000  Uiso   1.00
C624   C     0.50366   0.16402   0.88372   0.00000  Uiso   1.00
C625   C     0.52215   0.21223   0.59361   0.00000  Uiso   1.00
C626   C     0.47785   0.12111   0.90639   0.00000  Uiso   1.00
C627   C     0.52129   0.21321   0.54652   0.00000  Uiso   1.00
C628   C     0.47871   0.12012   0.95348   0.00000  Uiso   1.00
C629   C     0.49887   0.16788   0.52357   0.00000  Uiso   1.00
C630   C     0.50113   0.16545   0.97643   0.00000  Uiso   1.00
C631   C     0.47382   0.12490   0.54769   0.00000  Uiso   1.00
C632   C     0.48501   0.06861   0.75083   0.00000  Uiso   1.00
C633   C     0.52618   0.20843   0.95231   0.00000  Uiso   1.00
C634   C     0.54248   0.25683   0.52116   0.00000  Uiso   1.00
C635   C     0.45752   0.07651   0.97884   0.00000  Uiso   1.00
C636   C     0.37830   0.08842   0.62368   0.00000  Uiso   1.00
C637   C     0.62170   0.24491   0.87632   0.00000  Uiso   1.00
C638   C     0.55036   0.25338   0.61987   0.00000  Uiso   1.00
C639   C     0.44964   0.07995   0.88013   0.00000  Uiso   1.00
C640   C     0.55918   0.30720   0.53999   0.00000  Uiso   1.00
C641   C     0.44082   0.02613   0.96001   0.00000  Uiso   1.00
C642   C     0.57205   0.00390   0.77937   0.00000  Uiso   1.00
C643   C     0.54567   0.25335   0.97497   0.00000  Uiso   1.00
C644   C     0.42795   0.32943   0.72063   0.00000  Uiso   1.00
C645   C     0.45433   0.07998   0.52503   0.00000  Uiso   1.00
C646   C     0.52187   0.31861   0.75519   0.00000  Uiso   1.00
C647   C     0.47813   0.01472   0.74481   0.00000  Uiso   1.00
C648   C     0.50113   0.16624   0.83624   0.00000  Uiso   1.00
C649   C     0.49887   0.16709   0.66376   0.00000  Uiso   1.00
C650   C     0.46970   0.12717   0.59438   0.00000  Uiso   1.00
H651   H     0.56275   0.28715   0.95686   0.00000  Uiso   1.00
H652   H     0.64006   0.25426   0.90917   0.00000  Uiso   1.00
H653   H     0.64018   0.27362   0.85171   0.00000  Uiso   1.00
H654   H     0.63445   0.20587   0.86479   0.00000  Uiso   1.00
H655   H     0.43725   0.04618   0.54314   0.00000  Uiso   1.00
H656   H     0.33781   0.12659   0.71725   0.00000  Uiso   1.00
H657   H     0.66219   0.20674   0.78275   0.00000  Uiso   1.00
H658   H     0.45533   0.05035   0.61435   0.00000  Uiso   1.00
H659   H     0.35994   0.07907   0.59083   0.00000  Uiso   1.00
H660   H     0.36555   0.12746   0.63521   0.00000  Uiso   1.00
H661   H     0.35982   0.05971   0.64829   0.00000  Uiso   1.00
H662   H     0.54467   0.28298   0.88565   0.00000  Uiso   1.00
N663   N     0.65011   0.15265   0.73783   0.00000  Uiso   1.00
N664   N     0.38811   0.31457   0.70154   0.00000  Uiso   1.00
N665   N     0.34989   0.18068   0.76217   0.00000  Uiso   1.00
N666   N     0.44058   0.08682   0.62028   0.00000  Uiso   1.00
N667   N     0.55942   0.24652   0.87972   0.00000  Uiso   1.00
N668   N     0.57274   0.28572   0.64122   0.00000  Uiso   1.00
N669   N     0.42726   0.04761   0.85878   0.00000  Uiso   1.00
N670   N     0.57253   0.01443   0.55448   0.00000  Uiso   1.00
N671   N     0.42747   0.31891   0.94552   0.00000  Uiso   1.00
N672   N     0.61189   0.01877   0.79846   0.00000  Uiso   1.00
O673   O     0.46308   0.24619   0.75299   0.00000  Uiso   1.00
O674   O     0.53692   0.08714   0.74702   0.00000  Uiso   1.00
O675   O     0.55946   0.23721   0.74519   0.00000  Uiso   1.00
O676   O     0.44054   0.09613   0.75482   0.00000  Uiso   1.00
O677   O     0.45181   0.17117   0.81998   0.00000  Uiso   1.00
O678   O     0.54819   0.16216   0.68003   0.00000  Uiso   1.00
O679   O     0.54819   0.16219   0.81218   0.00000  Uiso   1.00
O680   O     0.45181   0.17115   0.68783   0.00000  Uiso   1.00
Zn681  Zn    0.43565   0.17266   0.75521   0.00000  Uiso   1.00
Zn682  Zn    0.56435   0.16067   0.74479   0.00000  Uiso   1.00
C683   C     0.84832   0.26472   0.74917   0.00000  Uiso   1.00
C684   C     0.86363   0.20616   0.90562   0.00000  Uiso   1.00
C685   C     0.82967   0.16931   0.61628   0.00000  Uiso   1.00
C686   C     0.83699   0.16402   0.88372   0.00000  Uiso   1.00
C687   C     0.85548   0.21223   0.59361   0.00000  Uiso   1.00
C688   C     0.81118   0.12111   0.90639   0.00000  Uiso   1.00
C689   C     0.85462   0.21321   0.54652   0.00000  Uiso   1.00
C690   C     0.81205   0.12012   0.95348   0.00000  Uiso   1.00
C691   C     0.83220   0.16788   0.52357   0.00000  Uiso   1.00
C692   C     0.83447   0.16545   0.97643   0.00000  Uiso   1.00
C693   C     0.80716   0.12490   0.54769   0.00000  Uiso   1.00
C694   C     0.81834   0.06861   0.75083   0.00000  Uiso   1.00
C695   C     0.85951   0.20843   0.95231   0.00000  Uiso   1.00
C696   C     0.87581   0.25683   0.52116   0.00000  Uiso   1.00
C697   C     0.79085   0.07651   0.97884   0.00000  Uiso   1.00
C698   C     0.71164   0.08842   0.62368   0.00000  Uiso   1.00
C699   C     0.95503   0.24491   0.87632   0.00000  Uiso   1.00
C700   C     0.88369   0.25338   0.61987   0.00000  Uiso   1.00
C701   C     0.78297   0.07995   0.88013   0.00000  Uiso   1.00
C702   C     0.89251   0.30720   0.53999   0.00000  Uiso   1.00
C703   C     0.77415   0.02613   0.96001   0.00000  Uiso   1.00
C704   C     0.90538   0.00390   0.77937   0.00000  Uiso   1.00
C705   C     0.87901   0.25335   0.97497   0.00000  Uiso   1.00
C706   C     0.76128   0.32943   0.72063   0.00000  Uiso   1.00
C707   C     0.78766   0.07998   0.52503   0.00000  Uiso   1.00
C708   C     0.85520   0.31861   0.75519   0.00000  Uiso   1.00
C709   C     0.81147   0.01472   0.74481   0.00000  Uiso   1.00
C710   C     0.83446   0.16624   0.83624   0.00000  Uiso   1.00
C711   C     0.83220   0.16709   0.66376   0.00000  Uiso   1.00
C712   C     0.80304   0.12717   0.59438   0.00000  Uiso   1.00
H713   H     0.89609   0.28715   0.95686   0.00000  Uiso   1.00
H714   H     0.97339   0.25426   0.90917   0.00000  Uiso   1.00
H715   H     0.97352   0.27362   0.85171   0.00000  Uiso   1.00
H716   H     0.96779   0.20587   0.86479   0.00000  Uiso   1.00
H717   H     0.77058   0.04618   0.54314   0.00000  Uiso   1.00
H718   H     0.67114   0.12659   0.71725   0.00000  Uiso   1.00
H719   H     0.99553   0.20674   0.78275   0.00000  Uiso   1.00
H720   H     0.78866   0.05035   0.61435   0.00000  Uiso   1.00
H721   H     0.69327   0.07907   0.59083   0.00000  Uiso   1.00
H722   H     0.69888   0.12746   0.63521   0.00000  Uiso   1.00
H723   H     0.69315   0.05971   0.64829   0.00000  Uiso   1.00
H724   H     0.87800   0.28298   0.88565   0.00000  Uiso   1.00
N725   N     0.98344   0.15265   0.73783   0.00000  Uiso   1.00
N726   N     0.72144   0.31457   0.70154   0.00000  Uiso   1.00
N727   N     0.68322   0.18068   0.76217   0.00000  Uiso   1.00
N728   N     0.77391   0.08682   0.62028   0.00000  Uiso   1.00
N729   N     0.89275   0.24652   0.87972   0.00000  Uiso   1.00
N730   N     0.90608   0.28572   0.64122   0.00000  Uiso   1.00
N731   N     0.76059   0.04761   0.85878   0.00000  Uiso   1.00
N732   N     0.90587   0.01443   0.55448   0.00000  Uiso   1.00
N733   N     0.76080   0.31891   0.94552   0.00000  Uiso   1.00
N734   N     0.94522   0.01877   0.79846   0.00000  Uiso   1.00
O735   O     0.79642   0.24619   0.75299   0.00000  Uiso   1.00
O736   O     0.87025   0.08714   0.74702   0.00000  Uiso   1.00
O737   O     0.89280   0.23721   0.74519   0.00000  Uiso   1.00
O738   O     0.77387   0.09613   0.75482   0.00000  Uiso   1.00
O739   O     0.78514   0.17117   0.81998   0.00000  Uiso   1.00
O740   O     0.88153   0.16216   0.68003   0.00000  Uiso   1.00
O741   O     0.88152   0.16219   0.81218   0.00000  Uiso   1.00
O742   O     0.78515   0.17115   0.68783   0.00000  Uiso   1.00
Zn743  Zn    0.76898   0.17266   0.75521   0.00000  Uiso   1.00
Zn744  Zn    0.89769   0.16067   0.74479   0.00000  Uiso   1.00
C745   C     0.18166   0.59805   0.74917   0.00000  Uiso   1.00
C746   C     0.19696   0.53949   0.90562   0.00000  Uiso   1.00
C747   C     0.16301   0.50264   0.61628   0.00000  Uiso   1.00
C748   C     0.17033   0.49736   0.88372   0.00000  Uiso   1.00
C749   C     0.18882   0.54556   0.59361   0.00000  Uiso   1.00
C750   C     0.14452   0.45444   0.90639   0.00000  Uiso   1.00
C751   C     0.18795   0.54654   0.54652   0.00000  Uiso   1.00
C752   C     0.14538   0.45346   0.95348   0.00000  Uiso   1.00
C753   C     0.16553   0.50121   0.52357   0.00000  Uiso   1.00
C754   C     0.16780   0.49879   0.97643   0.00000  Uiso   1.00
C755   C     0.14049   0.45823   0.54769   0.00000  Uiso   1.00
C756   C     0.15168   0.40195   0.75083   0.00000  Uiso   1.00
C757   C     0.19284   0.54177   0.95231   0.00000  Uiso   1.00
C758   C     0.20915   0.59016   0.52116   0.00000  Uiso   1.00
C759   C     0.12419   0.40984   0.97884   0.00000  Uiso   1.00
C760   C     0.04497   0.42176   0.62368   0.00000  Uiso   1.00
C761   C     0.28837   0.57824   0.87632   0.00000  Uiso   1.00
C762   C     0.21703   0.58671   0.61987   0.00000  Uiso   1.00
C763   C     0.11631   0.41329   0.88013   0.00000  Uiso   1.00
C764   C     0.22585   0.64054   0.53999   0.00000  Uiso   1.00
C765   C     0.10749   0.35946   0.96001   0.00000  Uiso   1.00
C766   C     0.23872   0.33723   0.77937   0.00000  Uiso   1.00
C767   C     0.21234   0.58668   0.97497   0.00000  Uiso   1.00
C768   C     0.09462   0.66277   0.72063   0.00000  Uiso   1.00
C769   C     0.12099   0.41332   0.52503   0.00000  Uiso   1.00
C770   C     0.18853   0.65195   0.75519   0.00000  Uiso   1.00
C771   C     0.14480   0.34805   0.74481   0.00000  Uiso   1.00
C772   C     0.16780   0.49958   0.83624   0.00000  Uiso   1.00
C773   C     0.16554   0.50042   0.66376   0.00000  Uiso   1.00
C774   C     0.13637   0.46051   0.59438   0.00000  Uiso   1.00
H775   H     0.22942   0.62049   0.95686   0.00000  Uiso   1.00
H776   H     0.30673   0.58760   0.90917   0.00000  Uiso   1.00
H777   H     0.30685   0.60695   0.85171   0.00000  Uiso   1.00
H778   H     0.30112   0.53921   0.86479   0.00000  Uiso   1.00
H779   H     0.10392   0.37951   0.54314   0.00000  Uiso   1.00
H780   H     0.00447   0.45993   0.71725   0.00000  Uiso   1.00
H781   H     0.32886   0.54007   0.78275   0.00000  Uiso   1.00
H782   H     0.12200   0.38369   0.61435   0.00000  Uiso   1.00
H783   H     0.02661   0.41240   0.59083   0.00000  Uiso   1.00
H784   H     0.03221   0.46079   0.63521   0.00000  Uiso   1.00
H785   H     0.02648   0.39305   0.64829   0.00000  Uiso   1.00
H786   H     0.21134   0.61631   0.88565   0.00000  Uiso   1.00
N787   N     0.31678   0.48598   0.73783   0.00000  Uiso   1.00
N788   N     0.05478   0.64790   0.70154   0.00000  Uiso   1.00
N789   N     0.01656   0.51402   0.76217   0.00000  Uiso   1.00
N790   N     0.10725   0.42015   0.62028   0.00000  Uiso   1.00
N791   N     0.22609   0.57985   0.87972   0.00000  Uiso   1.00
N792   N     0.23941   0.61906   0.64122   0.00000  Uiso   1.00
N793   N     0.09392   0.38094   0.85878   0.00000  Uiso   1.00
N794   N     0.23920   0.34776   0.55448   0.00000  Uiso   1.00
N795   N     0.09413   0.65224   0.94552   0.00000  Uiso   1.00
N796   N     0.27856   0.35210   0.79846   0.00000  Uiso   1.00
O797   O     0.12975   0.57952   0.75299   0.00000  Uiso   1.00
O798   O     0.20358   0.42048   0.74702   0.00000  Uiso   1.00
O799   O     0.22613   0.57054   0.74519   0.00000  Uiso   1.00
O800   O     0.10720   0.42946   0.75482   0.00000  Uiso   1.00
O801   O     0.11847   0.50450   0.81998   0.00000  Uiso   1.00
O802   O     0.21486   0.49550   0.68003   0.00000  Uiso   1.00
O803   O     0.21485   0.49552   0.81218   0.00000  Uiso   1.00
O804   O     0.11848   0.50448   0.68783   0.00000  Uiso   1.00
Zn805  Zn    0.10231   0.50600   0.75521   0.00000  Uiso   1.00
Zn806  Zn    0.23102   0.49400   0.74479   0.00000  Uiso   1.00
C807   C     0.51499   0.59805   0.74917   0.00000  Uiso   1.00
C808   C     0.53030   0.53949   0.90562   0.00000  Uiso   1.00
C809   C     0.49634   0.50264   0.61628   0.00000  Uiso   1.00
C810   C     0.50366   0.49736   0.88372   0.00000  Uiso   1.00
C811   C     0.52215   0.54556   0.59361   0.00000  Uiso   1.00
C812   C     0.47785   0.45444   0.90639   0.00000  Uiso   1.00
C813   C     0.52129   0.54654   0.54652   0.00000  Uiso   1.00
C814   C     0.47871   0.45346   0.95348   0.00000  Uiso   1.00
C815   C     0.49887   0.50121   0.52357   0.00000  Uiso   1.00
C816   C     0.50113   0.49879   0.97643   0.00000  Uiso   1.00
C817   C     0.47382   0.45823   0.54769   0.00000  Uiso   1.00
C818   C     0.48501   0.40195   0.75083   0.00000  Uiso   1.00
C819   C     0.52618   0.54177   0.95231   0.00000  Uiso   1.00
C820   C     0.54248   0.59016   0.52116   0.00000  Uiso   1.00
C821   C     0.45752   0.40984   0.97884   0.00000  Uiso   1.00
C822   C     0.37830   0.42176   0.62368   0.00000  Uiso   1.00
C823   C     0.62170   0.57824   0.87632   0.00000  Uiso   1.00
C824   C     0.55036   0.58671   0.61987   0.00000  Uiso   1.00
C825   C     0.44964   0.41329   0.88013   0.00000  Uiso   1.00
C826   C     0.55918   0.64054   0.53999   0.00000  Uiso   1.00
C827   C     0.44082   0.35946   0.96001   0.00000  Uiso   1.00
C828   C     0.57205   0.33723   0.77937   0.00000  Uiso   1.00
C829   C     0.54567   0.58668   0.97497   0.00000  Uiso   1.00
C830   C     0.42795   0.66277   0.72063   0.00000  Uiso   1.00
C831   C     0.45433   0.41332   0.52503   0.00000  Uiso   1.00
C832   C     0.52187   0.65195   0.75519   0.00000  Uiso   1.00
C833   C     0.47813   0.34805   0.74481   0.00000  Uiso   1.00
C834   C     0.50113   0.49958   0.83624   0.00000  Uiso   1.00
C835   C     0.49887   0.50042   0.66376   0.00000  Uiso   1.00
C836   C     0.46970   0.46051   0.59438   0.00000  Uiso   1.00
H837   H     0.56275   0.62049   0.95686   0.00000  Uiso   1.00
H838   H     0.64006   0.58760   0.90917   0.00000  Uiso   1.00
H839   H     0.64018   0.60695   0.85171   0.00000  Uiso   1.00
H840   H     0.63445   0.53921   0.86479   0.00000  Uiso   1.00
H841   H     0.43725   0.37951   0.54314   0.00000  Uiso   1.00
H842   H     0.33781   0.45993   0.71725   0.00000  Uiso   1.00
H843   H     0.66219   0.54007   0.78275   0.00000  Uiso   1.00
H844   H     0.45533   0.38369   0.61435   0.00000  Uiso   1.00
H845   H     0.35994   0.41240   0.59083   0.00000  Uiso   1.00
H846   H     0.36555   0.46079   0.63521   0.00000  Uiso   1.00
H847   H     0.35982   0.39305   0.64829   0.00000  Uiso   1.00
H848   H     0.54467   0.61631   0.88565   0.00000  Uiso   1.00
N849   N     0.65011   0.48598   0.73783   0.00000  Uiso   1.00
N850   N     0.38811   0.64790   0.70154   0.00000  Uiso   1.00
N851   N     0.34989   0.51402   0.76217   0.00000  Uiso   1.00
N852   N     0.44058   0.42015   0.62028   0.00000  Uiso   1.00
N853   N     0.55942   0.57985   0.87972   0.00000  Uiso   1.00
N854   N     0.57274   0.61906   0.64122   0.00000  Uiso   1.00
N855   N     0.42726   0.38094   0.85878   0.00000  Uiso   1.00
N856   N     0.57253   0.34776   0.55448   0.00000  Uiso   1.00
N857   N     0.42747   0.65224   0.94552   0.00000  Uiso   1.00
N858   N     0.61189   0.35210   0.79846   0.00000  Uiso   1.00
O859   O     0.46308   0.57952   0.75299   0.00000  Uiso   1.00
O860   O     0.53692   0.42048   0.74702   0.00000  Uiso   1.00
O861   O     0.55946   0.57054   0.74519   0.00000  Uiso   1.00
O862   O     0.44054   0.42946   0.75482   0.00000  Uiso   1.00
O863   O     0.45181   0.50450   0.81998   0.00000  Uiso   1.00
O864   O     0.54819   0.49550   0.68003   0.00000  Uiso   1.00
O865   O     0.54819   0.49552   0.81218   0.00000  Uiso   1.00
O866   O     0.45181   0.50448   0.68783   0.00000  Uiso   1.00
Zn867  Zn    0.43565   0.50600   0.75521   0.00000  Uiso   1.00
Zn868  Zn    0.56435   0.49400   0.74479   0.00000  Uiso   1.00
C869   C     0.84832   0.59805   0.74917   0.00000  Uiso   1.00
C870   C     0.86363   0.53949   0.90562   0.00000  Uiso   1.00
C871   C     0.82967   0.50264   0.61628   0.00000  Uiso   1.00
C872   C     0.83699   0.49736   0.88372   0.00000  Uiso   1.00
C873   C     0.85548   0.54556   0.59361   0.00000  Uiso   1.00
C874   C     0.81118   0.45444   0.90639   0.00000  Uiso   1.00
C875   C     0.85462   0.54654   0.54652   0.00000  Uiso   1.00
C876   C     0.81205   0.45346   0.95348   0.00000  Uiso   1.00
C877   C     0.83220   0.50121   0.52357   0.00000  Uiso   1.00
C878   C     0.83447   0.49879   0.97643   0.00000  Uiso   1.00
C879   C     0.80716   0.45823   0.54769   0.00000  Uiso   1.00
C880   C     0.81834   0.40195   0.75083   0.00000  Uiso   1.00
C881   C     0.85951   0.54177   0.95231   0.00000  Uiso   1.00
C882   C     0.87581   0.59016   0.52116   0.00000  Uiso   1.00
C883   C     0.79085   0.40984   0.97884   0.00000  Uiso   1.00
C884   C     0.71164   0.42176   0.62368   0.00000  Uiso   1.00
C885   C     0.95503   0.57824   0.87632   0.00000  Uiso   1.00
C886   C     0.88369   0.58671   0.61987   0.00000  Uiso   1.00
C887   C     0.78297   0.41329   0.88013   0.00000  Uiso   1.00
C888   C     0.89251   0.64054   0.53999   0.00000  Uiso   1.00
C889   C     0.77415   0.35946   0.96001   0.00000  Uiso   1.00
C890   C     0.90538   0.33723   0.77937   0.00000  Uiso   1.00
C891   C     0.87901   0.58668   0.97497   0.00000  Uiso   1.00
C892   C     0.76128   0.66277   0.72063   0.00000  Uiso   1.00
C893   C     0.78766   0.41332   0.52503   0.00000  Uiso   1.00
C894   C     0.85520   0.65195   0.75519   0.00000  Uiso   1.00
C895   C     0.81147   0.34805   0.74481   0.00000  Uiso   1.00
C896   C     0.83446   0.49958   0.83624   0.00000  Uiso   1.00
C897   C     0.83220   0.50042   0.66376   0.00000  Uiso   1.00
C898   C     0.80304   0.46051   0.59438   0.00000  Uiso   1.00
H899   H     0.89609   0.62049   0.95686   0.00000  Uiso   1.00
H900   H     0.97339   0.58760   0.90917   0.00000  Uiso   1.00
H901   H     0.97352   0.60695   0.85171   0.00000  Uiso   1.00
H902   H     0.96779   0.53921   0.86479   0.00000  Uiso   1.00
H903   H     0.77058   0.37951   0.54314   0.00000  Uiso   1.00
H904   H     0.67114   0.45993   0.71725   0.00000  Uiso   1.00
H905   H     0.99553   0.54007   0.78275   0.00000  Uiso   1.00
H906   H     0.78866   0.38369   0.61435   0.00000  Uiso   1.00
H907   H     0.69327   0.41240   0.59083   0.00000  Uiso   1.00
H908   H     0.69888   0.46079   0.63521   0.00000  Uiso   1.00
H909   H     0.69315   0.39305   0.64829   0.00000  Uiso   1.00
H910   H     0.87800   0.61631   0.88565   0.00000  Uiso   1.00
N911   N     0.98344   0.48598   0.73783   0.00000  Uiso   1.00
N912   N     0.72144   0.64790   0.70154   0.00000  Uiso   1.00
N913   N     0.68322   0.51402   0.76217   0.00000  Uiso   1.00
N914   N     0.77391   0.42015   0.62028   0.00000  Uiso   1.00
N915   N     0.89275   0.57985   0.87972   0.00000  Uiso   1.00
N916   N     0.90608   0.61906   0.64122   0.00000  Uiso   1.00
N917   N     0.76059   0.38094   0.85878   0.00000  Uiso   1.00
N918   N     0.90587   0.34776   0.55448   0.00000  Uiso   1.00
N919   N     0.76080   0.65224   0.94552   0.00000  Uiso   1.00
N920   N     0.94522   0.35210   0.79846   0.00000  Uiso   1.00
O921   O     0.79642   0.57952   0.75299   0.00000  Uiso   1.00
O922   O     0.87025   0.42048   0.74702   0.00000  Uiso   1.00
O923   O     0.89280   0.57054   0.74519   0.00000  Uiso   1.00
O924   O     0.77387   0.42946   0.75482   0.00000  Uiso   1.00
O925   O     0.78514   0.50450   0.81998   0.00000  Uiso   1.00
O926   O     0.88153   0.49550   0.68003   0.00000  Uiso   1.00
O927   O     0.88152   0.49552   0.81218   0.00000  Uiso   1.00
O928   O     0.78515   0.50448   0.68783   0.00000  Uiso   1.00
Zn929  Zn    0.76898   0.50600   0.75521   0.00000  Uiso   1.00
Zn930  Zn    0.89769   0.49400   0.74479   0.00000  Uiso   1.00
C931   C     0.18166   0.93139   0.74917   0.00000  Uiso   1.00
C932   C     0.19696   0.87283   0.90562   0.00000  Uiso   1.00
C933   C     0.16301   0.83598   0.61628   0.00000  Uiso   1.00
C934   C     0.17033   0.83069   0.88372   0.00000  Uiso   1.00
C935   C     0.18882   0.87889   0.59361   0.00000  Uiso   1.00
C936   C     0.14452   0.78777   0.90639   0.00000  Uiso   1.00
C937   C     0.18795   0.87988   0.54652   0.00000  Uiso   1.00
C938   C     0.14538   0.78679   0.95348   0.00000  Uiso   1.00
C939   C     0.16553   0.83455   0.52357   0.00000  Uiso   1.00
C940   C     0.16780   0.83212   0.97643   0.00000  Uiso   1.00
C941   C     0.14049   0.79157   0.54769   0.00000  Uiso   1.00
C942   C     0.15168   0.73528   0.75083   0.00000  Uiso   1.00
C943   C     0.19284   0.87510   0.95231   0.00000  Uiso   1.00
C944   C     0.20915   0.92349   0.52116   0.00000  Uiso   1.00
C945   C     0.12419   0.74317   0.97884   0.00000  Uiso   1.00
C946   C     0.04497   0.75509   0.62368   0.00000  Uiso   1.00
C947   C     0.28837   0.91158   0.87632   0.00000  Uiso   1.00
C948   C     0.21703   0.92005   0.61987   0.00000  Uiso   1.00
C949   C     0.11631   0.74662   0.88013   0.00000  Uiso   1.00
C950   C     0.22585   0.97387   0.53999   0.00000  Uiso   1.00
C951   C     0.10749   0.69280   0.96001   0.00000  Uiso   1.00
C952   C     0.23872   0.67057   0.77937   0.00000  Uiso   1.00
C953   C     0.21234   0.92002   0.97497   0.00000  Uiso   1.00
C954   C     0.09462   0.99610   0.72063   0.00000  Uiso   1.00
C955   C     0.12099   0.74665   0.52503   0.00000  Uiso   1.00
C956   C     0.18853   0.98528   0.75519   0.00000  Uiso   1.00
C957   C     0.14480   0.68139   0.74481   0.00000  Uiso   1.00
C958   C     0.16780   0.83291   0.83624   0.00000  Uiso   1.00
C959   C     0.16554   0.83375   0.66376   0.00000  Uiso   1.00
C960   C     0.13637   0.79384   0.59438   0.00000  Uiso   1.00
H961   H     0.22942   0.95382   0.95686   0.00000  Uiso   1.00
H962   H     0.30673   0.92093   0.90917   0.00000  Uiso   1.00
H963   H     0.30685   0.94029   0.85171   0.00000  Uiso   1.00
H964   H     0.30112   0.87254   0.86479   0.00000  Uiso   1.00
H965   H     0.10392   0.71285   0.54314   0.00000  Uiso   1.00
H966   H     0.00447   0.79326   0.71725   0.00000  Uiso   1.00
H967   H     0.32886   0.87341   0.78275   0.00000  Uiso   1.00
H968   H     0.12200   0.71702   0.61435   0.00000  Uiso   1.00
H969   H     0.02661   0.74573   0.59083   0.00000  Uiso   1.00
H970   H     0.03221   0.79413   0.63521   0.00000  Uiso   1.00
H971   H     0.02648   0.72638   0.64829   0.00000  Uiso   1.00
H972   H     0.21134   0.94965   0.88565   0.00000  Uiso   1.00
N973   N     0.31678   0.81932   0.73783   0.00000  Uiso   1.00
N974   N     0.05478   0.98123   0.70154   0.00000  Uiso   1.00
N975   N     0.01656   0.84735   0.76217   0.00000  Uiso   1.00
N976   N     0.10725   0.75348   0.62028   0.00000  Uiso   1.00
N977   N     0.22609   0.91318   0.87972   0.00000  Uiso   1.00
N978   N     0.23941   0.95239   0.64122   0.00000  Uiso   1.00
N979   N     0.09392   0.71428   0.85878   0.00000  Uiso   1.00
N980   N     0.23920   0.68109   0.55448   0.00000  Uiso   1.00
N981   N     0.09413   0.98557   0.94552   0.00000  Uiso   1.00
N982   N     0.27856   0.68543   0.79846   0.00000  Uiso   1.00
O983   O     0.12975   0.91286   0.75299   0.00000  Uiso   1.00
O984   O     0.20358   0.75381   0.74702   0.00000  Uiso   1.00
O985   O     0.22613   0.90387   0.74519   0.00000  Uiso   1.00
O986   O     0.10720   0.76279   0.75482   0.00000  Uiso   1.00
O987   O     0.11847   0.83784   0.81998   0.00000  Uiso   1.00
O988   O     0.21486   0.82883   0.68003   0.00000  Uiso   1.00
O989   O     0.21485   0.82885   0.81218   0.00000  Uiso   1.00
O990   O     0.11848   0.83781   0.68783   0.00000  Uiso   1.00
Zn991  Zn    0.10231   0.83933   0.75521   0.00000  Uiso   1.00
Zn992  Zn    0.23102   0.82734   0.74479   0.00000  Uiso   1.00
C993   C     0.51499   0.93139   0.74917   0.00000  Uiso   1.00
C994   C     0.53030   0.87283   0.90562   0.00000  Uiso   1.00
C995   C     0.49634   0.83598   0.61628   0.00000  Uiso   1.00
C996   C     0.50366   0.83069   0.88372   0.00000  Uiso   1.00
C997   C     0.52215   0.87889   0.59361   0.00000  Uiso   1.00
C998   C     0.47785   0.78777   0.90639   0.00000  Uiso   1.00
C999   C     0.52129   0.87988   0.54652   0.00000  Uiso   1.00
C1000  C     0.47871   0.78679   0.95348   0.00000  Uiso   1.00
C1001  C     0.49887   0.83455   0.52357   0.00000  Uiso   1.00
C1002  C     0.50113   0.83212   0.97643   0.00000  Uiso   1.00
C1003  C     0.47382   0.79157   0.54769   0.00000  Uiso   1.00
C1004  C     0.48501   0.73528   0.75083   0.00000  Uiso   1.00
C1005  C     0.52618   0.87510   0.95231   0.00000  Uiso   1.00
C1006  C     0.54248   0.92349   0.52116   0.00000  Uiso   1.00
C1007  C     0.45752   0.74317   0.97884   0.00000  Uiso   1.00
C1008  C     0.37830   0.75509   0.62368   0.00000  Uiso   1.00
C1009  C     0.62170   0.91158   0.87632   0.00000  Uiso   1.00
C1010  C     0.55036   0.92005   0.61987   0.00000  Uiso   1.00
C1011  C     0.44964   0.74662   0.88013   0.00000  Uiso   1.00
C1012  C     0.55918   0.97387   0.53999   0.00000  Uiso   1.00
C1013  C     0.44082   0.69280   0.96001   0.00000  Uiso   1.00
C1014  C     0.57205   0.67057   0.77937   0.00000  Uiso   1.00
C1015  C     0.54567   0.92002   0.97497   0.00000  Uiso   1.00
C1016  C     0.42795   0.99610   0.72063   0.00000  Uiso   1.00
C1017  C     0.45433   0.74665   0.52503   0.00000  Uiso   1.00
C1018  C     0.52187   0.98528   0.75519   0.00000  Uiso   1.00
C1019  C     0.47813   0.68139   0.74481   0.00000  Uiso   1.00
C1020  C     0.50113   0.83291   0.83624   0.00000  Uiso   1.00
C1021  C     0.49887   0.83375   0.66376   0.00000  Uiso   1.00
C1022  C     0.46970   0.79384   0.59438   0.00000  Uiso   1.00
H1023  H     0.56275   0.95382   0.95686   0.00000  Uiso   1.00
H1024  H     0.64006   0.92093   0.90917   0.00000  Uiso   1.00
H1025  H     0.64018   0.94029   0.85171   0.00000  Uiso   1.00
H1026  H     0.63445   0.87254   0.86479   0.00000  Uiso   1.00
H1027  H     0.43725   0.71285   0.54314   0.00000  Uiso   1.00
H1028  H     0.33781   0.79326   0.71725   0.00000  Uiso   1.00
H1029  H     0.66219   0.87341   0.78275   0.00000  Uiso   1.00
H1030  H     0.45533   0.71702   0.61435   0.00000  Uiso   1.00
H1031  H     0.35994   0.74573   0.59083   0.00000  Uiso   1.00
H1032  H     0.36555   0.79413   0.63521   0.00000  Uiso   1.00
H1033  H     0.35982   0.72638   0.64829   0.00000  Uiso   1.00
H1034  H     0.54467   0.94965   0.88565   0.00000  Uiso   1.00
N1035  N     0.65011   0.81932   0.73783   0.00000  Uiso   1.00
N1036  N     0.38811   0.98123   0.70154   0.00000  Uiso   1.00
N1037  N     0.34989   0.84735   0.76217   0.00000  Uiso   1.00
N1038  N     0.44058   0.75348   0.62028   0.00000  Uiso   1.00
N1039  N     0.55942   0.91318   0.87972   0.00000  Uiso   1.00
N1040  N     0.57274   0.95239   0.64122   0.00000  Uiso   1.00
N1041  N     0.42726   0.71428   0.85878   0.00000  Uiso   1.00
N1042  N     0.57253   0.68109   0.55448   0.00000  Uiso   1.00
N1043  N     0.42747   0.98557   0.94552   0.00000  Uiso   1.00
N1044  N     0.61189   0.68543   0.79846   0.00000  Uiso   1.00
O1045  O     0.46308   0.91286   0.75299   0.00000  Uiso   1.00
O1046  O     0.53692   0.75381   0.74702   0.00000  Uiso   1.00
O1047  O     0.55946   0.90387   0.74519   0.00000  Uiso   1.00
O1048  O     0.44054   0.76279   0.75482   0.00000  Uiso   1.00
O1049  O     0.45181   0.83784   0.81998   0.00000  Uiso   1.00
O1050  O     0.54819   0.82883   0.68003   0.00000  Uiso   1.00
O1051  O     0.54819   0.82885   0.81218   0.00000  Uiso   1.00
O1052  O     0.45181   0.83781   0.68783   0.00000  Uiso   1.00
Zn1053 Zn    0.43565   0.83933   0.75521   0.00000  Uiso   1.00
Zn1054 Zn    0.56435   0.82734   0.74479   0.00000  Uiso   1.00
C1055  C     0.84832   0.93139   0.74917   0.00000  Uiso   1.00
C1056  C     0.86363   0.87283   0.90562   0.00000  Uiso   1.00
C1057  C     0.82967   0.83598   0.61628   0.00000  Uiso   1.00
C1058  C     0.83699   0.83069   0.88372   0.00000  Uiso   1.00
C1059  C     0.85548   0.87889   0.59361   0.00000  Uiso   1.00
C1060  C     0.81118   0.78777   0.90639   0.00000  Uiso   1.00
C1061  C     0.85462   0.87988   0.54652   0.00000  Uiso   1.00
C1062  C     0.81205   0.78679   0.95348   0.00000  Uiso   1.00
C1063  C     0.83220   0.83455   0.52357   0.00000  Uiso   1.00
C1064  C     0.83447   0.83212   0.97643   0.00000  Uiso   1.00
C1065  C     0.80716   0.79157   0.54769   0.00000  Uiso   1.00
C1066  C     0.81834   0.73528   0.75083   0.00000  Uiso   1.00
C1067  C     0.85951   0.87510   0.95231   0.00000  Uiso   1.00
C1068  C     0.87581   0.92349   0.52116   0.00000  Uiso   1.00
C1069  C     0.79085   0.74317   0.97884   0.00000  Uiso   1.00
C1070  C     0.71164   0.75509   0.62368   0.00000  Uiso   1.00
C1071  C     0.95503   0.91158   0.87632   0.00000  Uiso   1.00
C1072  C     0.88369   0.92005   0.61987   0.00000  Uiso   1.00
C1073  C     0.78297   0.74662   0.88013   0.00000  Uiso   1.00
C1074  C     0.89251   0.97387   0.53999   0.00000  Uiso   1.00
C1075  C     0.77415   0.69280   0.96001   0.00000  Uiso   1.00
C1076  C     0.90538   0.67057   0.77937   0.00000  Uiso   1.00
C1077  C     0.87901   0.92002   0.97497   0.00000  Uiso   1.00
C1078  C     0.76128   0.99610   0.72063   0.00000  Uiso   1.00
C1079  C     0.78766   0.74665   0.52503   0.00000  Uiso   1.00
C1080  C     0.85520   0.98528   0.75519   0.00000  Uiso   1.00
C1081  C     0.81147   0.68139   0.74481   0.00000  Uiso   1.00
C1082  C     0.83446   0.83291   0.83624   0.00000  Uiso   1.00
C1083  C     0.83220   0.83375   0.66376   0.00000  Uiso   1.00
C1084  C     0.80304   0.79384   0.59438   0.00000  Uiso   1.00
H1085  H     0.89609   0.95382   0.95686   0.00000  Uiso   1.00
H1086  H     0.97339   0.92093   0.90917   0.00000  Uiso   1.00
H1087  H     0.97352   0.94029   0.85171   0.00000  Uiso   1.00
H1088  H     0.96779   0.87254   0.86479   0.00000  Uiso   1.00
H1089  H     0.77058   0.71285   0.54314   0.00000  Uiso   1.00
H1090  H     0.67114   0.79326   0.71725   0.00000  Uiso   1.00
H1091  H     0.99553   0.87341   0.78275   0.00000  Uiso   1.00
H1092  H     0.78866   0.71702   0.61435   0.00000  Uiso   1.00
H1093  H     0.69327   0.74573   0.59083   0.00000  Uiso   1.00
H1094  H     0.69888   0.79413   0.63521   0.00000  Uiso   1.00
H1095  H     0.69315   0.72638   0.64829   0.00000  Uiso   1.00
H1096  H     0.87800   0.94965   0.88565   0.00000  Uiso   1.00
N1097  N     0.98344   0.81932   0.73783   0.00000  Uiso   1.00
N1098  N     0.72144   0.98123   0.70154   0.00000  Uiso   1.00
N1099  N     0.68322   0.84735   0.76217   0.00000  Uiso   1.00
N1100  N     0.77391   0.75348   0.62028   0.00000  Uiso   1.00
N1101  N     0.89275   0.91318   0.87972   0.00000  Uiso   1.00
N1102  N     0.90608   0.95239   0.64122   0.00000  Uiso   1.00
N1103  N     0.76059   0.71428   0.85878   0.00000  Uiso   1.00
N1104  N     0.90587   0.68109   0.55448   0.00000  Uiso   1.00
N1105  N     0.76080   0.98557   0.94552   0.00000  Uiso   1.00
N1106  N     0.94522   0.68543   0.79846   0.00000  Uiso   1.00
O1107  O     0.79642   0.91286   0.75299   0.00000  Uiso   1.00
O1108  O     0.87025   0.75381   0.74702   0.00000  Uiso   1.00
O1109  O     0.89280   0.90387   0.74519   0.00000  Uiso   1.00
O1110  O     0.77387   0.76279   0.75482   0.00000  Uiso   1.00
O1111  O     0.78514   0.83784   0.81998   0.00000  Uiso   1.00
O1112  O     0.88153   0.82883   0.68003   0.00000  Uiso   1.00
O1113  O     0.88152   0.82885   0.81218   0.00000  Uiso   1.00
O1114  O     0.78515   0.83781   0.68783   0.00000  Uiso   1.00
Zn1115 Zn    0.76898   0.83933   0.75521   0.00000  Uiso   1.00
Zn1116 Zn    0.89769   0.82734   0.74479   0.00000  Uiso   1.00
loop_
_geom_bond_atom_site_label_1
_geom_bond_atom_site_label_2
_geom_bond_distance
_geom_bond_site_symmetry_2
_ccdc_geom_bond_type
C1     O55     1.288   .     A
C1     C26     1.402   .     S
C1     O53     1.271   .     A
C2     C4      1.391   .     A
C2     N47     1.429   .     S
C2     C13     1.395   .     A
C3     C30     1.391   .     A
C3     C5      1.400   .     A
C3     C29     1.429   .     S
C4     C28     1.429   .     S
C4     C6      1.400   .     A
C5     C7      1.412   .     A
C5     C18     1.455   .     S
C6     C19     1.455   .     S
C6     C8      1.412   .     A
C7     C9      1.432   .     A
C7     C14     1.422   .     A
C8     C15     1.422   .     A
C8     C10     1.432   .     A
C9     C11     1.417   .     A
C9     C568    1.409   1_554 S
C10    C13     1.417   .     A
C10    C567    1.409   .     S
C11    C25     1.397   .     A
C11    C30     1.395   .     A
C12    O56     1.288   .     A
C12    C27     1.402   .     S
C12    O54     1.271   .     A
C13    C23     1.397   .     A
C14    C20     1.448   .     S
C14    C581    1.381   1_554 S
C15    C21     1.448   .     S
C15    C583    1.381   .     S
C16    H40     1.111   .     S
C16    N46     1.448   .     S
C16    H39     1.110   .     S
C16    H41     1.109   .     S
C17    H33     1.109   .     S
C17    H34     1.111   .     S
C17    H32     1.110   .     S
C17    N47     1.448   .     S
C18    N48     1.158   .     T
C19    N49     1.158   .     T
C20    N236    1.158   .     S
C21    N423    1.158   1_545 S
C22    N52     1.158   .     T
C22    C398    1.459   1_545 S
C23    H31     1.082   .     S
C23    C572    1.381   .     S
C24    N44     1.158   .     T
C24    C213    1.459   .     S
C25    H35     1.082   .     S
C25    C573    1.381   1_554 S
C26    C208    1.459   .     S
C26    C213    1.360   .     S
C27    C398    1.360   1_545 S
C27    C396    1.459   1_545 S
C28    O57     1.285   .     A
C28    O59     1.282   .     A
C29    O60     1.282   .     A
C29    O58     1.285   .     A
C30    N46     1.429   .     S
H36    N167    1.029   1_455 S
H37    N107    1.029   .     S
H38    N46     1.031   .     S
H42    N47     1.031   .     S
N43    Zn62    2.014   .     S
N43    H98     1.029   .     S
N43    N107    1.274   .     S
N45    Zn61    2.014   .     S
N45    H161    1.029   1_455 S
N45    N167    1.274   1_455 S
N50    C392    1.158   1_545 S
N51    C207    1.158   .     S
O53    Zn61    1.971   .     S
O54    Zn62    1.971   .     S
O55    Zn62    1.990   .     S
O56    Zn61    1.990   .     S
O57    Zn61    1.997   .     S
O58    Zn62    1.997   .     S
O59    Zn62    2.030   .     S
O60    Zn61    2.030   .     S
C63    O117    1.288   .     A
C63    C88     1.402   .     S
C63    O115    1.271   .     A
C64    C66     1.391   .     A
C64    N109    1.429   .     S
C64    C75     1.395   .     A
C65    C92     1.391   .     A
C65    C67     1.400   .     A
C65    C91     1.429   .     S
C66    C90     1.429   .     S
C66    C68     1.400   .     A
C67    C69     1.412   .     A
C67    C80     1.455   .     S
C68    C81     1.455   .     S
C68    C70     1.412   .     A
C69    C71     1.432   .     A
C69    C76     1.422   .     A
C70    C77     1.422   .     A
C70    C72     1.432   .     A
C71    C73     1.417   .     A
C71    C630    1.409   1_554 S
C72    C75     1.417   .     A
C72    C629    1.409   .     S
C73    C87     1.397   .     A
C73    C92     1.395   .     A
C74    O118    1.288   .     A
C74    C89     1.402   .     S
C74    O116    1.271   .     A
C75    C85     1.397   .     A
C76    C82     1.448   .     S
C76    C643    1.381   1_554 S
C77    C83     1.448   .     S
C77    C645    1.381   .     S
C78    H102    1.111   .     S
C78    N108    1.448   .     S
C78    H101    1.110   .     S
C78    H103    1.109   .     S
C79    H95     1.109   .     S
C79    H96     1.111   .     S
C79    H94     1.110   .     S
C79    N109    1.448   .     S
C80    N110    1.158   .     T
C81    N111    1.158   .     T
C82    N298    1.158   .     S
C83    N485    1.158   1_545 S
C84    N114    1.158   .     T
C84    C460    1.459   1_545 S
C85    H93     1.082   .     S
C85    C634    1.381   .     S
C86    N106    1.158   .     T
C86    C275    1.459   .     S
C87    H97     1.082   .     S
C87    C635    1.381   1_554 S
C88    C270    1.459   .     S
C88    C275    1.360   .     S
C89    C460    1.360   1_545 S
C89    C458    1.459   1_545 S
C90    O119    1.285   .     A
C90    O121    1.282   .     A
C91    O122    1.282   .     A
C91    O120    1.285   .     A
C92    N108    1.429   .     S
H99    N169    1.029   .     S
H100   N108    1.031   .     S
H104   N109    1.031   .     S
N105   Zn124   2.014   .     S
N105   H160    1.029   .     S
N105   N169    1.274   .     S
N107   Zn123   2.014   .     S
N112   C454    1.158   1_545 S
N113   C269    1.158   .     S
O115   Zn123   1.971   .     S
O116   Zn124   1.971   .     S
O117   Zn124   1.990   .     S
O118   Zn123   1.990   .     S
O119   Zn123   1.997   .     S
O120   Zn124   1.997   .     S
O121   Zn124   2.030   .     S
O122   Zn123   2.030   .     S
C125   O179    1.288   .     A
C125   C150    1.402   .     S
C125   O177    1.271   .     A
C126   C128    1.391   .     A
C126   N171    1.429   .     S
C126   C137    1.395   .     A
C127   C154    1.391   .     A
C127   C129    1.400   .     A
C127   C153    1.429   .     S
C128   C152    1.429   .     S
C128   C130    1.400   .     A
C129   C131    1.412   .     A
C129   C142    1.455   .     S
C130   C143    1.455   .     S
C130   C132    1.412   .     A
C131   C133    1.432   .     A
C131   C138    1.422   .     A
C132   C139    1.422   .     A
C132   C134    1.432   .     A
C133   C135    1.417   .     A
C133   C692    1.409   1_554 S
C134   C137    1.417   .     A
C134   C691    1.409   .     S
C135   C149    1.397   .     A
C135   C154    1.395   .     A
C136   O180    1.288   .     A
C136   C151    1.402   .     S
C136   O178    1.271   .     A
C137   C147    1.397   .     A
C138   C144    1.448   .     S
C138   C705    1.381   1_554 S
C139   C145    1.448   .     S
C139   C707    1.381   .     S
C140   H164    1.111   .     S
C140   N170    1.448   .     S
C140   H163    1.110   .     S
C140   H165    1.109   .     S
C141   H157    1.109   .     S
C141   H158    1.111   .     S
C141   H156    1.110   .     S
C141   N171    1.448   .     S
C142   N172    1.158   .     T
C143   N173    1.158   .     T
C144   N360    1.158   .     S
C145   N547    1.158   1_545 S
C146   N176    1.158   .     T
C146   C522    1.459   1_545 S
C147   H155    1.082   .     S
C147   C696    1.381   .     S
C148   N168    1.158   .     T
C148   C337    1.459   .     S
C149   H159    1.082   .     S
C149   C697    1.381   1_554 S
C150   C332    1.459   .     S
C150   C337    1.360   .     S
C151   C522    1.360   1_545 S
C151   C520    1.459   1_545 S
C152   O181    1.285   .     A
C152   O183    1.282   .     A
C153   O184    1.282   .     A
C153   O182    1.285   .     A
C154   N170    1.429   .     S
H161   N45     1.029   1_655 S
H162   N170    1.031   .     S
H166   N171    1.031   .     S
N167   Zn186   2.014   .     S
N167   H36     1.029   1_655 S
N167   N45     1.274   1_655 S
N169   Zn185   2.014   .     S
N174   C516    1.158   1_545 S
N175   C331    1.158   .     S
O177   Zn185   1.971   .     S
O178   Zn186   1.971   .     S
O179   Zn186   1.990   .     S
O180   Zn185   1.990   .     S
O181   Zn185   1.997   .     S
O182   Zn186   1.997   .     S
O183   Zn186   2.030   .     S
O184   Zn185   2.030   .     S
C187   O241    1.288   .     A
C187   C212    1.402   .     S
C187   O239    1.271   .     A
C188   C190    1.391   .     A
C188   N233    1.429   .     S
C188   C199    1.395   .     A
C189   C216    1.391   .     A
C189   C191    1.400   .     A
C189   C215    1.429   .     S
C190   C214    1.429   .     S
C190   C192    1.400   .     A
C191   C193    1.412   .     A
C191   C204    1.455   .     S
C192   C205    1.455   .     S
C192   C194    1.412   .     A
C193   C195    1.432   .     A
C193   C200    1.422   .     A
C194   C201    1.422   .     A
C194   C196    1.432   .     A
C195   C197    1.417   .     A
C195   C754    1.409   1_554 S
C196   C199    1.417   .     A
C196   C753    1.409   .     S
C197   C211    1.397   .     A
C197   C216    1.395   .     A
C198   O242    1.288   .     A
C198   C213    1.402   .     S
C198   O240    1.271   .     A
C199   C209    1.397   .     A
C200   C206    1.448   .     S
C200   C767    1.381   1_554 S
C201   C207    1.448   .     S
C201   C769    1.381   .     S
C202   H226    1.111   .     S
C202   N232    1.448   .     S
C202   H225    1.110   .     S
C202   H227    1.109   .     S
C203   H219    1.109   .     S
C203   H220    1.111   .     S
C203   H218    1.110   .     S
C203   N233    1.448   .     S
C204   N234    1.158   .     T
C205   N235    1.158   .     T
C206   N422    1.158   .     S
C208   N238    1.158   .     T
C209   H217    1.082   .     S
C209   C758    1.381   .     S
C210   N230    1.158   .     T
C210   C399    1.459   .     S
C211   H221    1.082   .     S
C211   C759    1.381   1_554 S
C212   C394    1.459   .     S
C212   C399    1.360   .     S
C214   O243    1.285   .     A
C214   O245    1.282   .     A
C215   O246    1.282   .     A
C215   O244    1.285   .     A
C216   N232    1.429   .     S
H222   N353    1.029   1_455 S
H223   N293    1.029   .     S
H224   N232    1.031   .     S
H228   N233    1.031   .     S
N229   Zn248   2.014   .     S
N229   H284    1.029   .     S
N229   N293    1.274   .     S
N231   Zn247   2.014   .     S
N231   H347    1.029   1_455 S
N231   N353    1.274   1_455 S
N237   C393    1.158   .     S
O239   Zn247   1.971   .     S
O240   Zn248   1.971   .     S
O241   Zn248   1.990   .     S
O242   Zn247   1.990   .     S
O243   Zn247   1.997   .     S
O244   Zn248   1.997   .     S
O245   Zn248   2.030   .     S
O246   Zn247   2.030   .     S
C249   O303    1.288   .     A
C249   C274    1.402   .     S
C249   O301    1.271   .     A
C250   C252    1.391   .     A
C250   N295    1.429   .     S
C250   C261    1.395   .     A
C251   C278    1.391   .     A
C251   C253    1.400   .     A
C251   C277    1.429   .     S
C252   C276    1.429   .     S
C252   C254    1.400   .     A
C253   C255    1.412   .     A
C253   C266    1.455   .     S
C254   C267    1.455   .     S
C254   C256    1.412   .     A
C255   C257    1.432   .     A
C255   C262    1.422   .     A
C256   C263    1.422   .     A
C256   C258    1.432   .     A
C257   C259    1.417   .     A
C257   C816    1.409   1_554 S
C258   C261    1.417   .     A
C258   C815    1.409   .     S
C259   C273    1.397   .     A
C259   C278    1.395   .     A
C260   O304    1.288   .     A
C260   C275    1.402   .     S
C260   O302    1.271   .     A
C261   C271    1.397   .     A
C262   C268    1.448   .     S
C262   C829    1.381   1_554 S
C263   C269    1.448   .     S
C263   C831    1.381   .     S
C264   H288    1.111   .     S
C264   N294    1.448   .     S
C264   H287    1.110   .     S
C264   H289    1.109   .     S
C265   H281    1.109   .     S
C265   H282    1.111   .     S
C265   H280    1.110   .     S
C265   N295    1.448   .     S
C266   N296    1.158   .     T
C267   N297    1.158   .     T
C268   N484    1.158   .     S
C270   N300    1.158   .     T
C271   H279    1.082   .     S
C271   C820    1.381   .     S
C272   N292    1.158   .     T
C272   C461    1.459   .     S
C273   H283    1.082   .     S
C273   C821    1.381   1_554 S
C274   C456    1.459   .     S
C274   C461    1.360   .     S
C276   O305    1.285   .     A
C276   O307    1.282   .     A
C277   O308    1.282   .     A
C277   O306    1.285   .     A
C278   N294    1.429   .     S
H285   N355    1.029   .     S
H286   N294    1.031   .     S
H290   N295    1.031   .     S
N291   Zn310   2.014   .     S
N291   H346    1.029   .     S
N291   N355    1.274   .     S
N293   Zn309   2.014   .     S
N299   C455    1.158   .     S
O301   Zn309   1.971   .     S
O302   Zn310   1.971   .     S
O303   Zn310   1.990   .     S
O304   Zn309   1.990   .     S
O305   Zn309   1.997   .     S
O306   Zn310   1.997   .     S
O307   Zn310   2.030   .     S
O308   Zn309   2.030   .     S
C311   O365    1.288   .     A
C311   C336    1.402   .     S
C311   O363    1.271   .     A
C312   C314    1.391   .     A
C312   N357    1.429   .     S
C312   C323    1.395   .     A
C313   C340    1.391   .     A
C313   C315    1.400   .     A
C313   C339    1.429   .     S
C314   C338    1.429   .     S
C314   C316    1.400   .     A
C315   C317    1.412   .     A
C315   C328    1.455   .     S
C316   C329    1.455   .     S
C316   C318    1.412   .     A
C317   C319    1.432   .     A
C317   C324    1.422   .     A
C318   C325    1.422   .     A
C318   C320    1.432   .     A
C319   C321    1.417   .     A
C319   C878    1.409   1_554 S
C320   C323    1.417   .     A
C320   C877    1.409   .     S
C321   C335    1.397   .     A
C321   C340    1.395   .     A
C322   O366    1.288   .     A
C322   C337    1.402   .     S
C322   O364    1.271   .     A
C323   C333    1.397   .     A
C324   C330    1.448   .     S
C324   C891    1.381   1_554 S
C325   C331    1.448   .     S
C325   C893    1.381   .     S
C326   H350    1.111   .     S
C326   N356    1.448   .     S
C326   H349    1.110   .     S
C326   H351    1.109   .     S
C327   H343    1.109   .     S
C327   H344    1.111   .     S
C327   H342    1.110   .     S
C327   N357    1.448   .     S
C328   N358    1.158   .     T
C329   N359    1.158   .     T
C330   N546    1.158   .     S
C332   N362    1.158   .     T
C333   H341    1.082   .     S
C333   C882    1.381   .     S
C334   N354    1.158   .     T
C334   C523    1.459   .     S
C335   H345    1.082   .     S
C335   C883    1.381   1_554 S
C336   C518    1.459   .     S
C336   C523    1.360   .     S
C338   O367    1.285   .     A
C338   O369    1.282   .     A
C339   O370    1.282   .     A
C339   O368    1.285   .     A
C340   N356    1.429   .     S
H347   N231    1.029   1_655 S
H348   N356    1.031   .     S
H352   N357    1.031   .     S
N353   Zn372   2.014   .     S
N353   H222    1.029   1_655 S
N353   N231    1.274   1_655 S
N355   Zn371   2.014   .     S
N361   C517    1.158   .     S
O363   Zn371   1.971   .     S
O364   Zn372   1.971   .     S
O365   Zn372   1.990   .     S
O366   Zn371   1.990   .     S
O367   Zn371   1.997   .     S
O368   Zn372   1.997   .     S
O369   Zn372   2.030   .     S
O370   Zn371   2.030   .     S
C373   O427    1.288   .     A
C373   C398    1.402   .     S
C373   O425    1.271   .     A
C374   C376    1.391   .     A
C374   N419    1.429   .     S
C374   C385    1.395   .     A
C375   C402    1.391   .     A
C375   C377    1.400   .     A
C375   C401    1.429   .     S
C376   C400    1.429   .     S
C376   C378    1.400   .     A
C377   C379    1.412   .     A
C377   C390    1.455   .     S
C378   C391    1.455   .     S
C378   C380    1.412   .     A
C379   C381    1.432   .     A
C379   C386    1.422   .     A
C380   C387    1.422   .     A
C380   C382    1.432   .     A
C381   C383    1.417   .     A
C381   C940    1.409   1_554 S
C382   C385    1.417   .     A
C382   C939    1.409   .     S
C383   C397    1.397   .     A
C383   C402    1.395   .     A
C384   O428    1.288   .     A
C384   C399    1.402   .     S
C384   O426    1.271   .     A
C385   C395    1.397   .     A
C386   C392    1.448   .     S
C386   C953    1.381   1_554 S
C387   C393    1.448   .     S
C387   C955    1.381   .     S
C388   H412    1.111   .     S
C388   N418    1.448   .     S
C388   H411    1.110   .     S
C388   H413    1.109   .     S
C389   H405    1.109   .     S
C389   H406    1.111   .     S
C389   H404    1.110   .     S
C389   N419    1.448   .     S
C390   N420    1.158   .     T
C391   N421    1.158   .     T
C392   N50     1.158   1_565 S
C394   N424    1.158   .     T
C395   H403    1.082   .     S
C395   C944    1.381   .     S
C396   N416    1.158   .     T
C396   C27     1.459   1_565 S
C397   H407    1.082   .     S
C397   C945    1.381   1_554 S
C398   C22     1.459   1_565 S
C398   C27     1.360   1_565 S
C400   O429    1.285   .     A
C400   O431    1.282   .     A
C401   O432    1.282   .     A
C401   O430    1.285   .     A
C402   N418    1.429   .     S
H408   N539    1.029   1_455 S
H409   N479    1.029   .     S
H410   N418    1.031   .     S
H414   N419    1.031   .     S
N415   Zn434   2.014   .     S
N415   H470    1.029   .     S
N415   N479    1.274   .     S
N417   Zn433   2.014   .     S
N417   H533    1.029   1_455 S
N417   N539    1.274   1_455 S
N423   C21     1.158   1_565 S
O425   Zn433   1.971   .     S
O426   Zn434   1.971   .     S
O427   Zn434   1.990   .     S
O428   Zn433   1.990   .     S
O429   Zn433   1.997   .     S
O430   Zn434   1.997   .     S
O431   Zn434   2.030   .     S
O432   Zn433   2.030   .     S
C435   O489    1.288   .     A
C435   C460    1.402   .     S
C435   O487    1.271   .     A
C436   C438    1.391   .     A
C436   N481    1.429   .     S
C436   C447    1.395   .     A
C437   C464    1.391   .     A
C437   C439    1.400   .     A
C437   C463    1.429   .     S
C438   C462    1.429   .     S
C438   C440    1.400   .     A
C439   C441    1.412   .     A
C439   C452    1.455   .     S
C440   C453    1.455   .     S
C440   C442    1.412   .     A
C441   C443    1.432   .     A
C441   C448    1.422   .     A
C442   C449    1.422   .     A
C442   C444    1.432   .     A
C443   C445    1.417   .     A
C443   C1002   1.409   1_554 S
C444   C447    1.417   .     A
C444   C1001   1.409   .     S
C445   C459    1.397   .     A
C445   C464    1.395   .     A
C446   O490    1.288   .     A
C446   C461    1.402   .     S
C446   O488    1.271   .     A
C447   C457    1.397   .     A
C448   C454    1.448   .     S
C448   C1015   1.381   1_554 S
C449   C455    1.448   .     S
C449   C1017   1.381   .     S
C450   H474    1.111   .     S
C450   N480    1.448   .     S
C450   H473    1.110   .     S
C450   H475    1.109   .     S
C451   H467    1.109   .     S
C451   H468    1.111   .     S
C451   H466    1.110   .     S
C451   N481    1.448   .     S
C452   N482    1.158   .     T
C453   N483    1.158   .     T
C454   N112    1.158   1_565 S
C456   N486    1.158   .     T
C457   H465    1.082   .     S
C457   C1006   1.381   .     S
C458   N478    1.158   .     T
C458   C89     1.459   1_565 S
C459   H469    1.082   .     S
C459   C1007   1.381   1_554 S
C460   C84     1.459   1_565 S
C460   C89     1.360   1_565 S
C462   O491    1.285   .     A
C462   O493    1.282   .     A
C463   O494    1.282   .     A
C463   O492    1.285   .     A
C464   N480    1.429   .     S
H471   N541    1.029   .     S
H472   N480    1.031   .     S
H476   N481    1.031   .     S
N477   Zn496   2.014   .     S
N477   H532    1.029   .     S
N477   N541    1.274   .     S
N479   Zn495   2.014   .     S
N485   C83     1.158   1_565 S
O487   Zn495   1.971   .     S
O488   Zn496   1.971   .     S
O489   Zn496   1.990   .     S
O490   Zn495   1.990   .     S
O491   Zn495   1.997   .     S
O492   Zn496   1.997   .     S
O493   Zn496   2.030   .     S
O494   Zn495   2.030   .     S
C497   O551    1.288   .     A
C497   C522    1.402   .     S
C497   O549    1.271   .     A
C498   C500    1.391   .     A
C498   N543    1.429   .     S
C498   C509    1.395   .     A
C499   C526    1.391   .     A
C499   C501    1.400   .     A
C499   C525    1.429   .     S
C500   C524    1.429   .     S
C500   C502    1.400   .     A
C501   C503    1.412   .     A
C501   C514    1.455   .     S
C502   C515    1.455   .     S
C502   C504    1.412   .     A
C503   C505    1.432   .     A
C503   C510    1.422   .     A
C504   C511    1.422   .     A
C504   C506    1.432   .     A
C505   C507    1.417   .     A
C505   C1064   1.409   1_554 S
C506   C509    1.417   .     A
C506   C1063   1.409   .     S
C507   C521    1.397   .     A
C507   C526    1.395   .     A
C508   O552    1.288   .     A
C508   C523    1.402   .     S
C508   O550    1.271   .     A
C509   C519    1.397   .     A
C510   C516    1.448   .     S
C510   C1077   1.381   1_554 S
C511   C517    1.448   .     S
C511   C1079   1.381   .     S
C512   H536    1.111   .     S
C512   N542    1.448   .     S
C512   H535    1.110   .     S
C512   H537    1.109   .     S
C513   H529    1.109   .     S
C513   H530    1.111   .     S
C513   H528    1.110   .     S
C513   N543    1.448   .     S
C514   N544    1.158   .     T
C515   N545    1.158   .     T
C516   N174    1.158   1_565 S
C518   N548    1.158   .     T
C519   H527    1.082   .     S
C519   C1068   1.381   .     S
C520   N540    1.158   .     T
C520   C151    1.459   1_565 S
C521   H531    1.082   .     S
C521   C1069   1.381   1_554 S
C522   C146    1.459   1_565 S
C522   C151    1.360   1_565 S
C524   O553    1.285   .     A
C524   O555    1.282   .     A
C525   O556    1.282   .     A
C525   O554    1.285   .     A
C526   N542    1.429   .     S
H533   N417    1.029   1_655 S
H534   N542    1.031   .     S
H538   N543    1.031   .     S
N539   Zn558   2.014   .     S
N539   H408    1.029   1_655 S
N539   N417    1.274   1_655 S
N541   Zn557   2.014   .     S
N547   C145    1.158   1_565 S
O549   Zn557   1.971   .     S
O550   Zn558   1.971   .     S
O551   Zn558   1.990   .     S
O552   Zn557   1.990   .     S
O553   Zn557   1.997   .     S
O554   Zn558   1.997   .     S
O555   Zn558   2.030   .     S
O556   Zn557   2.030   .     S
C559   O613    1.288   .     A
C559   C584    1.402   .     S
C559   O611    1.271   .     A
C560   C562    1.391   .     A
C560   N605    1.429   .     S
C560   C571    1.395   .     A
C561   C588    1.391   .     A
C561   C563    1.400   .     A
C561   C587    1.429   .     S
C562   C586    1.429   .     S
C562   C564    1.400   .     A
C563   C565    1.412   .     A
C563   C576    1.455   .     S
C564   C577    1.455   .     S
C564   C566    1.412   .     A
C565   C567    1.432   .     A
C565   C572    1.422   .     A
C566   C573    1.422   .     A
C566   C568    1.432   .     A
C567   C569    1.417   .     A
C568   C571    1.417   .     A
C568   C9      1.409   1_556 S
C569   C583    1.397   .     A
C569   C588    1.395   .     A
C570   O614    1.288   .     A
C570   C585    1.402   .     S
C570   O612    1.271   .     A
C571   C581    1.397   .     A
C572   C578    1.448   .     S
C573   C579    1.448   .     S
C573   C25     1.381   1_556 S
C574   H598    1.111   .     S
C574   N604    1.448   .     S
C574   H597    1.110   .     S
C574   H599    1.109   .     S
C575   H591    1.109   .     S
C575   H592    1.111   .     S
C575   H590    1.110   .     S
C575   N605    1.448   .     S
C576   N606    1.158   .     T
C577   N607    1.158   .     T
C578   N794    1.158   .     S
C579   N981    1.158   1_545 S
C580   N610    1.158   .     T
C580   C956    1.459   1_545 S
C581   H589    1.082   .     S
C581   C14     1.381   1_556 S
C582   N602    1.158   .     T
C582   C771    1.459   .     S
C583   H593    1.082   .     S
C584   C766    1.459   .     S
C584   C771    1.360   .     S
C585   C956    1.360   1_545 S
C585   C954    1.459   1_545 S
C586   O615    1.285   .     A
C586   O617    1.282   .     A
C587   O618    1.282   .     A
C587   O616    1.285   .     A
C588   N604    1.429   .     S
H594   N725    1.029   1_455 S
H595   N665    1.029   .     S
H596   N604    1.031   .     S
H600   N605    1.031   .     S
N601   Zn620   2.014   .     S
N601   H656    1.029   .     S
N601   N665    1.274   .     S
N603   Zn619   2.014   .     S
N603   H719    1.029   1_455 S
N603   N725    1.274   1_455 S
N608   C950    1.158   1_545 S
N609   C765    1.158   .     S
O611   Zn619   1.971   .     S
O612   Zn620   1.971   .     S
O613   Zn620   1.990   .     S
O614   Zn619   1.990   .     S
O615   Zn619   1.997   .     S
O616   Zn620   1.997   .     S
O617   Zn620   2.030   .     S
O618   Zn619   2.030   .     S
C621   O675    1.288   .     A
C621   C646    1.402   .     S
C621   O673    1.271   .     A
C622   C624    1.391   .     A
C622   N667    1.429   .     S
C622   C633    1.395   .     A
C623   C650    1.391   .     A
C623   C625    1.400   .     A
C623   C649    1.429   .     S
C624   C648    1.429   .     S
C624   C626    1.400   .     A
C625   C627    1.412   .     A
C625   C638    1.455   .     S
C626   C639    1.455   .     S
C626   C628    1.412   .     A
C627   C629    1.432   .     A
C627   C634    1.422   .     A
C628   C635    1.422   .     A
C628   C630    1.432   .     A
C629   C631    1.417   .     A
C630   C633    1.417   .     A
C630   C71     1.409   1_556 S
C631   C645    1.397   .     A
C631   C650    1.395   .     A
C632   O676    1.288   .     A
C632   C647    1.402   .     S
C632   O674    1.271   .     A
C633   C643    1.397   .     A
C634   C640    1.448   .     S
C635   C641    1.448   .     S
C635   C87     1.381   1_556 S
C636   H660    1.111   .     S
C636   N666    1.448   .     S
C636   H659    1.110   .     S
C636   H661    1.109   .     S
C637   H653    1.109   .     S
C637   H654    1.111   .     S
C637   H652    1.110   .     S
C637   N667    1.448   .     S
C638   N668    1.158   .     T
C639   N669    1.158   .     T
C640   N856    1.158   .     S
C641   N1043   1.158   1_545 S
C642   N672    1.158   .     T
C642   C1018   1.459   1_545 S
C643   H651    1.082   .     S
C643   C76     1.381   1_556 S
C644   N664    1.158   .     T
C644   C833    1.459   .     S
C645   H655    1.082   .     S
C646   C828    1.459   .     S
C646   C833    1.360   .     S
C647   C1018   1.360   1_545 S
C647   C1016   1.459   1_545 S
C648   O677    1.285   .     A
C648   O679    1.282   .     A
C649   O680    1.282   .     A
C649   O678    1.285   .     A
C650   N666    1.429   .     S
H657   N727    1.029   .     S
H658   N666    1.031   .     S
H662   N667    1.031   .     S
N663   Zn682   2.014   .     S
N663   H718    1.029   .     S
N663   N727    1.274   .     S
N665   Zn681   2.014   .     S
N670   C1012   1.158   1_545 S
N671   C827    1.158   .     S
O673   Zn681   1.971   .     S
O674   Zn682   1.971   .     S
O675   Zn682   1.990   .     S
O676   Zn681   1.990   .     S
O677   Zn681   1.997   .     S
O678   Zn682   1.997   .     S
O679   Zn682   2.030   .     S
O680   Zn681   2.030   .     S
C683   O737    1.288   .     A
C683   C708    1.402   .     S
C683   O735    1.271   .     A
C684   C686    1.391   .     A
C684   N729    1.429   .     S
C684   C695    1.395   .     A
C685   C712    1.391   .     A
C685   C687    1.400   .     A
C685   C711    1.429   .     S
C686   C710    1.429   .     S
C686   C688    1.400   .     A
C687   C689    1.412   .     A
C687   C700    1.455   .     S
C688   C701    1.455   .     S
C688   C690    1.412   .     A
C689   C691    1.432   .     A
C689   C696    1.422   .     A
C690   C697    1.422   .     A
C690   C692    1.432   .     A
C691   C693    1.417   .     A
C692   C695    1.417   .     A
C692   C133    1.409   1_556 S
C693   C707    1.397   .     A
C693   C712    1.395   .     A
C694   O738    1.288   .     A
C694   C709    1.402   .     S
C694   O736    1.271   .     A
C695   C705    1.397   .     A
C696   C702    1.448   .     S
C697   C703    1.448   .     S
C697   C149    1.381   1_556 S
C698   H722    1.111   .     S
C698   N728    1.448   .     S
C698   H721    1.110   .     S
C698   H723    1.109   .     S
C699   H715    1.109   .     S
C699   H716    1.111   .     S
C699   H714    1.110   .     S
C699   N729    1.448   .     S
C700   N730    1.158   .     T
C701   N731    1.158   .     T
C702   N918    1.158   .     S
C703   N1105   1.158   1_545 S
C704   N734    1.158   .     T
C704   C1080   1.459   1_545 S
C705   H713    1.082   .     S
C705   C138    1.381   1_556 S
C706   N726    1.158   .     T
C706   C895    1.459   .     S
C707   H717    1.082   .     S
C708   C890    1.459   .     S
C708   C895    1.360   .     S
C709   C1080   1.360   1_545 S
C709   C1078   1.459   1_545 S
C710   O739    1.285   .     A
C710   O741    1.282   .     A
C711   O742    1.282   .     A
C711   O740    1.285   .     A
C712   N728    1.429   .     S
H719   N603    1.029   1_655 S
H720   N728    1.031   .     S
H724   N729    1.031   .     S
N725   Zn744   2.014   .     S
N725   H594    1.029   1_655 S
N725   N603    1.274   1_655 S
N727   Zn743   2.014   .     S
N732   C1074   1.158   1_545 S
N733   C889    1.158   .     S
O735   Zn743   1.971   .     S
O736   Zn744   1.971   .     S
O737   Zn744   1.990   .     S
O738   Zn743   1.990   .     S
O739   Zn743   1.997   .     S
O740   Zn744   1.997   .     S
O741   Zn744   2.030   .     S
O742   Zn743   2.030   .     S
C745   O799    1.288   .     A
C745   C770    1.402   .     S
C745   O797    1.271   .     A
C746   C748    1.391   .     A
C746   N791    1.429   .     S
C746   C757    1.395   .     A
C747   C774    1.391   .     A
C747   C749    1.400   .     A
C747   C773    1.429   .     S
C748   C772    1.429   .     S
C748   C750    1.400   .     A
C749   C751    1.412   .     A
C749   C762    1.455   .     S
C750   C763    1.455   .     S
C750   C752    1.412   .     A
C751   C753    1.432   .     A
C751   C758    1.422   .     A
C752   C759    1.422   .     A
C752   C754    1.432   .     A
C753   C755    1.417   .     A
C754   C757    1.417   .     A
C754   C195    1.409   1_556 S
C755   C769    1.397   .     A
C755   C774    1.395   .     A
C756   O800    1.288   .     A
C756   C771    1.402   .     S
C756   O798    1.271   .     A
C757   C767    1.397   .     A
C758   C764    1.448   .     S
C759   C765    1.448   .     S
C759   C211    1.381   1_556 S
C760   H784    1.111   .     S
C760   N790    1.448   .     S
C760   H783    1.110   .     S
C760   H785    1.109   .     S
C761   H777    1.109   .     S
C761   H778    1.111   .     S
C761   H776    1.110   .     S
C761   N791    1.448   .     S
C762   N792    1.158   .     T
C763   N793    1.158   .     T
C764   N980    1.158   .     S
C766   N796    1.158   .     T
C767   H775    1.082   .     S
C767   C200    1.381   1_556 S
C768   N788    1.158   .     T
C768   C957    1.459   .     S
C769   H779    1.082   .     S
C770   C952    1.459   .     S
C770   C957    1.360   .     S
C772   O801    1.285   .     A
C772   O803    1.282   .     A
C773   O804    1.282   .     A
C773   O802    1.285   .     A
C774   N790    1.429   .     S
H780   N911    1.029   1_455 S
H781   N851    1.029   .     S
H782   N790    1.031   .     S
H786   N791    1.031   .     S
N787   Zn806   2.014   .     S
N787   H842    1.029   .     S
N787   N851    1.274   .     S
N789   Zn805   2.014   .     S
N789   H905    1.029   1_455 S
N789   N911    1.274   1_455 S
N795   C951    1.158   .     S
O797   Zn805   1.971   .     S
O798   Zn806   1.971   .     S
O799   Zn806   1.990   .     S
O800   Zn805   1.990   .     S
O801   Zn805   1.997   .     S
O802   Zn806   1.997   .     S
O803   Zn806   2.030   .     S
O804   Zn805   2.030   .     S
C807   O861    1.288   .     A
C807   C832    1.402   .     S
C807   O859    1.271   .     A
C808   C810    1.391   .     A
C808   N853    1.429   .     S
C808   C819    1.395   .     A
C809   C836    1.391   .     A
C809   C811    1.400   .     A
C809   C835    1.429   .     S
C810   C834    1.429   .     S
C810   C812    1.400   .     A
C811   C813    1.412   .     A
C811   C824    1.455   .     S
C812   C825    1.455   .     S
C812   C814    1.412   .     A
C813   C815    1.432   .     A
C813   C820    1.422   .     A
C814   C821    1.422   .     A
C814   C816    1.432   .     A
C815   C817    1.417   .     A
C816   C819    1.417   .     A
C816   C257    1.409   1_556 S
C817   C831    1.397   .     A
C817   C836    1.395   .     A
C818   O862    1.288   .     A
C818   C833    1.402   .     S
C818   O860    1.271   .     A
C819   C829    1.397   .     A
C820   C826    1.448   .     S
C821   C827    1.448   .     S
C821   C273    1.381   1_556 S
C822   H846    1.111   .     S
C822   N852    1.448   .     S
C822   H845    1.110   .     S
C822   H847    1.109   .     S
C823   H839    1.109   .     S
C823   H840    1.111   .     S
C823   H838    1.110   .     S
C823   N853    1.448   .     S
C824   N854    1.158   .     T
C825   N855    1.158   .     T
C826   N1042   1.158   .     S
C828   N858    1.158   .     T
C829   H837    1.082   .     S
C829   C262    1.381   1_556 S
C830   N850    1.158   .     T
C830   C1019   1.459   .     S
C831   H841    1.082   .     S
C832   C1014   1.459   .     S
C832   C1019   1.360   .     S
C834   O863    1.285   .     A
C834   O865    1.282   .     A
C835   O866    1.282   .     A
C835   O864    1.285   .     A
C836   N852    1.429   .     S
H843   N913    1.029   .     S
H844   N852    1.031   .     S
H848   N853    1.031   .     S
N849   Zn868   2.014   .     S
N849   H904    1.029   .     S
N849   N913    1.274   .     S
N851   Zn867   2.014   .     S
N857   C1013   1.158   .     S
O859   Zn867   1.971   .     S
O860   Zn868   1.971   .     S
O861   Zn868   1.990   .     S
O862   Zn867   1.990   .     S
O863   Zn867   1.997   .     S
O864   Zn868   1.997   .     S
O865   Zn868   2.030   .     S
O866   Zn867   2.030   .     S
C869   O923    1.288   .     A
C869   C894    1.402   .     S
C869   O921    1.271   .     A
C870   C872    1.391   .     A
C870   N915    1.429   .     S
C870   C881    1.395   .     A
C871   C898    1.391   .     A
C871   C873    1.400   .     A
C871   C897    1.429   .     S
C872   C896    1.429   .     S
C872   C874    1.400   .     A
C873   C875    1.412   .     A
C873   C886    1.455   .     S
C874   C887    1.455   .     S
C874   C876    1.412   .     A
C875   C877    1.432   .     A
C875   C882    1.422   .     A
C876   C883    1.422   .     A
C876   C878    1.432   .     A
C877   C879    1.417   .     A
C878   C881    1.417   .     A
C878   C319    1.409   1_556 S
C879   C893    1.397   .     A
C879   C898    1.395   .     A
C880   O924    1.288   .     A
C880   C895    1.402   .     S
C880   O922    1.271   .     A
C881   C891    1.397   .     A
C882   C888    1.448   .     S
C883   C889    1.448   .     S
C883   C335    1.381   1_556 S
C884   H908    1.111   .     S
C884   N914    1.448   .     S
C884   H907    1.110   .     S
C884   H909    1.109   .     S
C885   H901    1.109   .     S
C885   H902    1.111   .     S
C885   H900    1.110   .     S
C885   N915    1.448   .     S
C886   N916    1.158   .     T
C887   N917    1.158   .     T
C888   N1104   1.158   .     S
C890   N920    1.158   .     T
C891   H899    1.082   .     S
C891   C324    1.381   1_556 S
C892   N912    1.158   .     T
C892   C1081   1.459   .     S
C893   H903    1.082   .     S
C894   C1076   1.459   .     S
C894   C1081   1.360   .     S
C896   O925    1.285   .     A
C896   O927    1.282   .     A
C897   O928    1.282   .     A
C897   O926    1.285   .     A
C898   N914    1.429   .     S
H905   N789    1.029   1_655 S
H906   N914    1.031   .     S
H910   N915    1.031   .     S
N911   Zn930   2.014   .     S
N911   H780    1.029   1_655 S
N911   N789    1.274   1_655 S
N913   Zn929   2.014   .     S
N919   C1075   1.158   .     S
O921   Zn929   1.971   .     S
O922   Zn930   1.971   .     S
O923   Zn930   1.990   .     S
O924   Zn929   1.990   .     S
O925   Zn929   1.997   .     S
O926   Zn930   1.997   .     S
O927   Zn930   2.030   .     S
O928   Zn929   2.030   .     S
C931   O985    1.288   .     A
C931   C956    1.402   .     S
C931   O983    1.271   .     A
C932   C934    1.391   .     A
C932   N977    1.429   .     S
C932   C943    1.395   .     A
C933   C960    1.391   .     A
C933   C935    1.400   .     A
C933   C959    1.429   .     S
C934   C958    1.429   .     S
C934   C936    1.400   .     A
C935   C937    1.412   .     A
C935   C948    1.455   .     S
C936   C949    1.455   .     S
C936   C938    1.412   .     A
C937   C939    1.432   .     A
C937   C944    1.422   .     A
C938   C945    1.422   .     A
C938   C940    1.432   .     A
C939   C941    1.417   .     A
C940   C943    1.417   .     A
C940   C381    1.409   1_556 S
C941   C955    1.397   .     A
C941   C960    1.395   .     A
C942   O986    1.288   .     A
C942   C957    1.402   .     S
C942   O984    1.271   .     A
C943   C953    1.397   .     A
C944   C950    1.448   .     S
C945   C951    1.448   .     S
C945   C397    1.381   1_556 S
C946   H970    1.111   .     S
C946   N976    1.448   .     S
C946   H969    1.110   .     S
C946   H971    1.109   .     S
C947   H963    1.109   .     S
C947   H964    1.111   .     S
C947   H962    1.110   .     S
C947   N977    1.448   .     S
C948   N978    1.158   .     T
C949   N979    1.158   .     T
C950   N608    1.158   1_565 S
C952   N982    1.158   .     T
C953   H961    1.082   .     S
C953   C386    1.381   1_556 S
C954   N974    1.158   .     T
C954   C585    1.459   1_565 S
C955   H965    1.082   .     S
C956   C580    1.459   1_565 S
C956   C585    1.360   1_565 S
C958   O987    1.285   .     A
C958   O989    1.282   .     A
C959   O990    1.282   .     A
C959   O988    1.285   .     A
C960   N976    1.429   .     S
H966   N1097   1.029   1_455 S
H967   N1037   1.029   .     S
H968   N976    1.031   .     S
H972   N977    1.031   .     S
N973   Zn992   2.014   .     S
N973   H1028   1.029   .     S
N973   N1037   1.274   .     S
N975   Zn991   2.014   .     S
N975   H1091   1.029   1_455 S
N975   N1097   1.274   1_455 S
N981   C579    1.158   1_565 S
O983   Zn991   1.971   .     S
O984   Zn992   1.971   .     S
O985   Zn992   1.990   .     S
O986   Zn991   1.990   .     S
O987   Zn991   1.997   .     S
O988   Zn992   1.997   .     S
O989   Zn992   2.030   .     S
O990   Zn991   2.030   .     S
C993   O1047   1.288   .     A
C993   C1018   1.402   .     S
C993   O1045   1.271   .     A
C994   C996    1.391   .     A
C994   N1039   1.429   .     S
C994   C1005   1.395   .     A
C995   C1022   1.391   .     A
C995   C997    1.400   .     A
C995   C1021   1.429   .     S
C996   C1020   1.429   .     S
C996   C998    1.400   .     A
C997   C999    1.412   .     A
C997   C1010   1.455   .     S
C998   C1011   1.455   .     S
C998   C1000   1.412   .     A
C999   C1001   1.432   .     A
C999   C1006   1.422   .     A
C1000  C1007   1.422   .     A
C1000  C1002   1.432   .     A
C1001  C1003   1.417   .     A
C1002  C1005   1.417   .     A
C1002  C443    1.409   1_556 S
C1003  C1017   1.397   .     A
C1003  C1022   1.395   .     A
C1004  O1048   1.288   .     A
C1004  C1019   1.402   .     S
C1004  O1046   1.271   .     A
C1005  C1015   1.397   .     A
C1006  C1012   1.448   .     S
C1007  C1013   1.448   .     S
C1007  C459    1.381   1_556 S
C1008  H1032   1.111   .     S
C1008  N1038   1.448   .     S
C1008  H1031   1.110   .     S
C1008  H1033   1.109   .     S
C1009  H1025   1.109   .     S
C1009  H1026   1.111   .     S
C1009  H1024   1.110   .     S
C1009  N1039   1.448   .     S
C1010  N1040   1.158   .     T
C1011  N1041   1.158   .     T
C1012  N670    1.158   1_565 S
C1014  N1044   1.158   .     T
C1015  H1023   1.082   .     S
C1015  C448    1.381   1_556 S
C1016  N1036   1.158   .     T
C1016  C647    1.459   1_565 S
C1017  H1027   1.082   .     S
C1018  C642    1.459   1_565 S
C1018  C647    1.360   1_565 S
C1020  O1049   1.285   .     A
C1020  O1051   1.282   .     A
C1021  O1052   1.282   .     A
C1021  O1050   1.285   .     A
C1022  N1038   1.429   .     S
H1029  N1099   1.029   .     S
H1030  N1038   1.031   .     S
H1034  N1039   1.031   .     S
N1035  Zn1054  2.014   .     S
N1035  H1090   1.029   .     S
N1035  N1099   1.274   .     S
N1037  Zn1053  2.014   .     S
N1043  C641    1.158   1_565 S
O1045  Zn1053  1.971   .     S
O1046  Zn1054  1.971   .     S
O1047  Zn1054  1.990   .     S
O1048  Zn1053  1.990   .     S
O1049  Zn1053  1.997   .     S
O1050  Zn1054  1.997   .     S
O1051  Zn1054  2.030   .     S
O1052  Zn1053  2.030   .     S
C1055  O1109   1.288   .     A
C1055  C1080   1.402   .     S
C1055  O1107   1.271   .     A
C1056  C1058   1.391   .     A
C1056  N1101   1.429   .     S
C1056  C1067   1.395   .     A
C1057  C1084   1.391   .     A
C1057  C1059   1.400   .     A
C1057  C1083   1.429   .     S
C1058  C1082   1.429   .     S
C1058  C1060   1.400   .     A
C1059  C1061   1.412   .     A
C1059  C1072   1.455   .     S
C1060  C1073   1.455   .     S
C1060  C1062   1.412   .     A
C1061  C1063   1.432   .     A
C1061  C1068   1.422   .     A
C1062  C1069   1.422   .     A
C1062  C1064   1.432   .     A
C1063  C1065   1.417   .     A
C1064  C1067   1.417   .     A
C1064  C505    1.409   1_556 S
C1065  C1079   1.397   .     A
C1065  C1084   1.395   .     A
C1066  O1110   1.288   .     A
C1066  C1081   1.402   .     S
C1066  O1108   1.271   .     A
C1067  C1077   1.397   .     A
C1068  C1074   1.448   .     S
C1069  C1075   1.448   .     S
C1069  C521    1.381   1_556 S
C1070  H1094   1.111   .     S
C1070  N1100   1.448   .     S
C1070  H1093   1.110   .     S
C1070  H1095   1.109   .     S
C1071  H1087   1.109   .     S
C1071  H1088   1.111   .     S
C1071  H1086   1.110   .     S
C1071  N1101   1.448   .     S
C1072  N1102   1.158   .     T
C1073  N1103   1.158   .     T
C1074  N732    1.158   1_565 S
C1076  N1106   1.158   .     T
C1077  H1085   1.082   .     S
C1077  C510    1.381   1_556 S
C1078  N1098   1.158   .     T
C1078  C709    1.459   1_565 S
C1079  H1089   1.082   .     S
C1080  C704    1.459   1_565 S
C1080  C709    1.360   1_565 S
C1082  O1111   1.285   .     A
C1082  O1113   1.282   .     A
C1083  O1114   1.282   .     A
C1083  O1112   1.285   .     A
C1084  N1100   1.429   .     S
H1091  N975    1.029   1_655 S
H1092  N1100   1.031   .     S
H1096  N1101   1.031   .     S
N1097  Zn1116  2.014   .     S
N1097  H966    1.029   1_655 S
N1097  N975    1.274   1_655 S
N1099  Zn1115  2.014   .     S
N1105  C703    1.158   1_565 S
O1107  Zn1115  1.971   .     S
O1108  Zn1116  1.971   .     S
O1109  Zn1116  1.990   .     S
O1110  Zn1115  1.990   .     S
O1111  Zn1115  1.997   .     S
O1112  Zn1116  1.997   .     S
O1113  Zn1116  2.030   .     S
O1114  Zn1115  2.030   .     S
