data_str_m3_o1_o5_pcu_sym.23
_audit_creation_date              2020-01-03
_audit_creation_method            'Materials Studio'
_symmetry_space_group_name_H-M    'P1'
_symmetry_Int_Tables_number       1
_symmetry_cell_setting            triclinic
loop_
_symmetry_equiv_pos_as_xyz
  x,y,z
_cell_length_a                    31.7919
_cell_length_b                    29.9998
_cell_length_c                    26.6767
_cell_angle_alpha                 89.9632
_cell_angle_beta                  91.5438
_cell_angle_gamma                 89.8933
loop_
_atom_site_label
_atom_site_type_symbol
_atom_site_fract_x
_atom_site_fract_y
_atom_site_fract_z
_atom_site_U_iso_or_equiv
_atom_site_adp_type
_atom_site_occupancy
C1     C     0.08688   0.16670   0.16661   0.00000  Uiso   1.00
C2     C     0.02058   0.16808   0.12093   0.00000  Uiso   1.00
C3     C     0.29061   0.16658   0.16665   0.00000  Uiso   1.00
C4     C     0.04273   0.16673   0.16670   0.00000  Uiso   1.00
C5     C     0.19360   0.02380   0.19771   0.00000  Uiso   1.00
C6     C     0.13974   0.30953   0.13562   0.00000  Uiso   1.00
C7     C     0.13972   0.02396   0.13563   0.00000  Uiso   1.00
C8     C     0.19362   0.30938   0.19769   0.00000  Uiso   1.00
C9     C     0.22153   0.04715   0.23406   0.00000  Uiso   1.00
C10    C     0.26410   0.05397   0.22372   0.00000  Uiso   1.00
C11    C     0.29161   0.07034   0.26107   0.00000  Uiso   1.00
C12    C     0.24645   0.16664   0.16673   0.00000  Uiso   1.00
C13    C     0.27663   0.08055   0.30853   0.00000  Uiso   1.00
C14    C     0.23466   0.07268   0.31937   0.00000  Uiso   1.00
C15    C     0.20742   0.05515   0.28254   0.00000  Uiso   1.00
C16    C     0.11182   0.28618   0.09925   0.00000  Uiso   1.00
C17    C     0.12597   0.27811   0.05079   0.00000  Uiso   1.00
C18    C     0.09876   0.26045   0.01397   0.00000  Uiso   1.00
C19    C     0.05677   0.25255   0.02478   0.00000  Uiso   1.00
C20    C     0.04176   0.26287   0.07221   0.00000  Uiso   1.00
C21    C     0.06925   0.27936   0.10955   0.00000  Uiso   1.00
C22    C     0.11166   0.04753   0.09946   0.00000  Uiso   1.00
C23    C     0.16661   0.16668   0.07305   0.00000  Uiso   1.00
C24    C     0.06928   0.05505   0.11030   0.00000  Uiso   1.00
C25    C     0.04177   0.07254   0.07348   0.00000  Uiso   1.00
C26    C     0.05652   0.08296   0.02597   0.00000  Uiso   1.00
C27    C     0.09824   0.07410   0.01452   0.00000  Uiso   1.00
C28    C     0.12549   0.05559   0.05087   0.00000  Uiso   1.00
C29    C     0.22169   0.28581   0.23385   0.00000  Uiso   1.00
C30    C     0.20787   0.27776   0.28245   0.00000  Uiso   1.00
C31    C     0.23511   0.25924   0.31879   0.00000  Uiso   1.00
C32    C     0.27682   0.25035   0.30732   0.00000  Uiso   1.00
C33    C     0.29158   0.26077   0.25980   0.00000  Uiso   1.00
C34    C     0.16672   0.16666   0.26028   0.00000  Uiso   1.00
C35    C     0.26407   0.27828   0.22300   0.00000  Uiso   1.00
C36    C     0.16665   0.16668   0.02184   0.00000  Uiso   1.00
C37    C     0.16667   0.16665   0.31149   0.00000  Uiso   1.00
C38    C     0.02272   0.16525   0.21251   0.00000  Uiso   1.00
C39    C     0.31061   0.16806   0.12084   0.00000  Uiso   1.00
C40    C     0.31275   0.16522   0.21241   0.00000  Uiso   1.00
H41    H     0.04052   0.16421   0.24779   0.00000  Uiso   1.00
H42    H     0.15812   0.28566   0.04195   0.00000  Uiso   1.00
H43    H     0.10998   0.25324   0.31024   0.00000  Uiso   1.00
H44    H     0.03604   0.23875   0.32945   0.00000  Uiso   1.00
H45    H     0.00890   0.25789   0.08015   0.00000  Uiso   1.00
H46    H     0.05730   0.28754   0.14607   0.00000  Uiso   1.00
H47    H     0.05753   0.04688   0.14692   0.00000  Uiso   1.00
H48    H     0.00909   0.07822   0.08191   0.00000  Uiso   1.00
H49    H     0.03577   0.09759   0.33107   0.00000  Uiso   1.00
H50    H     0.10926   0.08132   0.31072   0.00000  Uiso   1.00
H51    H     0.15744   0.04747   0.04160   0.00000  Uiso   1.00
H52    H     0.29282   0.16911   0.08556   0.00000  Uiso   1.00
H53    H     0.17592   0.28590   0.29173   0.00000  Uiso   1.00
H54    H     0.22410   0.25202   0.02260   0.00000  Uiso   1.00
H55    H     0.29756   0.23569   0.00220   0.00000  Uiso   1.00
H56    H     0.32425   0.25507   0.25135   0.00000  Uiso   1.00
H57    H     0.27581   0.28644   0.18637   0.00000  Uiso   1.00
H58    H     0.29652   0.16430   0.24761   0.00000  Uiso   1.00
H59    H     0.03683   0.16896   0.08573   0.00000  Uiso   1.00
H60    H     0.27603   0.04584   0.18717   0.00000  Uiso   1.00
H61    H     0.32446   0.07530   0.25310   0.00000  Uiso   1.00
H62    H     0.29739   0.09421   0.00387   0.00000  Uiso   1.00
H63    H     0.22347   0.07976   0.02313   0.00000  Uiso   1.00
H64    H     0.17528   0.04758   0.29140   0.00000  Uiso   1.00
N65    N     0.16667   0.28573   0.16667   0.00000  Uiso   1.00
N66    N     0.16667   0.04760   0.16667   0.00000  Uiso   1.00
O67    O     0.10559   0.20487   0.16666   0.00000  Uiso   1.00
O68    O     0.22774   0.12846   0.16667   0.00000  Uiso   1.00
O69    O     0.22774   0.20487   0.16667   0.00000  Uiso   1.00
O70    O     0.10559   0.12846   0.16666   0.00000  Uiso   1.00
O71    O     0.16667   0.20488   0.09511   0.00000  Uiso   1.00
O72    O     0.16666   0.12845   0.23822   0.00000  Uiso   1.00
O73    O     0.16666   0.20488   0.23822   0.00000  Uiso   1.00
O74    O     0.16667   0.12845   0.09511   0.00000  Uiso   1.00
Zn75   Zn    0.16667   0.21771   0.16667   0.00000  Uiso   1.00
Zn76   Zn    0.16667   0.11563   0.16667   0.00000  Uiso   1.00
C77    C     0.42022   0.16670   0.16661   0.00000  Uiso   1.00
C78    C     0.35392   0.16808   0.12093   0.00000  Uiso   1.00
C79    C     0.62394   0.16658   0.16665   0.00000  Uiso   1.00
C80    C     0.37606   0.16673   0.16670   0.00000  Uiso   1.00
C81    C     0.52693   0.02380   0.19771   0.00000  Uiso   1.00
C82    C     0.47307   0.30953   0.13562   0.00000  Uiso   1.00
C83    C     0.47306   0.02396   0.13563   0.00000  Uiso   1.00
C84    C     0.52695   0.30938   0.19769   0.00000  Uiso   1.00
C85    C     0.55486   0.04715   0.23406   0.00000  Uiso   1.00
C86    C     0.59743   0.05397   0.22372   0.00000  Uiso   1.00
C87    C     0.62495   0.07034   0.26107   0.00000  Uiso   1.00
C88    C     0.57978   0.16664   0.16673   0.00000  Uiso   1.00
C89    C     0.60997   0.08055   0.30853   0.00000  Uiso   1.00
C90    C     0.56799   0.07268   0.31937   0.00000  Uiso   1.00
C91    C     0.54075   0.05515   0.28254   0.00000  Uiso   1.00
C92    C     0.44516   0.28618   0.09925   0.00000  Uiso   1.00
C93    C     0.45930   0.27811   0.05079   0.00000  Uiso   1.00
C94    C     0.43209   0.26045   0.01397   0.00000  Uiso   1.00
C95    C     0.39010   0.25255   0.02478   0.00000  Uiso   1.00
C96    C     0.37509   0.26287   0.07221   0.00000  Uiso   1.00
C97    C     0.40258   0.27936   0.10955   0.00000  Uiso   1.00
C98    C     0.44500   0.04753   0.09946   0.00000  Uiso   1.00
C99    C     0.49994   0.16668   0.07305   0.00000  Uiso   1.00
C100   C     0.40261   0.05505   0.11030   0.00000  Uiso   1.00
C101   C     0.37510   0.07254   0.07348   0.00000  Uiso   1.00
C102   C     0.38986   0.08296   0.02597   0.00000  Uiso   1.00
C103   C     0.43158   0.07410   0.01452   0.00000  Uiso   1.00
C104   C     0.45882   0.05559   0.05087   0.00000  Uiso   1.00
C105   C     0.55502   0.28581   0.23385   0.00000  Uiso   1.00
C106   C     0.54120   0.27776   0.28245   0.00000  Uiso   1.00
C107   C     0.56844   0.25924   0.31879   0.00000  Uiso   1.00
C108   C     0.61016   0.25035   0.30732   0.00000  Uiso   1.00
C109   C     0.62491   0.26077   0.25980   0.00000  Uiso   1.00
C110   C     0.50005   0.16666   0.26028   0.00000  Uiso   1.00
C111   C     0.59740   0.27828   0.22300   0.00000  Uiso   1.00
C112   C     0.49998   0.16668   0.02184   0.00000  Uiso   1.00
C113   C     0.50000   0.16665   0.31149   0.00000  Uiso   1.00
C114   C     0.35606   0.16525   0.21251   0.00000  Uiso   1.00
C115   C     0.64395   0.16806   0.12084   0.00000  Uiso   1.00
C116   C     0.64609   0.16522   0.21241   0.00000  Uiso   1.00
H117   H     0.37386   0.16421   0.24779   0.00000  Uiso   1.00
H118   H     0.49146   0.28566   0.04195   0.00000  Uiso   1.00
H119   H     0.44331   0.25324   0.31024   0.00000  Uiso   1.00
H120   H     0.36937   0.23875   0.32945   0.00000  Uiso   1.00
H121   H     0.34223   0.25789   0.08015   0.00000  Uiso   1.00
H122   H     0.39063   0.28754   0.14607   0.00000  Uiso   1.00
H123   H     0.39086   0.04688   0.14692   0.00000  Uiso   1.00
H124   H     0.34242   0.07822   0.08191   0.00000  Uiso   1.00
H125   H     0.36911   0.09759   0.33107   0.00000  Uiso   1.00
H126   H     0.44260   0.08132   0.31072   0.00000  Uiso   1.00
H127   H     0.49078   0.04747   0.04160   0.00000  Uiso   1.00
H128   H     0.62615   0.16911   0.08556   0.00000  Uiso   1.00
H129   H     0.50925   0.28590   0.29173   0.00000  Uiso   1.00
H130   H     0.55743   0.25202   0.02260   0.00000  Uiso   1.00
H131   H     0.63089   0.23569   0.00220   0.00000  Uiso   1.00
H132   H     0.65759   0.25507   0.25135   0.00000  Uiso   1.00
H133   H     0.60914   0.28644   0.18637   0.00000  Uiso   1.00
H134   H     0.62985   0.16430   0.24761   0.00000  Uiso   1.00
H135   H     0.37016   0.16896   0.08573   0.00000  Uiso   1.00
H136   H     0.60936   0.04584   0.18717   0.00000  Uiso   1.00
H137   H     0.65780   0.07530   0.25310   0.00000  Uiso   1.00
H138   H     0.63072   0.09421   0.00387   0.00000  Uiso   1.00
H139   H     0.55681   0.07976   0.02313   0.00000  Uiso   1.00
H140   H     0.50861   0.04758   0.29140   0.00000  Uiso   1.00
N141   N     0.50000   0.28573   0.16667   0.00000  Uiso   1.00
N142   N     0.50000   0.04760   0.16667   0.00000  Uiso   1.00
O143   O     0.43892   0.20487   0.16666   0.00000  Uiso   1.00
O144   O     0.56108   0.12846   0.16667   0.00000  Uiso   1.00
O145   O     0.56108   0.20487   0.16667   0.00000  Uiso   1.00
O146   O     0.43892   0.12846   0.16666   0.00000  Uiso   1.00
O147   O     0.50000   0.20488   0.09511   0.00000  Uiso   1.00
O148   O     0.50000   0.12845   0.23822   0.00000  Uiso   1.00
O149   O     0.50000   0.20488   0.23822   0.00000  Uiso   1.00
O150   O     0.50000   0.12845   0.09511   0.00000  Uiso   1.00
Zn151  Zn    0.50000   0.21771   0.16667   0.00000  Uiso   1.00
Zn152  Zn    0.50000   0.11563   0.16667   0.00000  Uiso   1.00
C153   C     0.75355   0.16670   0.16661   0.00000  Uiso   1.00
C154   C     0.68725   0.16808   0.12093   0.00000  Uiso   1.00
C155   C     0.95728   0.16658   0.16665   0.00000  Uiso   1.00
C156   C     0.70939   0.16673   0.16670   0.00000  Uiso   1.00
C157   C     0.86027   0.02380   0.19771   0.00000  Uiso   1.00
C158   C     0.80640   0.30953   0.13562   0.00000  Uiso   1.00
C159   C     0.80639   0.02396   0.13563   0.00000  Uiso   1.00
C160   C     0.86028   0.30938   0.19769   0.00000  Uiso   1.00
C161   C     0.88820   0.04715   0.23406   0.00000  Uiso   1.00
C162   C     0.93076   0.05397   0.22372   0.00000  Uiso   1.00
C163   C     0.95828   0.07034   0.26107   0.00000  Uiso   1.00
C164   C     0.91312   0.16664   0.16673   0.00000  Uiso   1.00
C165   C     0.94330   0.08055   0.30853   0.00000  Uiso   1.00
C166   C     0.90132   0.07268   0.31937   0.00000  Uiso   1.00
C167   C     0.87409   0.05515   0.28254   0.00000  Uiso   1.00
C168   C     0.77849   0.28618   0.09925   0.00000  Uiso   1.00
C169   C     0.79264   0.27811   0.05079   0.00000  Uiso   1.00
C170   C     0.76543   0.26045   0.01397   0.00000  Uiso   1.00
C171   C     0.72344   0.25255   0.02478   0.00000  Uiso   1.00
C172   C     0.70843   0.26287   0.07221   0.00000  Uiso   1.00
C173   C     0.73592   0.27936   0.10955   0.00000  Uiso   1.00
C174   C     0.77833   0.04753   0.09946   0.00000  Uiso   1.00
C175   C     0.83327   0.16668   0.07305   0.00000  Uiso   1.00
C176   C     0.73594   0.05505   0.11030   0.00000  Uiso   1.00
C177   C     0.70843   0.07254   0.07348   0.00000  Uiso   1.00
C178   C     0.72319   0.08296   0.02597   0.00000  Uiso   1.00
C179   C     0.76491   0.07410   0.01452   0.00000  Uiso   1.00
C180   C     0.79216   0.05559   0.05087   0.00000  Uiso   1.00
C181   C     0.88835   0.28581   0.23385   0.00000  Uiso   1.00
C182   C     0.87454   0.27776   0.28245   0.00000  Uiso   1.00
C183   C     0.90178   0.25924   0.31879   0.00000  Uiso   1.00
C184   C     0.94349   0.25035   0.30732   0.00000  Uiso   1.00
C185   C     0.95825   0.26077   0.25980   0.00000  Uiso   1.00
C186   C     0.83339   0.16666   0.26028   0.00000  Uiso   1.00
C187   C     0.93073   0.27828   0.22300   0.00000  Uiso   1.00
C188   C     0.83331   0.16668   0.02184   0.00000  Uiso   1.00
C189   C     0.83334   0.16665   0.31149   0.00000  Uiso   1.00
C190   C     0.68939   0.16525   0.21251   0.00000  Uiso   1.00
C191   C     0.97728   0.16806   0.12084   0.00000  Uiso   1.00
C192   C     0.97942   0.16522   0.21241   0.00000  Uiso   1.00
H193   H     0.70719   0.16421   0.24779   0.00000  Uiso   1.00
H194   H     0.82479   0.28566   0.04195   0.00000  Uiso   1.00
H195   H     0.77665   0.25324   0.31024   0.00000  Uiso   1.00
H196   H     0.70270   0.23875   0.32945   0.00000  Uiso   1.00
H197   H     0.67556   0.25789   0.08015   0.00000  Uiso   1.00
H198   H     0.72396   0.28754   0.14607   0.00000  Uiso   1.00
H199   H     0.72420   0.04688   0.14692   0.00000  Uiso   1.00
H200   H     0.67575   0.07822   0.08191   0.00000  Uiso   1.00
H201   H     0.70244   0.09759   0.33107   0.00000  Uiso   1.00
H202   H     0.77593   0.08132   0.31072   0.00000  Uiso   1.00
H203   H     0.82411   0.04747   0.04160   0.00000  Uiso   1.00
H204   H     0.95948   0.16911   0.08556   0.00000  Uiso   1.00
H205   H     0.84259   0.28590   0.29173   0.00000  Uiso   1.00
H206   H     0.89076   0.25202   0.02260   0.00000  Uiso   1.00
H207   H     0.96422   0.23569   0.00220   0.00000  Uiso   1.00
H208   H     0.99092   0.25507   0.25135   0.00000  Uiso   1.00
H209   H     0.94248   0.28644   0.18637   0.00000  Uiso   1.00
H210   H     0.96318   0.16430   0.24761   0.00000  Uiso   1.00
H211   H     0.70349   0.16896   0.08573   0.00000  Uiso   1.00
H212   H     0.94269   0.04584   0.18717   0.00000  Uiso   1.00
H213   H     0.99113   0.07530   0.25310   0.00000  Uiso   1.00
H214   H     0.96405   0.09421   0.00387   0.00000  Uiso   1.00
H215   H     0.89014   0.07976   0.02313   0.00000  Uiso   1.00
H216   H     0.84195   0.04758   0.29140   0.00000  Uiso   1.00
N217   N     0.83333   0.28573   0.16667   0.00000  Uiso   1.00
N218   N     0.83333   0.04760   0.16667   0.00000  Uiso   1.00
O219   O     0.77226   0.20487   0.16666   0.00000  Uiso   1.00
O220   O     0.89441   0.12846   0.16667   0.00000  Uiso   1.00
O221   O     0.89441   0.20487   0.16667   0.00000  Uiso   1.00
O222   O     0.77226   0.12846   0.16666   0.00000  Uiso   1.00
O223   O     0.83334   0.20488   0.09511   0.00000  Uiso   1.00
O224   O     0.83333   0.12845   0.23822   0.00000  Uiso   1.00
O225   O     0.83333   0.20488   0.23822   0.00000  Uiso   1.00
O226   O     0.83334   0.12845   0.09511   0.00000  Uiso   1.00
Zn227  Zn    0.83333   0.21771   0.16667   0.00000  Uiso   1.00
Zn228  Zn    0.83333   0.11563   0.16667   0.00000  Uiso   1.00
C229   C     0.08688   0.50003   0.16661   0.00000  Uiso   1.00
C230   C     0.02058   0.50141   0.12093   0.00000  Uiso   1.00
C231   C     0.29061   0.49991   0.16665   0.00000  Uiso   1.00
C232   C     0.04273   0.50007   0.16670   0.00000  Uiso   1.00
C233   C     0.19360   0.35714   0.19771   0.00000  Uiso   1.00
C234   C     0.13974   0.64287   0.13562   0.00000  Uiso   1.00
C235   C     0.13972   0.35729   0.13563   0.00000  Uiso   1.00
C236   C     0.19362   0.64271   0.19769   0.00000  Uiso   1.00
C237   C     0.22153   0.38049   0.23406   0.00000  Uiso   1.00
C238   C     0.26410   0.38731   0.22372   0.00000  Uiso   1.00
C239   C     0.29161   0.40368   0.26107   0.00000  Uiso   1.00
C240   C     0.24645   0.49997   0.16673   0.00000  Uiso   1.00
C241   C     0.27663   0.41389   0.30853   0.00000  Uiso   1.00
C242   C     0.23466   0.40602   0.31937   0.00000  Uiso   1.00
C243   C     0.20742   0.38849   0.28254   0.00000  Uiso   1.00
C244   C     0.11182   0.61951   0.09925   0.00000  Uiso   1.00
C245   C     0.12597   0.61144   0.05079   0.00000  Uiso   1.00
C246   C     0.09876   0.59379   0.01397   0.00000  Uiso   1.00
C247   C     0.05677   0.58588   0.02478   0.00000  Uiso   1.00
C248   C     0.04176   0.59621   0.07221   0.00000  Uiso   1.00
C249   C     0.06925   0.61269   0.10955   0.00000  Uiso   1.00
C250   C     0.11166   0.38086   0.09946   0.00000  Uiso   1.00
C251   C     0.16661   0.50001   0.07305   0.00000  Uiso   1.00
C252   C     0.06928   0.38839   0.11030   0.00000  Uiso   1.00
C253   C     0.04177   0.40588   0.07348   0.00000  Uiso   1.00
C254   C     0.05652   0.41629   0.02597   0.00000  Uiso   1.00
C255   C     0.09824   0.40743   0.01452   0.00000  Uiso   1.00
C256   C     0.12549   0.38892   0.05087   0.00000  Uiso   1.00
C257   C     0.22169   0.61914   0.23385   0.00000  Uiso   1.00
C258   C     0.20787   0.61110   0.28245   0.00000  Uiso   1.00
C259   C     0.23511   0.59258   0.31879   0.00000  Uiso   1.00
C260   C     0.27682   0.58368   0.30732   0.00000  Uiso   1.00
C261   C     0.29158   0.59410   0.25980   0.00000  Uiso   1.00
C262   C     0.16672   0.49999   0.26028   0.00000  Uiso   1.00
C263   C     0.26407   0.61161   0.22300   0.00000  Uiso   1.00
C264   C     0.16665   0.50001   0.02184   0.00000  Uiso   1.00
C265   C     0.16667   0.49999   0.31149   0.00000  Uiso   1.00
C266   C     0.02272   0.49859   0.21251   0.00000  Uiso   1.00
C267   C     0.31061   0.50139   0.12084   0.00000  Uiso   1.00
C268   C     0.31275   0.49855   0.21241   0.00000  Uiso   1.00
H269   H     0.04052   0.49754   0.24779   0.00000  Uiso   1.00
H270   H     0.15812   0.61899   0.04195   0.00000  Uiso   1.00
H271   H     0.10998   0.58657   0.31024   0.00000  Uiso   1.00
H272   H     0.03604   0.57208   0.32945   0.00000  Uiso   1.00
H273   H     0.00890   0.59122   0.08015   0.00000  Uiso   1.00
H274   H     0.05730   0.62088   0.14607   0.00000  Uiso   1.00
H275   H     0.05753   0.38022   0.14692   0.00000  Uiso   1.00
H276   H     0.00909   0.41156   0.08191   0.00000  Uiso   1.00
H277   H     0.03577   0.43092   0.33107   0.00000  Uiso   1.00
H278   H     0.10926   0.41466   0.31072   0.00000  Uiso   1.00
H279   H     0.15744   0.38080   0.04160   0.00000  Uiso   1.00
H280   H     0.29282   0.50245   0.08556   0.00000  Uiso   1.00
H281   H     0.17592   0.61924   0.29173   0.00000  Uiso   1.00
H282   H     0.22410   0.58536   0.02260   0.00000  Uiso   1.00
H283   H     0.29756   0.56902   0.00220   0.00000  Uiso   1.00
H284   H     0.32425   0.58840   0.25135   0.00000  Uiso   1.00
H285   H     0.27581   0.61977   0.18637   0.00000  Uiso   1.00
H286   H     0.29652   0.49763   0.24761   0.00000  Uiso   1.00
H287   H     0.03683   0.50230   0.08573   0.00000  Uiso   1.00
H288   H     0.27603   0.37917   0.18717   0.00000  Uiso   1.00
H289   H     0.32446   0.40863   0.25310   0.00000  Uiso   1.00
H290   H     0.29739   0.42754   0.00387   0.00000  Uiso   1.00
H291   H     0.22347   0.41310   0.02313   0.00000  Uiso   1.00
H292   H     0.17528   0.38091   0.29140   0.00000  Uiso   1.00
N293   N     0.16667   0.61907   0.16667   0.00000  Uiso   1.00
N294   N     0.16667   0.38093   0.16667   0.00000  Uiso   1.00
O295   O     0.10559   0.53821   0.16666   0.00000  Uiso   1.00
O296   O     0.22774   0.46179   0.16667   0.00000  Uiso   1.00
O297   O     0.22774   0.53821   0.16667   0.00000  Uiso   1.00
O298   O     0.10559   0.46179   0.16666   0.00000  Uiso   1.00
O299   O     0.16667   0.53821   0.09511   0.00000  Uiso   1.00
O300   O     0.16666   0.46179   0.23822   0.00000  Uiso   1.00
O301   O     0.16666   0.53821   0.23822   0.00000  Uiso   1.00
O302   O     0.16667   0.46179   0.09511   0.00000  Uiso   1.00
Zn303  Zn    0.16667   0.55104   0.16667   0.00000  Uiso   1.00
Zn304  Zn    0.16667   0.44896   0.16667   0.00000  Uiso   1.00
C305   C     0.42022   0.50003   0.16661   0.00000  Uiso   1.00
C306   C     0.35392   0.50141   0.12093   0.00000  Uiso   1.00
C307   C     0.62394   0.49991   0.16665   0.00000  Uiso   1.00
C308   C     0.37606   0.50007   0.16670   0.00000  Uiso   1.00
C309   C     0.52693   0.35714   0.19771   0.00000  Uiso   1.00
C310   C     0.47307   0.64287   0.13562   0.00000  Uiso   1.00
C311   C     0.47306   0.35729   0.13563   0.00000  Uiso   1.00
C312   C     0.52695   0.64271   0.19769   0.00000  Uiso   1.00
C313   C     0.55486   0.38049   0.23406   0.00000  Uiso   1.00
C314   C     0.59743   0.38731   0.22372   0.00000  Uiso   1.00
C315   C     0.62495   0.40368   0.26107   0.00000  Uiso   1.00
C316   C     0.57978   0.49997   0.16673   0.00000  Uiso   1.00
C317   C     0.60997   0.41389   0.30853   0.00000  Uiso   1.00
C318   C     0.56799   0.40602   0.31937   0.00000  Uiso   1.00
C319   C     0.54075   0.38849   0.28254   0.00000  Uiso   1.00
C320   C     0.44516   0.61951   0.09925   0.00000  Uiso   1.00
C321   C     0.45930   0.61144   0.05079   0.00000  Uiso   1.00
C322   C     0.43209   0.59379   0.01397   0.00000  Uiso   1.00
C323   C     0.39010   0.58588   0.02478   0.00000  Uiso   1.00
C324   C     0.37509   0.59621   0.07221   0.00000  Uiso   1.00
C325   C     0.40258   0.61269   0.10955   0.00000  Uiso   1.00
C326   C     0.44500   0.38086   0.09946   0.00000  Uiso   1.00
C327   C     0.49994   0.50001   0.07305   0.00000  Uiso   1.00
C328   C     0.40261   0.38839   0.11030   0.00000  Uiso   1.00
C329   C     0.37510   0.40588   0.07348   0.00000  Uiso   1.00
C330   C     0.38986   0.41629   0.02597   0.00000  Uiso   1.00
C331   C     0.43158   0.40743   0.01452   0.00000  Uiso   1.00
C332   C     0.45882   0.38892   0.05087   0.00000  Uiso   1.00
C333   C     0.55502   0.61914   0.23385   0.00000  Uiso   1.00
C334   C     0.54120   0.61110   0.28245   0.00000  Uiso   1.00
C335   C     0.56844   0.59258   0.31879   0.00000  Uiso   1.00
C336   C     0.61016   0.58368   0.30732   0.00000  Uiso   1.00
C337   C     0.62491   0.59410   0.25980   0.00000  Uiso   1.00
C338   C     0.50005   0.49999   0.26028   0.00000  Uiso   1.00
C339   C     0.59740   0.61161   0.22300   0.00000  Uiso   1.00
C340   C     0.49998   0.50001   0.02184   0.00000  Uiso   1.00
C341   C     0.50000   0.49999   0.31149   0.00000  Uiso   1.00
C342   C     0.35606   0.49859   0.21251   0.00000  Uiso   1.00
C343   C     0.64395   0.50139   0.12084   0.00000  Uiso   1.00
C344   C     0.64609   0.49855   0.21241   0.00000  Uiso   1.00
H345   H     0.37386   0.49754   0.24779   0.00000  Uiso   1.00
H346   H     0.49146   0.61899   0.04195   0.00000  Uiso   1.00
H347   H     0.44331   0.58657   0.31024   0.00000  Uiso   1.00
H348   H     0.36937   0.57208   0.32945   0.00000  Uiso   1.00
H349   H     0.34223   0.59122   0.08015   0.00000  Uiso   1.00
H350   H     0.39063   0.62088   0.14607   0.00000  Uiso   1.00
H351   H     0.39086   0.38022   0.14692   0.00000  Uiso   1.00
H352   H     0.34242   0.41156   0.08191   0.00000  Uiso   1.00
H353   H     0.36911   0.43092   0.33107   0.00000  Uiso   1.00
H354   H     0.44260   0.41466   0.31072   0.00000  Uiso   1.00
H355   H     0.49078   0.38080   0.04160   0.00000  Uiso   1.00
H356   H     0.62615   0.50245   0.08556   0.00000  Uiso   1.00
H357   H     0.50925   0.61924   0.29173   0.00000  Uiso   1.00
H358   H     0.55743   0.58536   0.02260   0.00000  Uiso   1.00
H359   H     0.63089   0.56902   0.00220   0.00000  Uiso   1.00
H360   H     0.65759   0.58840   0.25135   0.00000  Uiso   1.00
H361   H     0.60914   0.61977   0.18637   0.00000  Uiso   1.00
H362   H     0.62985   0.49763   0.24761   0.00000  Uiso   1.00
H363   H     0.37016   0.50230   0.08573   0.00000  Uiso   1.00
H364   H     0.60936   0.37917   0.18717   0.00000  Uiso   1.00
H365   H     0.65780   0.40863   0.25310   0.00000  Uiso   1.00
H366   H     0.63072   0.42754   0.00387   0.00000  Uiso   1.00
H367   H     0.55681   0.41310   0.02313   0.00000  Uiso   1.00
H368   H     0.50861   0.38091   0.29140   0.00000  Uiso   1.00
N369   N     0.50000   0.61907   0.16667   0.00000  Uiso   1.00
N370   N     0.50000   0.38093   0.16667   0.00000  Uiso   1.00
O371   O     0.43892   0.53821   0.16666   0.00000  Uiso   1.00
O372   O     0.56108   0.46179   0.16667   0.00000  Uiso   1.00
O373   O     0.56108   0.53821   0.16667   0.00000  Uiso   1.00
O374   O     0.43892   0.46179   0.16666   0.00000  Uiso   1.00
O375   O     0.50000   0.53821   0.09511   0.00000  Uiso   1.00
O376   O     0.50000   0.46179   0.23822   0.00000  Uiso   1.00
O377   O     0.50000   0.53821   0.23822   0.00000  Uiso   1.00
O378   O     0.50000   0.46179   0.09511   0.00000  Uiso   1.00
Zn379  Zn    0.50000   0.55104   0.16667   0.00000  Uiso   1.00
Zn380  Zn    0.50000   0.44896   0.16667   0.00000  Uiso   1.00
C381   C     0.75355   0.50003   0.16661   0.00000  Uiso   1.00
C382   C     0.68725   0.50141   0.12093   0.00000  Uiso   1.00
C383   C     0.95728   0.49991   0.16665   0.00000  Uiso   1.00
C384   C     0.70939   0.50007   0.16670   0.00000  Uiso   1.00
C385   C     0.86027   0.35714   0.19771   0.00000  Uiso   1.00
C386   C     0.80640   0.64287   0.13562   0.00000  Uiso   1.00
C387   C     0.80639   0.35729   0.13563   0.00000  Uiso   1.00
C388   C     0.86028   0.64271   0.19769   0.00000  Uiso   1.00
C389   C     0.88820   0.38049   0.23406   0.00000  Uiso   1.00
C390   C     0.93076   0.38731   0.22372   0.00000  Uiso   1.00
C391   C     0.95828   0.40368   0.26107   0.00000  Uiso   1.00
C392   C     0.91312   0.49997   0.16673   0.00000  Uiso   1.00
C393   C     0.94330   0.41389   0.30853   0.00000  Uiso   1.00
C394   C     0.90132   0.40602   0.31937   0.00000  Uiso   1.00
C395   C     0.87409   0.38849   0.28254   0.00000  Uiso   1.00
C396   C     0.77849   0.61951   0.09925   0.00000  Uiso   1.00
C397   C     0.79264   0.61144   0.05079   0.00000  Uiso   1.00
C398   C     0.76543   0.59379   0.01397   0.00000  Uiso   1.00
C399   C     0.72344   0.58588   0.02478   0.00000  Uiso   1.00
C400   C     0.70843   0.59621   0.07221   0.00000  Uiso   1.00
C401   C     0.73592   0.61269   0.10955   0.00000  Uiso   1.00
C402   C     0.77833   0.38086   0.09946   0.00000  Uiso   1.00
C403   C     0.83327   0.50001   0.07305   0.00000  Uiso   1.00
C404   C     0.73594   0.38839   0.11030   0.00000  Uiso   1.00
C405   C     0.70843   0.40588   0.07348   0.00000  Uiso   1.00
C406   C     0.72319   0.41629   0.02597   0.00000  Uiso   1.00
C407   C     0.76491   0.40743   0.01452   0.00000  Uiso   1.00
C408   C     0.79216   0.38892   0.05087   0.00000  Uiso   1.00
C409   C     0.88835   0.61914   0.23385   0.00000  Uiso   1.00
C410   C     0.87454   0.61110   0.28245   0.00000  Uiso   1.00
C411   C     0.90178   0.59258   0.31879   0.00000  Uiso   1.00
C412   C     0.94349   0.58368   0.30732   0.00000  Uiso   1.00
C413   C     0.95825   0.59410   0.25980   0.00000  Uiso   1.00
C414   C     0.83339   0.49999   0.26028   0.00000  Uiso   1.00
C415   C     0.93073   0.61161   0.22300   0.00000  Uiso   1.00
C416   C     0.83331   0.50001   0.02184   0.00000  Uiso   1.00
C417   C     0.83334   0.49999   0.31149   0.00000  Uiso   1.00
C418   C     0.68939   0.49859   0.21251   0.00000  Uiso   1.00
C419   C     0.97728   0.50139   0.12084   0.00000  Uiso   1.00
C420   C     0.97942   0.49855   0.21241   0.00000  Uiso   1.00
H421   H     0.70719   0.49754   0.24779   0.00000  Uiso   1.00
H422   H     0.82479   0.61899   0.04195   0.00000  Uiso   1.00
H423   H     0.77665   0.58657   0.31024   0.00000  Uiso   1.00
H424   H     0.70270   0.57208   0.32945   0.00000  Uiso   1.00
H425   H     0.67556   0.59122   0.08015   0.00000  Uiso   1.00
H426   H     0.72396   0.62088   0.14607   0.00000  Uiso   1.00
H427   H     0.72420   0.38022   0.14692   0.00000  Uiso   1.00
H428   H     0.67575   0.41156   0.08191   0.00000  Uiso   1.00
H429   H     0.70244   0.43092   0.33107   0.00000  Uiso   1.00
H430   H     0.77593   0.41466   0.31072   0.00000  Uiso   1.00
H431   H     0.82411   0.38080   0.04160   0.00000  Uiso   1.00
H432   H     0.95948   0.50245   0.08556   0.00000  Uiso   1.00
H433   H     0.84259   0.61924   0.29173   0.00000  Uiso   1.00
H434   H     0.89076   0.58536   0.02260   0.00000  Uiso   1.00
H435   H     0.96422   0.56902   0.00220   0.00000  Uiso   1.00
H436   H     0.99092   0.58840   0.25135   0.00000  Uiso   1.00
H437   H     0.94248   0.61977   0.18637   0.00000  Uiso   1.00
H438   H     0.96318   0.49763   0.24761   0.00000  Uiso   1.00
H439   H     0.70349   0.50230   0.08573   0.00000  Uiso   1.00
H440   H     0.94269   0.37917   0.18717   0.00000  Uiso   1.00
H441   H     0.99113   0.40863   0.25310   0.00000  Uiso   1.00
H442   H     0.96405   0.42754   0.00387   0.00000  Uiso   1.00
H443   H     0.89014   0.41310   0.02313   0.00000  Uiso   1.00
H444   H     0.84195   0.38091   0.29140   0.00000  Uiso   1.00
N445   N     0.83333   0.61907   0.16667   0.00000  Uiso   1.00
N446   N     0.83333   0.38093   0.16667   0.00000  Uiso   1.00
O447   O     0.77226   0.53821   0.16666   0.00000  Uiso   1.00
O448   O     0.89441   0.46179   0.16667   0.00000  Uiso   1.00
O449   O     0.89441   0.53821   0.16667   0.00000  Uiso   1.00
O450   O     0.77226   0.46179   0.16666   0.00000  Uiso   1.00
O451   O     0.83334   0.53821   0.09511   0.00000  Uiso   1.00
O452   O     0.83333   0.46179   0.23822   0.00000  Uiso   1.00
O453   O     0.83333   0.53821   0.23822   0.00000  Uiso   1.00
O454   O     0.83334   0.46179   0.09511   0.00000  Uiso   1.00
Zn455  Zn    0.83333   0.55104   0.16667   0.00000  Uiso   1.00
Zn456  Zn    0.83333   0.44896   0.16667   0.00000  Uiso   1.00
C457   C     0.08688   0.83336   0.16661   0.00000  Uiso   1.00
C458   C     0.02058   0.83474   0.12093   0.00000  Uiso   1.00
C459   C     0.29061   0.83325   0.16665   0.00000  Uiso   1.00
C460   C     0.04273   0.83340   0.16670   0.00000  Uiso   1.00
C461   C     0.19360   0.69047   0.19771   0.00000  Uiso   1.00
C462   C     0.13974   0.97620   0.13562   0.00000  Uiso   1.00
C463   C     0.13972   0.69062   0.13563   0.00000  Uiso   1.00
C464   C     0.19362   0.97605   0.19769   0.00000  Uiso   1.00
C465   C     0.22153   0.71382   0.23406   0.00000  Uiso   1.00
C466   C     0.26410   0.72064   0.22372   0.00000  Uiso   1.00
C467   C     0.29161   0.73701   0.26107   0.00000  Uiso   1.00
C468   C     0.24645   0.83330   0.16673   0.00000  Uiso   1.00
C469   C     0.27663   0.74722   0.30853   0.00000  Uiso   1.00
C470   C     0.23466   0.73935   0.31937   0.00000  Uiso   1.00
C471   C     0.20742   0.72182   0.28254   0.00000  Uiso   1.00
C472   C     0.11182   0.95285   0.09925   0.00000  Uiso   1.00
C473   C     0.12597   0.94477   0.05079   0.00000  Uiso   1.00
C474   C     0.09876   0.92712   0.01397   0.00000  Uiso   1.00
C475   C     0.05677   0.91922   0.02478   0.00000  Uiso   1.00
C476   C     0.04176   0.92954   0.07221   0.00000  Uiso   1.00
C477   C     0.06925   0.94603   0.10955   0.00000  Uiso   1.00
C478   C     0.11166   0.71420   0.09946   0.00000  Uiso   1.00
C479   C     0.16661   0.83334   0.07305   0.00000  Uiso   1.00
C480   C     0.06928   0.72172   0.11030   0.00000  Uiso   1.00
C481   C     0.04177   0.73921   0.07348   0.00000  Uiso   1.00
C482   C     0.05652   0.74962   0.02597   0.00000  Uiso   1.00
C483   C     0.09824   0.74076   0.01452   0.00000  Uiso   1.00
C484   C     0.12549   0.72225   0.05087   0.00000  Uiso   1.00
C485   C     0.22169   0.95248   0.23385   0.00000  Uiso   1.00
C486   C     0.20787   0.94443   0.28245   0.00000  Uiso   1.00
C487   C     0.23511   0.92591   0.31879   0.00000  Uiso   1.00
C488   C     0.27682   0.91702   0.30732   0.00000  Uiso   1.00
C489   C     0.29158   0.92744   0.25980   0.00000  Uiso   1.00
C490   C     0.16672   0.83332   0.26028   0.00000  Uiso   1.00
C491   C     0.26407   0.94494   0.22300   0.00000  Uiso   1.00
C492   C     0.16665   0.83335   0.02184   0.00000  Uiso   1.00
C493   C     0.16667   0.83332   0.31149   0.00000  Uiso   1.00
C494   C     0.02272   0.83192   0.21251   0.00000  Uiso   1.00
C495   C     0.31061   0.83473   0.12084   0.00000  Uiso   1.00
C496   C     0.31275   0.83189   0.21241   0.00000  Uiso   1.00
H497   H     0.04052   0.83088   0.24779   0.00000  Uiso   1.00
H498   H     0.15812   0.95233   0.04195   0.00000  Uiso   1.00
H499   H     0.10998   0.91990   0.31024   0.00000  Uiso   1.00
H500   H     0.03604   0.90541   0.32945   0.00000  Uiso   1.00
H501   H     0.00890   0.92456   0.08015   0.00000  Uiso   1.00
H502   H     0.05730   0.95421   0.14607   0.00000  Uiso   1.00
H503   H     0.05753   0.71355   0.14692   0.00000  Uiso   1.00
H504   H     0.00909   0.74489   0.08191   0.00000  Uiso   1.00
H505   H     0.03577   0.76425   0.33107   0.00000  Uiso   1.00
H506   H     0.10926   0.74799   0.31072   0.00000  Uiso   1.00
H507   H     0.15744   0.71414   0.04160   0.00000  Uiso   1.00
H508   H     0.29282   0.83578   0.08556   0.00000  Uiso   1.00
H509   H     0.17592   0.95257   0.29173   0.00000  Uiso   1.00
H510   H     0.22410   0.91869   0.02260   0.00000  Uiso   1.00
H511   H     0.29756   0.90235   0.00220   0.00000  Uiso   1.00
H512   H     0.32425   0.92174   0.25135   0.00000  Uiso   1.00
H513   H     0.27581   0.95310   0.18637   0.00000  Uiso   1.00
H514   H     0.29652   0.83096   0.24761   0.00000  Uiso   1.00
H515   H     0.03683   0.83563   0.08573   0.00000  Uiso   1.00
H516   H     0.27603   0.71251   0.18717   0.00000  Uiso   1.00
H517   H     0.32446   0.74197   0.25310   0.00000  Uiso   1.00
H518   H     0.29739   0.76087   0.00387   0.00000  Uiso   1.00
H519   H     0.22347   0.74643   0.02313   0.00000  Uiso   1.00
H520   H     0.17528   0.71424   0.29140   0.00000  Uiso   1.00
N521   N     0.16667   0.95240   0.16667   0.00000  Uiso   1.00
N522   N     0.16667   0.71427   0.16667   0.00000  Uiso   1.00
O523   O     0.10559   0.87154   0.16666   0.00000  Uiso   1.00
O524   O     0.22774   0.79513   0.16667   0.00000  Uiso   1.00
O525   O     0.22774   0.87154   0.16667   0.00000  Uiso   1.00
O526   O     0.10559   0.79513   0.16666   0.00000  Uiso   1.00
O527   O     0.16667   0.87155   0.09511   0.00000  Uiso   1.00
O528   O     0.16666   0.79512   0.23822   0.00000  Uiso   1.00
O529   O     0.16666   0.87155   0.23822   0.00000  Uiso   1.00
O530   O     0.16667   0.79512   0.09511   0.00000  Uiso   1.00
Zn531  Zn    0.16667   0.88437   0.16667   0.00000  Uiso   1.00
Zn532  Zn    0.16667   0.78229   0.16667   0.00000  Uiso   1.00
C533   C     0.42022   0.83336   0.16661   0.00000  Uiso   1.00
C534   C     0.35392   0.83474   0.12093   0.00000  Uiso   1.00
C535   C     0.62394   0.83325   0.16665   0.00000  Uiso   1.00
C536   C     0.37606   0.83340   0.16670   0.00000  Uiso   1.00
C537   C     0.52693   0.69047   0.19771   0.00000  Uiso   1.00
C538   C     0.47307   0.97620   0.13562   0.00000  Uiso   1.00
C539   C     0.47306   0.69062   0.13563   0.00000  Uiso   1.00
C540   C     0.52695   0.97605   0.19769   0.00000  Uiso   1.00
C541   C     0.55486   0.71382   0.23406   0.00000  Uiso   1.00
C542   C     0.59743   0.72064   0.22372   0.00000  Uiso   1.00
C543   C     0.62495   0.73701   0.26107   0.00000  Uiso   1.00
C544   C     0.57978   0.83330   0.16673   0.00000  Uiso   1.00
C545   C     0.60997   0.74722   0.30853   0.00000  Uiso   1.00
C546   C     0.56799   0.73935   0.31937   0.00000  Uiso   1.00
C547   C     0.54075   0.72182   0.28254   0.00000  Uiso   1.00
C548   C     0.44516   0.95285   0.09925   0.00000  Uiso   1.00
C549   C     0.45930   0.94477   0.05079   0.00000  Uiso   1.00
C550   C     0.43209   0.92712   0.01397   0.00000  Uiso   1.00
C551   C     0.39010   0.91922   0.02478   0.00000  Uiso   1.00
C552   C     0.37509   0.92954   0.07221   0.00000  Uiso   1.00
C553   C     0.40258   0.94603   0.10955   0.00000  Uiso   1.00
C554   C     0.44500   0.71420   0.09946   0.00000  Uiso   1.00
C555   C     0.49994   0.83334   0.07305   0.00000  Uiso   1.00
C556   C     0.40261   0.72172   0.11030   0.00000  Uiso   1.00
C557   C     0.37510   0.73921   0.07348   0.00000  Uiso   1.00
C558   C     0.38986   0.74962   0.02597   0.00000  Uiso   1.00
C559   C     0.43158   0.74076   0.01452   0.00000  Uiso   1.00
C560   C     0.45882   0.72225   0.05087   0.00000  Uiso   1.00
C561   C     0.55502   0.95248   0.23385   0.00000  Uiso   1.00
C562   C     0.54120   0.94443   0.28245   0.00000  Uiso   1.00
C563   C     0.56844   0.92591   0.31879   0.00000  Uiso   1.00
C564   C     0.61016   0.91702   0.30732   0.00000  Uiso   1.00
C565   C     0.62491   0.92744   0.25980   0.00000  Uiso   1.00
C566   C     0.50005   0.83332   0.26028   0.00000  Uiso   1.00
C567   C     0.59740   0.94494   0.22300   0.00000  Uiso   1.00
C568   C     0.49998   0.83335   0.02184   0.00000  Uiso   1.00
C569   C     0.50000   0.83332   0.31149   0.00000  Uiso   1.00
C570   C     0.35606   0.83192   0.21251   0.00000  Uiso   1.00
C571   C     0.64395   0.83473   0.12084   0.00000  Uiso   1.00
C572   C     0.64609   0.83189   0.21241   0.00000  Uiso   1.00
H573   H     0.37386   0.83088   0.24779   0.00000  Uiso   1.00
H574   H     0.49146   0.95233   0.04195   0.00000  Uiso   1.00
H575   H     0.44331   0.91990   0.31024   0.00000  Uiso   1.00
H576   H     0.36937   0.90541   0.32945   0.00000  Uiso   1.00
H577   H     0.34223   0.92456   0.08015   0.00000  Uiso   1.00
H578   H     0.39063   0.95421   0.14607   0.00000  Uiso   1.00
H579   H     0.39086   0.71355   0.14692   0.00000  Uiso   1.00
H580   H     0.34242   0.74489   0.08191   0.00000  Uiso   1.00
H581   H     0.36911   0.76425   0.33107   0.00000  Uiso   1.00
H582   H     0.44260   0.74799   0.31072   0.00000  Uiso   1.00
H583   H     0.49078   0.71414   0.04160   0.00000  Uiso   1.00
H584   H     0.62615   0.83578   0.08556   0.00000  Uiso   1.00
H585   H     0.50925   0.95257   0.29173   0.00000  Uiso   1.00
H586   H     0.55743   0.91869   0.02260   0.00000  Uiso   1.00
H587   H     0.63089   0.90235   0.00220   0.00000  Uiso   1.00
H588   H     0.65759   0.92174   0.25135   0.00000  Uiso   1.00
H589   H     0.60914   0.95310   0.18637   0.00000  Uiso   1.00
H590   H     0.62985   0.83096   0.24761   0.00000  Uiso   1.00
H591   H     0.37016   0.83563   0.08573   0.00000  Uiso   1.00
H592   H     0.60936   0.71251   0.18717   0.00000  Uiso   1.00
H593   H     0.65780   0.74197   0.25310   0.00000  Uiso   1.00
H594   H     0.63072   0.76087   0.00387   0.00000  Uiso   1.00
H595   H     0.55681   0.74643   0.02313   0.00000  Uiso   1.00
H596   H     0.50861   0.71424   0.29140   0.00000  Uiso   1.00
N597   N     0.50000   0.95240   0.16667   0.00000  Uiso   1.00
N598   N     0.50000   0.71427   0.16667   0.00000  Uiso   1.00
O599   O     0.43892   0.87154   0.16666   0.00000  Uiso   1.00
O600   O     0.56108   0.79513   0.16667   0.00000  Uiso   1.00
O601   O     0.56108   0.87154   0.16667   0.00000  Uiso   1.00
O602   O     0.43892   0.79513   0.16666   0.00000  Uiso   1.00
O603   O     0.50000   0.87155   0.09511   0.00000  Uiso   1.00
O604   O     0.50000   0.79512   0.23822   0.00000  Uiso   1.00
O605   O     0.50000   0.87155   0.23822   0.00000  Uiso   1.00
O606   O     0.50000   0.79512   0.09511   0.00000  Uiso   1.00
Zn607  Zn    0.50000   0.88437   0.16667   0.00000  Uiso   1.00
Zn608  Zn    0.50000   0.78229   0.16667   0.00000  Uiso   1.00
C609   C     0.75355   0.83336   0.16661   0.00000  Uiso   1.00
C610   C     0.68725   0.83474   0.12093   0.00000  Uiso   1.00
C611   C     0.95728   0.83325   0.16665   0.00000  Uiso   1.00
C612   C     0.70939   0.83340   0.16670   0.00000  Uiso   1.00
C613   C     0.86027   0.69047   0.19771   0.00000  Uiso   1.00
C614   C     0.80640   0.97620   0.13562   0.00000  Uiso   1.00
C615   C     0.80639   0.69062   0.13563   0.00000  Uiso   1.00
C616   C     0.86028   0.97605   0.19769   0.00000  Uiso   1.00
C617   C     0.88820   0.71382   0.23406   0.00000  Uiso   1.00
C618   C     0.93076   0.72064   0.22372   0.00000  Uiso   1.00
C619   C     0.95828   0.73701   0.26107   0.00000  Uiso   1.00
C620   C     0.91312   0.83330   0.16673   0.00000  Uiso   1.00
C621   C     0.94330   0.74722   0.30853   0.00000  Uiso   1.00
C622   C     0.90132   0.73935   0.31937   0.00000  Uiso   1.00
C623   C     0.87409   0.72182   0.28254   0.00000  Uiso   1.00
C624   C     0.77849   0.95285   0.09925   0.00000  Uiso   1.00
C625   C     0.79264   0.94477   0.05079   0.00000  Uiso   1.00
C626   C     0.76543   0.92712   0.01397   0.00000  Uiso   1.00
C627   C     0.72344   0.91922   0.02478   0.00000  Uiso   1.00
C628   C     0.70843   0.92954   0.07221   0.00000  Uiso   1.00
C629   C     0.73592   0.94603   0.10955   0.00000  Uiso   1.00
C630   C     0.77833   0.71420   0.09946   0.00000  Uiso   1.00
C631   C     0.83327   0.83334   0.07305   0.00000  Uiso   1.00
C632   C     0.73594   0.72172   0.11030   0.00000  Uiso   1.00
C633   C     0.70843   0.73921   0.07348   0.00000  Uiso   1.00
C634   C     0.72319   0.74962   0.02597   0.00000  Uiso   1.00
C635   C     0.76491   0.74076   0.01452   0.00000  Uiso   1.00
C636   C     0.79216   0.72225   0.05087   0.00000  Uiso   1.00
C637   C     0.88835   0.95248   0.23385   0.00000  Uiso   1.00
C638   C     0.87454   0.94443   0.28245   0.00000  Uiso   1.00
C639   C     0.90178   0.92591   0.31879   0.00000  Uiso   1.00
C640   C     0.94349   0.91702   0.30732   0.00000  Uiso   1.00
C641   C     0.95825   0.92744   0.25980   0.00000  Uiso   1.00
C642   C     0.83339   0.83332   0.26028   0.00000  Uiso   1.00
C643   C     0.93073   0.94494   0.22300   0.00000  Uiso   1.00
C644   C     0.83331   0.83335   0.02184   0.00000  Uiso   1.00
C645   C     0.83334   0.83332   0.31149   0.00000  Uiso   1.00
C646   C     0.68939   0.83192   0.21251   0.00000  Uiso   1.00
C647   C     0.97728   0.83473   0.12084   0.00000  Uiso   1.00
C648   C     0.97942   0.83189   0.21241   0.00000  Uiso   1.00
H649   H     0.70719   0.83088   0.24779   0.00000  Uiso   1.00
H650   H     0.82479   0.95233   0.04195   0.00000  Uiso   1.00
H651   H     0.77665   0.91990   0.31024   0.00000  Uiso   1.00
H652   H     0.70270   0.90541   0.32945   0.00000  Uiso   1.00
H653   H     0.67556   0.92456   0.08015   0.00000  Uiso   1.00
H654   H     0.72396   0.95421   0.14607   0.00000  Uiso   1.00
H655   H     0.72420   0.71355   0.14692   0.00000  Uiso   1.00
H656   H     0.67575   0.74489   0.08191   0.00000  Uiso   1.00
H657   H     0.70244   0.76425   0.33107   0.00000  Uiso   1.00
H658   H     0.77593   0.74799   0.31072   0.00000  Uiso   1.00
H659   H     0.82411   0.71414   0.04160   0.00000  Uiso   1.00
H660   H     0.95948   0.83578   0.08556   0.00000  Uiso   1.00
H661   H     0.84259   0.95257   0.29173   0.00000  Uiso   1.00
H662   H     0.89076   0.91869   0.02260   0.00000  Uiso   1.00
H663   H     0.96422   0.90235   0.00220   0.00000  Uiso   1.00
H664   H     0.99092   0.92174   0.25135   0.00000  Uiso   1.00
H665   H     0.94248   0.95310   0.18637   0.00000  Uiso   1.00
H666   H     0.96318   0.83096   0.24761   0.00000  Uiso   1.00
H667   H     0.70349   0.83563   0.08573   0.00000  Uiso   1.00
H668   H     0.94269   0.71251   0.18717   0.00000  Uiso   1.00
H669   H     0.99113   0.74197   0.25310   0.00000  Uiso   1.00
H670   H     0.96405   0.76087   0.00387   0.00000  Uiso   1.00
H671   H     0.89014   0.74643   0.02313   0.00000  Uiso   1.00
H672   H     0.84195   0.71424   0.29140   0.00000  Uiso   1.00
N673   N     0.83333   0.95240   0.16667   0.00000  Uiso   1.00
N674   N     0.83333   0.71427   0.16667   0.00000  Uiso   1.00
O675   O     0.77226   0.87154   0.16666   0.00000  Uiso   1.00
O676   O     0.89441   0.79513   0.16667   0.00000  Uiso   1.00
O677   O     0.89441   0.87154   0.16667   0.00000  Uiso   1.00
O678   O     0.77226   0.79513   0.16666   0.00000  Uiso   1.00
O679   O     0.83334   0.87155   0.09511   0.00000  Uiso   1.00
O680   O     0.83333   0.79512   0.23822   0.00000  Uiso   1.00
O681   O     0.83333   0.87155   0.23822   0.00000  Uiso   1.00
O682   O     0.83334   0.79512   0.09511   0.00000  Uiso   1.00
Zn683  Zn    0.83333   0.88437   0.16667   0.00000  Uiso   1.00
Zn684  Zn    0.83333   0.78229   0.16667   0.00000  Uiso   1.00
C685   C     0.08688   0.16670   0.49995   0.00000  Uiso   1.00
C686   C     0.02058   0.16808   0.45427   0.00000  Uiso   1.00
C687   C     0.29061   0.16658   0.49998   0.00000  Uiso   1.00
C688   C     0.04273   0.16673   0.50004   0.00000  Uiso   1.00
C689   C     0.19360   0.02380   0.53104   0.00000  Uiso   1.00
C690   C     0.13974   0.30953   0.46895   0.00000  Uiso   1.00
C691   C     0.13972   0.02396   0.46897   0.00000  Uiso   1.00
C692   C     0.19362   0.30938   0.53103   0.00000  Uiso   1.00
C693   C     0.22153   0.04715   0.56739   0.00000  Uiso   1.00
C694   C     0.26410   0.05397   0.55705   0.00000  Uiso   1.00
C695   C     0.29161   0.07034   0.59440   0.00000  Uiso   1.00
C696   C     0.24645   0.16664   0.50006   0.00000  Uiso   1.00
C697   C     0.27663   0.08055   0.64187   0.00000  Uiso   1.00
C698   C     0.23466   0.07268   0.65270   0.00000  Uiso   1.00
C699   C     0.20742   0.05515   0.61587   0.00000  Uiso   1.00
C700   C     0.11182   0.28618   0.43258   0.00000  Uiso   1.00
C701   C     0.12597   0.27811   0.38413   0.00000  Uiso   1.00
C702   C     0.09876   0.26045   0.34730   0.00000  Uiso   1.00
C703   C     0.05677   0.25255   0.35812   0.00000  Uiso   1.00
C704   C     0.04176   0.26287   0.40554   0.00000  Uiso   1.00
C705   C     0.06925   0.27936   0.44289   0.00000  Uiso   1.00
C706   C     0.11166   0.04753   0.43280   0.00000  Uiso   1.00
C707   C     0.16661   0.16668   0.40639   0.00000  Uiso   1.00
C708   C     0.06928   0.05505   0.44364   0.00000  Uiso   1.00
C709   C     0.04177   0.07254   0.40682   0.00000  Uiso   1.00
C710   C     0.05652   0.08296   0.35930   0.00000  Uiso   1.00
C711   C     0.09824   0.07410   0.34786   0.00000  Uiso   1.00
C712   C     0.12549   0.05559   0.38421   0.00000  Uiso   1.00
C713   C     0.22169   0.28581   0.56719   0.00000  Uiso   1.00
C714   C     0.20787   0.27776   0.61578   0.00000  Uiso   1.00
C715   C     0.23511   0.25924   0.65212   0.00000  Uiso   1.00
C716   C     0.27682   0.25035   0.64065   0.00000  Uiso   1.00
C717   C     0.29158   0.26077   0.59314   0.00000  Uiso   1.00
C718   C     0.16672   0.16666   0.59361   0.00000  Uiso   1.00
C719   C     0.26407   0.27828   0.55633   0.00000  Uiso   1.00
C720   C     0.16665   0.16668   0.35518   0.00000  Uiso   1.00
C721   C     0.16667   0.16665   0.64482   0.00000  Uiso   1.00
C722   C     0.02272   0.16525   0.54585   0.00000  Uiso   1.00
C723   C     0.31061   0.16806   0.45417   0.00000  Uiso   1.00
C724   C     0.31275   0.16522   0.54574   0.00000  Uiso   1.00
H725   H     0.04052   0.16421   0.58112   0.00000  Uiso   1.00
H726   H     0.15812   0.28566   0.37529   0.00000  Uiso   1.00
H727   H     0.10998   0.25324   0.64358   0.00000  Uiso   1.00
H728   H     0.03604   0.23875   0.66279   0.00000  Uiso   1.00
H729   H     0.00890   0.25789   0.41348   0.00000  Uiso   1.00
H730   H     0.05730   0.28754   0.47941   0.00000  Uiso   1.00
H731   H     0.05753   0.04688   0.48025   0.00000  Uiso   1.00
H732   H     0.00909   0.07822   0.41524   0.00000  Uiso   1.00
H733   H     0.03577   0.09759   0.66440   0.00000  Uiso   1.00
H734   H     0.10926   0.08132   0.64405   0.00000  Uiso   1.00
H735   H     0.15744   0.04747   0.37493   0.00000  Uiso   1.00
H736   H     0.29282   0.16911   0.41889   0.00000  Uiso   1.00
H737   H     0.17592   0.28590   0.62507   0.00000  Uiso   1.00
H738   H     0.22410   0.25202   0.35593   0.00000  Uiso   1.00
H739   H     0.29756   0.23569   0.33554   0.00000  Uiso   1.00
H740   H     0.32425   0.25507   0.58469   0.00000  Uiso   1.00
H741   H     0.27581   0.28644   0.51970   0.00000  Uiso   1.00
H742   H     0.29652   0.16430   0.58094   0.00000  Uiso   1.00
H743   H     0.03683   0.16896   0.41906   0.00000  Uiso   1.00
H744   H     0.27603   0.04584   0.52050   0.00000  Uiso   1.00
H745   H     0.32446   0.07530   0.58643   0.00000  Uiso   1.00
H746   H     0.29739   0.09421   0.33721   0.00000  Uiso   1.00
H747   H     0.22347   0.07976   0.35646   0.00000  Uiso   1.00
H748   H     0.17528   0.04758   0.62473   0.00000  Uiso   1.00
N749   N     0.16667   0.28573   0.50000   0.00000  Uiso   1.00
N750   N     0.16667   0.04760   0.50000   0.00000  Uiso   1.00
O751   O     0.10559   0.20487   0.50000   0.00000  Uiso   1.00
O752   O     0.22774   0.12846   0.50000   0.00000  Uiso   1.00
O753   O     0.22774   0.20487   0.50000   0.00000  Uiso   1.00
O754   O     0.10559   0.12846   0.50000   0.00000  Uiso   1.00
O755   O     0.16667   0.20488   0.42845   0.00000  Uiso   1.00
O756   O     0.16666   0.12845   0.57155   0.00000  Uiso   1.00
O757   O     0.16666   0.20488   0.57155   0.00000  Uiso   1.00
O758   O     0.16667   0.12845   0.42845   0.00000  Uiso   1.00
Zn759  Zn    0.16667   0.21771   0.50000   0.00000  Uiso   1.00
Zn760  Zn    0.16667   0.11563   0.50000   0.00000  Uiso   1.00
C761   C     0.42022   0.16670   0.49995   0.00000  Uiso   1.00
C762   C     0.35392   0.16808   0.45427   0.00000  Uiso   1.00
C763   C     0.62394   0.16658   0.49998   0.00000  Uiso   1.00
C764   C     0.37606   0.16673   0.50004   0.00000  Uiso   1.00
C765   C     0.52693   0.02380   0.53104   0.00000  Uiso   1.00
C766   C     0.47307   0.30953   0.46895   0.00000  Uiso   1.00
C767   C     0.47306   0.02396   0.46897   0.00000  Uiso   1.00
C768   C     0.52695   0.30938   0.53103   0.00000  Uiso   1.00
C769   C     0.55486   0.04715   0.56739   0.00000  Uiso   1.00
C770   C     0.59743   0.05397   0.55705   0.00000  Uiso   1.00
C771   C     0.62495   0.07034   0.59440   0.00000  Uiso   1.00
C772   C     0.57978   0.16664   0.50006   0.00000  Uiso   1.00
C773   C     0.60997   0.08055   0.64187   0.00000  Uiso   1.00
C774   C     0.56799   0.07268   0.65270   0.00000  Uiso   1.00
C775   C     0.54075   0.05515   0.61587   0.00000  Uiso   1.00
C776   C     0.44516   0.28618   0.43258   0.00000  Uiso   1.00
C777   C     0.45930   0.27811   0.38413   0.00000  Uiso   1.00
C778   C     0.43209   0.26045   0.34730   0.00000  Uiso   1.00
C779   C     0.39010   0.25255   0.35812   0.00000  Uiso   1.00
C780   C     0.37509   0.26287   0.40554   0.00000  Uiso   1.00
C781   C     0.40258   0.27936   0.44289   0.00000  Uiso   1.00
C782   C     0.44500   0.04753   0.43280   0.00000  Uiso   1.00
C783   C     0.49994   0.16668   0.40639   0.00000  Uiso   1.00
C784   C     0.40261   0.05505   0.44364   0.00000  Uiso   1.00
C785   C     0.37510   0.07254   0.40682   0.00000  Uiso   1.00
C786   C     0.38986   0.08296   0.35930   0.00000  Uiso   1.00
C787   C     0.43158   0.07410   0.34786   0.00000  Uiso   1.00
C788   C     0.45882   0.05559   0.38421   0.00000  Uiso   1.00
C789   C     0.55502   0.28581   0.56719   0.00000  Uiso   1.00
C790   C     0.54120   0.27776   0.61578   0.00000  Uiso   1.00
C791   C     0.56844   0.25924   0.65212   0.00000  Uiso   1.00
C792   C     0.61016   0.25035   0.64065   0.00000  Uiso   1.00
C793   C     0.62491   0.26077   0.59314   0.00000  Uiso   1.00
C794   C     0.50005   0.16666   0.59361   0.00000  Uiso   1.00
C795   C     0.59740   0.27828   0.55633   0.00000  Uiso   1.00
C796   C     0.49998   0.16668   0.35518   0.00000  Uiso   1.00
C797   C     0.50000   0.16665   0.64482   0.00000  Uiso   1.00
C798   C     0.35606   0.16525   0.54585   0.00000  Uiso   1.00
C799   C     0.64395   0.16806   0.45417   0.00000  Uiso   1.00
C800   C     0.64609   0.16522   0.54574   0.00000  Uiso   1.00
H801   H     0.37386   0.16421   0.58112   0.00000  Uiso   1.00
H802   H     0.49146   0.28566   0.37529   0.00000  Uiso   1.00
H803   H     0.44331   0.25324   0.64358   0.00000  Uiso   1.00
H804   H     0.36937   0.23875   0.66279   0.00000  Uiso   1.00
H805   H     0.34223   0.25789   0.41348   0.00000  Uiso   1.00
H806   H     0.39063   0.28754   0.47941   0.00000  Uiso   1.00
H807   H     0.39086   0.04688   0.48025   0.00000  Uiso   1.00
H808   H     0.34242   0.07822   0.41524   0.00000  Uiso   1.00
H809   H     0.36911   0.09759   0.66440   0.00000  Uiso   1.00
H810   H     0.44260   0.08132   0.64405   0.00000  Uiso   1.00
H811   H     0.49078   0.04747   0.37493   0.00000  Uiso   1.00
H812   H     0.62615   0.16911   0.41889   0.00000  Uiso   1.00
H813   H     0.50925   0.28590   0.62507   0.00000  Uiso   1.00
H814   H     0.55743   0.25202   0.35593   0.00000  Uiso   1.00
H815   H     0.63089   0.23569   0.33554   0.00000  Uiso   1.00
H816   H     0.65759   0.25507   0.58469   0.00000  Uiso   1.00
H817   H     0.60914   0.28644   0.51970   0.00000  Uiso   1.00
H818   H     0.62985   0.16430   0.58094   0.00000  Uiso   1.00
H819   H     0.37016   0.16896   0.41906   0.00000  Uiso   1.00
H820   H     0.60936   0.04584   0.52050   0.00000  Uiso   1.00
H821   H     0.65780   0.07530   0.58643   0.00000  Uiso   1.00
H822   H     0.63072   0.09421   0.33721   0.00000  Uiso   1.00
H823   H     0.55681   0.07976   0.35646   0.00000  Uiso   1.00
H824   H     0.50861   0.04758   0.62473   0.00000  Uiso   1.00
N825   N     0.50000   0.28573   0.50000   0.00000  Uiso   1.00
N826   N     0.50000   0.04760   0.50000   0.00000  Uiso   1.00
O827   O     0.43892   0.20487   0.50000   0.00000  Uiso   1.00
O828   O     0.56108   0.12846   0.50000   0.00000  Uiso   1.00
O829   O     0.56108   0.20487   0.50000   0.00000  Uiso   1.00
O830   O     0.43892   0.12846   0.50000   0.00000  Uiso   1.00
O831   O     0.50000   0.20488   0.42845   0.00000  Uiso   1.00
O832   O     0.50000   0.12845   0.57155   0.00000  Uiso   1.00
O833   O     0.50000   0.20488   0.57155   0.00000  Uiso   1.00
O834   O     0.50000   0.12845   0.42845   0.00000  Uiso   1.00
Zn835  Zn    0.50000   0.21771   0.50000   0.00000  Uiso   1.00
Zn836  Zn    0.50000   0.11563   0.50000   0.00000  Uiso   1.00
C837   C     0.75355   0.16670   0.49995   0.00000  Uiso   1.00
C838   C     0.68725   0.16808   0.45427   0.00000  Uiso   1.00
C839   C     0.95728   0.16658   0.49998   0.00000  Uiso   1.00
C840   C     0.70939   0.16673   0.50004   0.00000  Uiso   1.00
C841   C     0.86027   0.02380   0.53104   0.00000  Uiso   1.00
C842   C     0.80640   0.30953   0.46895   0.00000  Uiso   1.00
C843   C     0.80639   0.02396   0.46897   0.00000  Uiso   1.00
C844   C     0.86028   0.30938   0.53103   0.00000  Uiso   1.00
C845   C     0.88820   0.04715   0.56739   0.00000  Uiso   1.00
C846   C     0.93076   0.05397   0.55705   0.00000  Uiso   1.00
C847   C     0.95828   0.07034   0.59440   0.00000  Uiso   1.00
C848   C     0.91312   0.16664   0.50006   0.00000  Uiso   1.00
C849   C     0.94330   0.08055   0.64187   0.00000  Uiso   1.00
C850   C     0.90132   0.07268   0.65270   0.00000  Uiso   1.00
C851   C     0.87409   0.05515   0.61587   0.00000  Uiso   1.00
C852   C     0.77849   0.28618   0.43258   0.00000  Uiso   1.00
C853   C     0.79264   0.27811   0.38413   0.00000  Uiso   1.00
C854   C     0.76543   0.26045   0.34730   0.00000  Uiso   1.00
C855   C     0.72344   0.25255   0.35812   0.00000  Uiso   1.00
C856   C     0.70843   0.26287   0.40554   0.00000  Uiso   1.00
C857   C     0.73592   0.27936   0.44289   0.00000  Uiso   1.00
C858   C     0.77833   0.04753   0.43280   0.00000  Uiso   1.00
C859   C     0.83327   0.16668   0.40639   0.00000  Uiso   1.00
C860   C     0.73594   0.05505   0.44364   0.00000  Uiso   1.00
C861   C     0.70843   0.07254   0.40682   0.00000  Uiso   1.00
C862   C     0.72319   0.08296   0.35930   0.00000  Uiso   1.00
C863   C     0.76491   0.07410   0.34786   0.00000  Uiso   1.00
C864   C     0.79216   0.05559   0.38421   0.00000  Uiso   1.00
C865   C     0.88835   0.28581   0.56719   0.00000  Uiso   1.00
C866   C     0.87454   0.27776   0.61578   0.00000  Uiso   1.00
C867   C     0.90178   0.25924   0.65212   0.00000  Uiso   1.00
C868   C     0.94349   0.25035   0.64065   0.00000  Uiso   1.00
C869   C     0.95825   0.26077   0.59314   0.00000  Uiso   1.00
C870   C     0.83339   0.16666   0.59361   0.00000  Uiso   1.00
C871   C     0.93073   0.27828   0.55633   0.00000  Uiso   1.00
C872   C     0.83331   0.16668   0.35518   0.00000  Uiso   1.00
C873   C     0.83334   0.16665   0.64482   0.00000  Uiso   1.00
C874   C     0.68939   0.16525   0.54585   0.00000  Uiso   1.00
C875   C     0.97728   0.16806   0.45417   0.00000  Uiso   1.00
C876   C     0.97942   0.16522   0.54574   0.00000  Uiso   1.00
H877   H     0.70719   0.16421   0.58112   0.00000  Uiso   1.00
H878   H     0.82479   0.28566   0.37529   0.00000  Uiso   1.00
H879   H     0.77665   0.25324   0.64358   0.00000  Uiso   1.00
H880   H     0.70270   0.23875   0.66279   0.00000  Uiso   1.00
H881   H     0.67556   0.25789   0.41348   0.00000  Uiso   1.00
H882   H     0.72396   0.28754   0.47941   0.00000  Uiso   1.00
H883   H     0.72420   0.04688   0.48025   0.00000  Uiso   1.00
H884   H     0.67575   0.07822   0.41524   0.00000  Uiso   1.00
H885   H     0.70244   0.09759   0.66440   0.00000  Uiso   1.00
H886   H     0.77593   0.08132   0.64405   0.00000  Uiso   1.00
H887   H     0.82411   0.04747   0.37493   0.00000  Uiso   1.00
H888   H     0.95948   0.16911   0.41889   0.00000  Uiso   1.00
H889   H     0.84259   0.28590   0.62507   0.00000  Uiso   1.00
H890   H     0.89076   0.25202   0.35593   0.00000  Uiso   1.00
H891   H     0.96422   0.23569   0.33554   0.00000  Uiso   1.00
H892   H     0.99092   0.25507   0.58469   0.00000  Uiso   1.00
H893   H     0.94248   0.28644   0.51970   0.00000  Uiso   1.00
H894   H     0.96318   0.16430   0.58094   0.00000  Uiso   1.00
H895   H     0.70349   0.16896   0.41906   0.00000  Uiso   1.00
H896   H     0.94269   0.04584   0.52050   0.00000  Uiso   1.00
H897   H     0.99113   0.07530   0.58643   0.00000  Uiso   1.00
H898   H     0.96405   0.09421   0.33721   0.00000  Uiso   1.00
H899   H     0.89014   0.07976   0.35646   0.00000  Uiso   1.00
H900   H     0.84195   0.04758   0.62473   0.00000  Uiso   1.00
N901   N     0.83333   0.28573   0.50000   0.00000  Uiso   1.00
N902   N     0.83333   0.04760   0.50000   0.00000  Uiso   1.00
O903   O     0.77226   0.20487   0.50000   0.00000  Uiso   1.00
O904   O     0.89441   0.12846   0.50000   0.00000  Uiso   1.00
O905   O     0.89441   0.20487   0.50000   0.00000  Uiso   1.00
O906   O     0.77226   0.12846   0.50000   0.00000  Uiso   1.00
O907   O     0.83334   0.20488   0.42845   0.00000  Uiso   1.00
O908   O     0.83333   0.12845   0.57155   0.00000  Uiso   1.00
O909   O     0.83333   0.20488   0.57155   0.00000  Uiso   1.00
O910   O     0.83334   0.12845   0.42845   0.00000  Uiso   1.00
Zn911  Zn    0.83333   0.21771   0.50000   0.00000  Uiso   1.00
Zn912  Zn    0.83333   0.11563   0.50000   0.00000  Uiso   1.00
C913   C     0.08688   0.50003   0.49995   0.00000  Uiso   1.00
C914   C     0.02058   0.50141   0.45427   0.00000  Uiso   1.00
C915   C     0.29061   0.49991   0.49998   0.00000  Uiso   1.00
C916   C     0.04273   0.50007   0.50004   0.00000  Uiso   1.00
C917   C     0.19360   0.35714   0.53104   0.00000  Uiso   1.00
C918   C     0.13974   0.64287   0.46895   0.00000  Uiso   1.00
C919   C     0.13972   0.35729   0.46897   0.00000  Uiso   1.00
C920   C     0.19362   0.64271   0.53103   0.00000  Uiso   1.00
C921   C     0.22153   0.38049   0.56739   0.00000  Uiso   1.00
C922   C     0.26410   0.38731   0.55705   0.00000  Uiso   1.00
C923   C     0.29161   0.40368   0.59440   0.00000  Uiso   1.00
C924   C     0.24645   0.49997   0.50006   0.00000  Uiso   1.00
C925   C     0.27663   0.41389   0.64187   0.00000  Uiso   1.00
C926   C     0.23466   0.40602   0.65270   0.00000  Uiso   1.00
C927   C     0.20742   0.38849   0.61587   0.00000  Uiso   1.00
C928   C     0.11182   0.61951   0.43258   0.00000  Uiso   1.00
C929   C     0.12597   0.61144   0.38413   0.00000  Uiso   1.00
C930   C     0.09876   0.59379   0.34730   0.00000  Uiso   1.00
C931   C     0.05677   0.58588   0.35812   0.00000  Uiso   1.00
C932   C     0.04176   0.59621   0.40554   0.00000  Uiso   1.00
C933   C     0.06925   0.61269   0.44289   0.00000  Uiso   1.00
C934   C     0.11166   0.38086   0.43280   0.00000  Uiso   1.00
C935   C     0.16661   0.50001   0.40639   0.00000  Uiso   1.00
C936   C     0.06928   0.38839   0.44364   0.00000  Uiso   1.00
C937   C     0.04177   0.40588   0.40682   0.00000  Uiso   1.00
C938   C     0.05652   0.41629   0.35930   0.00000  Uiso   1.00
C939   C     0.09824   0.40743   0.34786   0.00000  Uiso   1.00
C940   C     0.12549   0.38892   0.38421   0.00000  Uiso   1.00
C941   C     0.22169   0.61914   0.56719   0.00000  Uiso   1.00
C942   C     0.20787   0.61110   0.61578   0.00000  Uiso   1.00
C943   C     0.23511   0.59258   0.65212   0.00000  Uiso   1.00
C944   C     0.27682   0.58368   0.64065   0.00000  Uiso   1.00
C945   C     0.29158   0.59410   0.59314   0.00000  Uiso   1.00
C946   C     0.16672   0.49999   0.59361   0.00000  Uiso   1.00
C947   C     0.26407   0.61161   0.55633   0.00000  Uiso   1.00
C948   C     0.16665   0.50001   0.35518   0.00000  Uiso   1.00
C949   C     0.16667   0.49999   0.64482   0.00000  Uiso   1.00
C950   C     0.02272   0.49859   0.54585   0.00000  Uiso   1.00
C951   C     0.31061   0.50139   0.45417   0.00000  Uiso   1.00
C952   C     0.31275   0.49855   0.54574   0.00000  Uiso   1.00
H953   H     0.04052   0.49754   0.58112   0.00000  Uiso   1.00
H954   H     0.15812   0.61899   0.37529   0.00000  Uiso   1.00
H955   H     0.10998   0.58657   0.64358   0.00000  Uiso   1.00
H956   H     0.03604   0.57208   0.66279   0.00000  Uiso   1.00
H957   H     0.00890   0.59122   0.41348   0.00000  Uiso   1.00
H958   H     0.05730   0.62088   0.47941   0.00000  Uiso   1.00
H959   H     0.05753   0.38022   0.48025   0.00000  Uiso   1.00
H960   H     0.00909   0.41156   0.41524   0.00000  Uiso   1.00
H961   H     0.03577   0.43092   0.66440   0.00000  Uiso   1.00
H962   H     0.10926   0.41466   0.64405   0.00000  Uiso   1.00
H963   H     0.15744   0.38080   0.37493   0.00000  Uiso   1.00
H964   H     0.29282   0.50245   0.41889   0.00000  Uiso   1.00
H965   H     0.17592   0.61924   0.62507   0.00000  Uiso   1.00
H966   H     0.22410   0.58536   0.35593   0.00000  Uiso   1.00
H967   H     0.29756   0.56902   0.33554   0.00000  Uiso   1.00
H968   H     0.32425   0.58840   0.58469   0.00000  Uiso   1.00
H969   H     0.27581   0.61977   0.51970   0.00000  Uiso   1.00
H970   H     0.29652   0.49763   0.58094   0.00000  Uiso   1.00
H971   H     0.03683   0.50230   0.41906   0.00000  Uiso   1.00
H972   H     0.27603   0.37917   0.52050   0.00000  Uiso   1.00
H973   H     0.32446   0.40863   0.58643   0.00000  Uiso   1.00
H974   H     0.29739   0.42754   0.33721   0.00000  Uiso   1.00
H975   H     0.22347   0.41310   0.35646   0.00000  Uiso   1.00
H976   H     0.17528   0.38091   0.62473   0.00000  Uiso   1.00
N977   N     0.16667   0.61907   0.50000   0.00000  Uiso   1.00
N978   N     0.16667   0.38093   0.50000   0.00000  Uiso   1.00
O979   O     0.10559   0.53821   0.50000   0.00000  Uiso   1.00
O980   O     0.22774   0.46179   0.50000   0.00000  Uiso   1.00
O981   O     0.22774   0.53821   0.50000   0.00000  Uiso   1.00
O982   O     0.10559   0.46179   0.50000   0.00000  Uiso   1.00
O983   O     0.16667   0.53821   0.42845   0.00000  Uiso   1.00
O984   O     0.16666   0.46179   0.57155   0.00000  Uiso   1.00
O985   O     0.16666   0.53821   0.57155   0.00000  Uiso   1.00
O986   O     0.16667   0.46179   0.42845   0.00000  Uiso   1.00
Zn987  Zn    0.16667   0.55104   0.50000   0.00000  Uiso   1.00
Zn988  Zn    0.16667   0.44896   0.50000   0.00000  Uiso   1.00
C989   C     0.42022   0.50003   0.49995   0.00000  Uiso   1.00
C990   C     0.35392   0.50141   0.45427   0.00000  Uiso   1.00
C991   C     0.62394   0.49991   0.49998   0.00000  Uiso   1.00
C992   C     0.37606   0.50007   0.50004   0.00000  Uiso   1.00
C993   C     0.52693   0.35714   0.53104   0.00000  Uiso   1.00
C994   C     0.47307   0.64287   0.46895   0.00000  Uiso   1.00
C995   C     0.47306   0.35729   0.46897   0.00000  Uiso   1.00
C996   C     0.52695   0.64271   0.53103   0.00000  Uiso   1.00
C997   C     0.55486   0.38049   0.56739   0.00000  Uiso   1.00
C998   C     0.59743   0.38731   0.55705   0.00000  Uiso   1.00
C999   C     0.62495   0.40368   0.59440   0.00000  Uiso   1.00
C1000  C     0.57978   0.49997   0.50006   0.00000  Uiso   1.00
C1001  C     0.60997   0.41389   0.64187   0.00000  Uiso   1.00
C1002  C     0.56799   0.40602   0.65270   0.00000  Uiso   1.00
C1003  C     0.54075   0.38849   0.61587   0.00000  Uiso   1.00
C1004  C     0.44516   0.61951   0.43258   0.00000  Uiso   1.00
C1005  C     0.45930   0.61144   0.38413   0.00000  Uiso   1.00
C1006  C     0.43209   0.59379   0.34730   0.00000  Uiso   1.00
C1007  C     0.39010   0.58588   0.35812   0.00000  Uiso   1.00
C1008  C     0.37509   0.59621   0.40554   0.00000  Uiso   1.00
C1009  C     0.40258   0.61269   0.44289   0.00000  Uiso   1.00
C1010  C     0.44500   0.38086   0.43280   0.00000  Uiso   1.00
C1011  C     0.49994   0.50001   0.40639   0.00000  Uiso   1.00
C1012  C     0.40261   0.38839   0.44364   0.00000  Uiso   1.00
C1013  C     0.37510   0.40588   0.40682   0.00000  Uiso   1.00
C1014  C     0.38986   0.41629   0.35930   0.00000  Uiso   1.00
C1015  C     0.43158   0.40743   0.34786   0.00000  Uiso   1.00
C1016  C     0.45882   0.38892   0.38421   0.00000  Uiso   1.00
C1017  C     0.55502   0.61914   0.56719   0.00000  Uiso   1.00
C1018  C     0.54120   0.61110   0.61578   0.00000  Uiso   1.00
C1019  C     0.56844   0.59258   0.65212   0.00000  Uiso   1.00
C1020  C     0.61016   0.58368   0.64065   0.00000  Uiso   1.00
C1021  C     0.62491   0.59410   0.59314   0.00000  Uiso   1.00
C1022  C     0.50005   0.49999   0.59361   0.00000  Uiso   1.00
C1023  C     0.59740   0.61161   0.55633   0.00000  Uiso   1.00
C1024  C     0.49998   0.50001   0.35518   0.00000  Uiso   1.00
C1025  C     0.50000   0.49999   0.64482   0.00000  Uiso   1.00
C1026  C     0.35606   0.49859   0.54585   0.00000  Uiso   1.00
C1027  C     0.64395   0.50139   0.45417   0.00000  Uiso   1.00
C1028  C     0.64609   0.49855   0.54574   0.00000  Uiso   1.00
H1029  H     0.37386   0.49754   0.58112   0.00000  Uiso   1.00
H1030  H     0.49146   0.61899   0.37529   0.00000  Uiso   1.00
H1031  H     0.44331   0.58657   0.64358   0.00000  Uiso   1.00
H1032  H     0.36937   0.57208   0.66279   0.00000  Uiso   1.00
H1033  H     0.34223   0.59122   0.41348   0.00000  Uiso   1.00
H1034  H     0.39063   0.62088   0.47941   0.00000  Uiso   1.00
H1035  H     0.39086   0.38022   0.48025   0.00000  Uiso   1.00
H1036  H     0.34242   0.41156   0.41524   0.00000  Uiso   1.00
H1037  H     0.36911   0.43092   0.66440   0.00000  Uiso   1.00
H1038  H     0.44260   0.41466   0.64405   0.00000  Uiso   1.00
H1039  H     0.49078   0.38080   0.37493   0.00000  Uiso   1.00
H1040  H     0.62615   0.50245   0.41889   0.00000  Uiso   1.00
H1041  H     0.50925   0.61924   0.62507   0.00000  Uiso   1.00
H1042  H     0.55743   0.58536   0.35593   0.00000  Uiso   1.00
H1043  H     0.63089   0.56902   0.33554   0.00000  Uiso   1.00
H1044  H     0.65759   0.58840   0.58469   0.00000  Uiso   1.00
H1045  H     0.60914   0.61977   0.51970   0.00000  Uiso   1.00
H1046  H     0.62985   0.49763   0.58094   0.00000  Uiso   1.00
H1047  H     0.37016   0.50230   0.41906   0.00000  Uiso   1.00
H1048  H     0.60936   0.37917   0.52050   0.00000  Uiso   1.00
H1049  H     0.65780   0.40863   0.58643   0.00000  Uiso   1.00
H1050  H     0.63072   0.42754   0.33721   0.00000  Uiso   1.00
H1051  H     0.55681   0.41310   0.35646   0.00000  Uiso   1.00
H1052  H     0.50861   0.38091   0.62473   0.00000  Uiso   1.00
N1053  N     0.50000   0.61907   0.50000   0.00000  Uiso   1.00
N1054  N     0.50000   0.38093   0.50000   0.00000  Uiso   1.00
O1055  O     0.43892   0.53821   0.50000   0.00000  Uiso   1.00
O1056  O     0.56108   0.46179   0.50000   0.00000  Uiso   1.00
O1057  O     0.56108   0.53821   0.50000   0.00000  Uiso   1.00
O1058  O     0.43892   0.46179   0.50000   0.00000  Uiso   1.00
O1059  O     0.50000   0.53821   0.42845   0.00000  Uiso   1.00
O1060  O     0.50000   0.46179   0.57155   0.00000  Uiso   1.00
O1061  O     0.50000   0.53821   0.57155   0.00000  Uiso   1.00
O1062  O     0.50000   0.46179   0.42845   0.00000  Uiso   1.00
Zn1063 Zn    0.50000   0.55104   0.50000   0.00000  Uiso   1.00
Zn1064 Zn    0.50000   0.44896   0.50000   0.00000  Uiso   1.00
C1065  C     0.75355   0.50003   0.49995   0.00000  Uiso   1.00
C1066  C     0.68725   0.50141   0.45427   0.00000  Uiso   1.00
C1067  C     0.95728   0.49991   0.49998   0.00000  Uiso   1.00
C1068  C     0.70939   0.50007   0.50004   0.00000  Uiso   1.00
C1069  C     0.86027   0.35714   0.53104   0.00000  Uiso   1.00
C1070  C     0.80640   0.64287   0.46895   0.00000  Uiso   1.00
C1071  C     0.80639   0.35729   0.46897   0.00000  Uiso   1.00
C1072  C     0.86028   0.64271   0.53103   0.00000  Uiso   1.00
C1073  C     0.88820   0.38049   0.56739   0.00000  Uiso   1.00
C1074  C     0.93076   0.38731   0.55705   0.00000  Uiso   1.00
C1075  C     0.95828   0.40368   0.59440   0.00000  Uiso   1.00
C1076  C     0.91312   0.49997   0.50006   0.00000  Uiso   1.00
C1077  C     0.94330   0.41389   0.64187   0.00000  Uiso   1.00
C1078  C     0.90132   0.40602   0.65270   0.00000  Uiso   1.00
C1079  C     0.87409   0.38849   0.61587   0.00000  Uiso   1.00
C1080  C     0.77849   0.61951   0.43258   0.00000  Uiso   1.00
C1081  C     0.79264   0.61144   0.38413   0.00000  Uiso   1.00
C1082  C     0.76543   0.59379   0.34730   0.00000  Uiso   1.00
C1083  C     0.72344   0.58588   0.35812   0.00000  Uiso   1.00
C1084  C     0.70843   0.59621   0.40554   0.00000  Uiso   1.00
C1085  C     0.73592   0.61269   0.44289   0.00000  Uiso   1.00
C1086  C     0.77833   0.38086   0.43280   0.00000  Uiso   1.00
C1087  C     0.83327   0.50001   0.40639   0.00000  Uiso   1.00
C1088  C     0.73594   0.38839   0.44364   0.00000  Uiso   1.00
C1089  C     0.70843   0.40588   0.40682   0.00000  Uiso   1.00
C1090  C     0.72319   0.41629   0.35930   0.00000  Uiso   1.00
C1091  C     0.76491   0.40743   0.34786   0.00000  Uiso   1.00
C1092  C     0.79216   0.38892   0.38421   0.00000  Uiso   1.00
C1093  C     0.88835   0.61914   0.56719   0.00000  Uiso   1.00
C1094  C     0.87454   0.61110   0.61578   0.00000  Uiso   1.00
C1095  C     0.90178   0.59258   0.65212   0.00000  Uiso   1.00
C1096  C     0.94349   0.58368   0.64065   0.00000  Uiso   1.00
C1097  C     0.95825   0.59410   0.59314   0.00000  Uiso   1.00
C1098  C     0.83339   0.49999   0.59361   0.00000  Uiso   1.00
C1099  C     0.93073   0.61161   0.55633   0.00000  Uiso   1.00
C1100  C     0.83331   0.50001   0.35518   0.00000  Uiso   1.00
C1101  C     0.83334   0.49999   0.64482   0.00000  Uiso   1.00
C1102  C     0.68939   0.49859   0.54585   0.00000  Uiso   1.00
C1103  C     0.97728   0.50139   0.45417   0.00000  Uiso   1.00
C1104  C     0.97942   0.49855   0.54574   0.00000  Uiso   1.00
H1105  H     0.70719   0.49754   0.58112   0.00000  Uiso   1.00
H1106  H     0.82479   0.61899   0.37529   0.00000  Uiso   1.00
H1107  H     0.77665   0.58657   0.64358   0.00000  Uiso   1.00
H1108  H     0.70270   0.57208   0.66279   0.00000  Uiso   1.00
H1109  H     0.67556   0.59122   0.41348   0.00000  Uiso   1.00
H1110  H     0.72396   0.62088   0.47941   0.00000  Uiso   1.00
H1111  H     0.72420   0.38022   0.48025   0.00000  Uiso   1.00
H1112  H     0.67575   0.41156   0.41524   0.00000  Uiso   1.00
H1113  H     0.70244   0.43092   0.66440   0.00000  Uiso   1.00
H1114  H     0.77593   0.41466   0.64405   0.00000  Uiso   1.00
H1115  H     0.82411   0.38080   0.37493   0.00000  Uiso   1.00
H1116  H     0.95948   0.50245   0.41889   0.00000  Uiso   1.00
H1117  H     0.84259   0.61924   0.62507   0.00000  Uiso   1.00
H1118  H     0.89076   0.58536   0.35593   0.00000  Uiso   1.00
H1119  H     0.96422   0.56902   0.33554   0.00000  Uiso   1.00
H1120  H     0.99092   0.58840   0.58469   0.00000  Uiso   1.00
H1121  H     0.94248   0.61977   0.51970   0.00000  Uiso   1.00
H1122  H     0.96318   0.49763   0.58094   0.00000  Uiso   1.00
H1123  H     0.70349   0.50230   0.41906   0.00000  Uiso   1.00
H1124  H     0.94269   0.37917   0.52050   0.00000  Uiso   1.00
H1125  H     0.99113   0.40863   0.58643   0.00000  Uiso   1.00
H1126  H     0.96405   0.42754   0.33721   0.00000  Uiso   1.00
H1127  H     0.89014   0.41310   0.35646   0.00000  Uiso   1.00
H1128  H     0.84195   0.38091   0.62473   0.00000  Uiso   1.00
N1129  N     0.83333   0.61907   0.50000   0.00000  Uiso   1.00
N1130  N     0.83333   0.38093   0.50000   0.00000  Uiso   1.00
O1131  O     0.77226   0.53821   0.50000   0.00000  Uiso   1.00
O1132  O     0.89441   0.46179   0.50000   0.00000  Uiso   1.00
O1133  O     0.89441   0.53821   0.50000   0.00000  Uiso   1.00
O1134  O     0.77226   0.46179   0.50000   0.00000  Uiso   1.00
O1135  O     0.83334   0.53821   0.42845   0.00000  Uiso   1.00
O1136  O     0.83333   0.46179   0.57155   0.00000  Uiso   1.00
O1137  O     0.83333   0.53821   0.57155   0.00000  Uiso   1.00
O1138  O     0.83334   0.46179   0.42845   0.00000  Uiso   1.00
Zn1139 Zn    0.83333   0.55104   0.50000   0.00000  Uiso   1.00
Zn1140 Zn    0.83333   0.44896   0.50000   0.00000  Uiso   1.00
C1141  C     0.08688   0.83336   0.49995   0.00000  Uiso   1.00
C1142  C     0.02058   0.83474   0.45427   0.00000  Uiso   1.00
C1143  C     0.29061   0.83325   0.49998   0.00000  Uiso   1.00
C1144  C     0.04273   0.83340   0.50004   0.00000  Uiso   1.00
C1145  C     0.19360   0.69047   0.53104   0.00000  Uiso   1.00
C1146  C     0.13974   0.97620   0.46895   0.00000  Uiso   1.00
C1147  C     0.13972   0.69062   0.46897   0.00000  Uiso   1.00
C1148  C     0.19362   0.97605   0.53103   0.00000  Uiso   1.00
C1149  C     0.22153   0.71382   0.56739   0.00000  Uiso   1.00
C1150  C     0.26410   0.72064   0.55705   0.00000  Uiso   1.00
C1151  C     0.29161   0.73701   0.59440   0.00000  Uiso   1.00
C1152  C     0.24645   0.83330   0.50006   0.00000  Uiso   1.00
C1153  C     0.27663   0.74722   0.64187   0.00000  Uiso   1.00
C1154  C     0.23466   0.73935   0.65270   0.00000  Uiso   1.00
C1155  C     0.20742   0.72182   0.61587   0.00000  Uiso   1.00
C1156  C     0.11182   0.95285   0.43258   0.00000  Uiso   1.00
C1157  C     0.12597   0.94477   0.38413   0.00000  Uiso   1.00
C1158  C     0.09876   0.92712   0.34730   0.00000  Uiso   1.00
C1159  C     0.05677   0.91922   0.35812   0.00000  Uiso   1.00
C1160  C     0.04176   0.92954   0.40554   0.00000  Uiso   1.00
C1161  C     0.06925   0.94603   0.44289   0.00000  Uiso   1.00
C1162  C     0.11166   0.71420   0.43280   0.00000  Uiso   1.00
C1163  C     0.16661   0.83334   0.40639   0.00000  Uiso   1.00
C1164  C     0.06928   0.72172   0.44364   0.00000  Uiso   1.00
C1165  C     0.04177   0.73921   0.40682   0.00000  Uiso   1.00
C1166  C     0.05652   0.74962   0.35930   0.00000  Uiso   1.00
C1167  C     0.09824   0.74076   0.34786   0.00000  Uiso   1.00
C1168  C     0.12549   0.72225   0.38421   0.00000  Uiso   1.00
C1169  C     0.22169   0.95248   0.56719   0.00000  Uiso   1.00
C1170  C     0.20787   0.94443   0.61578   0.00000  Uiso   1.00
C1171  C     0.23511   0.92591   0.65212   0.00000  Uiso   1.00
C1172  C     0.27682   0.91702   0.64065   0.00000  Uiso   1.00
C1173  C     0.29158   0.92744   0.59314   0.00000  Uiso   1.00
C1174  C     0.16672   0.83332   0.59361   0.00000  Uiso   1.00
C1175  C     0.26407   0.94494   0.55633   0.00000  Uiso   1.00
C1176  C     0.16665   0.83335   0.35518   0.00000  Uiso   1.00
C1177  C     0.16667   0.83332   0.64482   0.00000  Uiso   1.00
C1178  C     0.02272   0.83192   0.54585   0.00000  Uiso   1.00
C1179  C     0.31061   0.83473   0.45417   0.00000  Uiso   1.00
C1180  C     0.31275   0.83189   0.54574   0.00000  Uiso   1.00
H1181  H     0.04052   0.83088   0.58112   0.00000  Uiso   1.00
H1182  H     0.15812   0.95233   0.37529   0.00000  Uiso   1.00
H1183  H     0.10998   0.91990   0.64358   0.00000  Uiso   1.00
H1184  H     0.03604   0.90541   0.66279   0.00000  Uiso   1.00
H1185  H     0.00890   0.92456   0.41348   0.00000  Uiso   1.00
H1186  H     0.05730   0.95421   0.47941   0.00000  Uiso   1.00
H1187  H     0.05753   0.71355   0.48025   0.00000  Uiso   1.00
H1188  H     0.00909   0.74489   0.41524   0.00000  Uiso   1.00
H1189  H     0.03577   0.76425   0.66440   0.00000  Uiso   1.00
H1190  H     0.10926   0.74799   0.64405   0.00000  Uiso   1.00
H1191  H     0.15744   0.71414   0.37493   0.00000  Uiso   1.00
H1192  H     0.29282   0.83578   0.41889   0.00000  Uiso   1.00
H1193  H     0.17592   0.95257   0.62507   0.00000  Uiso   1.00
H1194  H     0.22410   0.91869   0.35593   0.00000  Uiso   1.00
H1195  H     0.29756   0.90235   0.33554   0.00000  Uiso   1.00
H1196  H     0.32425   0.92174   0.58469   0.00000  Uiso   1.00
H1197  H     0.27581   0.95310   0.51970   0.00000  Uiso   1.00
H1198  H     0.29652   0.83096   0.58094   0.00000  Uiso   1.00
H1199  H     0.03683   0.83563   0.41906   0.00000  Uiso   1.00
H1200  H     0.27603   0.71251   0.52050   0.00000  Uiso   1.00
H1201  H     0.32446   0.74197   0.58643   0.00000  Uiso   1.00
H1202  H     0.29739   0.76087   0.33721   0.00000  Uiso   1.00
H1203  H     0.22347   0.74643   0.35646   0.00000  Uiso   1.00
H1204  H     0.17528   0.71424   0.62473   0.00000  Uiso   1.00
N1205  N     0.16667   0.95240   0.50000   0.00000  Uiso   1.00
N1206  N     0.16667   0.71427   0.50000   0.00000  Uiso   1.00
O1207  O     0.10559   0.87154   0.50000   0.00000  Uiso   1.00
O1208  O     0.22774   0.79513   0.50000   0.00000  Uiso   1.00
O1209  O     0.22774   0.87154   0.50000   0.00000  Uiso   1.00
O1210  O     0.10559   0.79513   0.50000   0.00000  Uiso   1.00
O1211  O     0.16667   0.87155   0.42845   0.00000  Uiso   1.00
O1212  O     0.16666   0.79512   0.57155   0.00000  Uiso   1.00
O1213  O     0.16666   0.87155   0.57155   0.00000  Uiso   1.00
O1214  O     0.16667   0.79512   0.42845   0.00000  Uiso   1.00
Zn1215 Zn    0.16667   0.88437   0.50000   0.00000  Uiso   1.00
Zn1216 Zn    0.16667   0.78229   0.50000   0.00000  Uiso   1.00
C1217  C     0.42022   0.83336   0.49995   0.00000  Uiso   1.00
C1218  C     0.35392   0.83474   0.45427   0.00000  Uiso   1.00
C1219  C     0.62394   0.83325   0.49998   0.00000  Uiso   1.00
C1220  C     0.37606   0.83340   0.50004   0.00000  Uiso   1.00
C1221  C     0.52693   0.69047   0.53104   0.00000  Uiso   1.00
C1222  C     0.47307   0.97620   0.46895   0.00000  Uiso   1.00
C1223  C     0.47306   0.69062   0.46897   0.00000  Uiso   1.00
C1224  C     0.52695   0.97605   0.53103   0.00000  Uiso   1.00
C1225  C     0.55486   0.71382   0.56739   0.00000  Uiso   1.00
C1226  C     0.59743   0.72064   0.55705   0.00000  Uiso   1.00
C1227  C     0.62495   0.73701   0.59440   0.00000  Uiso   1.00
C1228  C     0.57978   0.83330   0.50006   0.00000  Uiso   1.00
C1229  C     0.60997   0.74722   0.64187   0.00000  Uiso   1.00
C1230  C     0.56799   0.73935   0.65270   0.00000  Uiso   1.00
C1231  C     0.54075   0.72182   0.61587   0.00000  Uiso   1.00
C1232  C     0.44516   0.95285   0.43258   0.00000  Uiso   1.00
C1233  C     0.45930   0.94477   0.38413   0.00000  Uiso   1.00
C1234  C     0.43209   0.92712   0.34730   0.00000  Uiso   1.00
C1235  C     0.39010   0.91922   0.35812   0.00000  Uiso   1.00
C1236  C     0.37509   0.92954   0.40554   0.00000  Uiso   1.00
C1237  C     0.40258   0.94603   0.44289   0.00000  Uiso   1.00
C1238  C     0.44500   0.71420   0.43280   0.00000  Uiso   1.00
C1239  C     0.49994   0.83334   0.40639   0.00000  Uiso   1.00
C1240  C     0.40261   0.72172   0.44364   0.00000  Uiso   1.00
C1241  C     0.37510   0.73921   0.40682   0.00000  Uiso   1.00
C1242  C     0.38986   0.74962   0.35930   0.00000  Uiso   1.00
C1243  C     0.43158   0.74076   0.34786   0.00000  Uiso   1.00
C1244  C     0.45882   0.72225   0.38421   0.00000  Uiso   1.00
C1245  C     0.55502   0.95248   0.56719   0.00000  Uiso   1.00
C1246  C     0.54120   0.94443   0.61578   0.00000  Uiso   1.00
C1247  C     0.56844   0.92591   0.65212   0.00000  Uiso   1.00
C1248  C     0.61016   0.91702   0.64065   0.00000  Uiso   1.00
C1249  C     0.62491   0.92744   0.59314   0.00000  Uiso   1.00
C1250  C     0.50005   0.83332   0.59361   0.00000  Uiso   1.00
C1251  C     0.59740   0.94494   0.55633   0.00000  Uiso   1.00
C1252  C     0.49998   0.83335   0.35518   0.00000  Uiso   1.00
C1253  C     0.50000   0.83332   0.64482   0.00000  Uiso   1.00
C1254  C     0.35606   0.83192   0.54585   0.00000  Uiso   1.00
C1255  C     0.64395   0.83473   0.45417   0.00000  Uiso   1.00
C1256  C     0.64609   0.83189   0.54574   0.00000  Uiso   1.00
H1257  H     0.37386   0.83088   0.58112   0.00000  Uiso   1.00
H1258  H     0.49146   0.95233   0.37529   0.00000  Uiso   1.00
H1259  H     0.44331   0.91990   0.64358   0.00000  Uiso   1.00
H1260  H     0.36937   0.90541   0.66279   0.00000  Uiso   1.00
H1261  H     0.34223   0.92456   0.41348   0.00000  Uiso   1.00
H1262  H     0.39063   0.95421   0.47941   0.00000  Uiso   1.00
H1263  H     0.39086   0.71355   0.48025   0.00000  Uiso   1.00
H1264  H     0.34242   0.74489   0.41524   0.00000  Uiso   1.00
H1265  H     0.36911   0.76425   0.66440   0.00000  Uiso   1.00
H1266  H     0.44260   0.74799   0.64405   0.00000  Uiso   1.00
H1267  H     0.49078   0.71414   0.37493   0.00000  Uiso   1.00
H1268  H     0.62615   0.83578   0.41889   0.00000  Uiso   1.00
H1269  H     0.50925   0.95257   0.62507   0.00000  Uiso   1.00
H1270  H     0.55743   0.91869   0.35593   0.00000  Uiso   1.00
H1271  H     0.63089   0.90235   0.33554   0.00000  Uiso   1.00
H1272  H     0.65759   0.92174   0.58469   0.00000  Uiso   1.00
H1273  H     0.60914   0.95310   0.51970   0.00000  Uiso   1.00
H1274  H     0.62985   0.83096   0.58094   0.00000  Uiso   1.00
H1275  H     0.37016   0.83563   0.41906   0.00000  Uiso   1.00
H1276  H     0.60936   0.71251   0.52050   0.00000  Uiso   1.00
H1277  H     0.65780   0.74197   0.58643   0.00000  Uiso   1.00
H1278  H     0.63072   0.76087   0.33721   0.00000  Uiso   1.00
H1279  H     0.55681   0.74643   0.35646   0.00000  Uiso   1.00
H1280  H     0.50861   0.71424   0.62473   0.00000  Uiso   1.00
N1281  N     0.50000   0.95240   0.50000   0.00000  Uiso   1.00
N1282  N     0.50000   0.71427   0.50000   0.00000  Uiso   1.00
O1283  O     0.43892   0.87154   0.50000   0.00000  Uiso   1.00
O1284  O     0.56108   0.79513   0.50000   0.00000  Uiso   1.00
O1285  O     0.56108   0.87154   0.50000   0.00000  Uiso   1.00
O1286  O     0.43892   0.79513   0.50000   0.00000  Uiso   1.00
O1287  O     0.50000   0.87155   0.42845   0.00000  Uiso   1.00
O1288  O     0.50000   0.79512   0.57155   0.00000  Uiso   1.00
O1289  O     0.50000   0.87155   0.57155   0.00000  Uiso   1.00
O1290  O     0.50000   0.79512   0.42845   0.00000  Uiso   1.00
Zn1291 Zn    0.50000   0.88437   0.50000   0.00000  Uiso   1.00
Zn1292 Zn    0.50000   0.78229   0.50000   0.00000  Uiso   1.00
C1293  C     0.75355   0.83336   0.49995   0.00000  Uiso   1.00
C1294  C     0.68725   0.83474   0.45427   0.00000  Uiso   1.00
C1295  C     0.95728   0.83325   0.49998   0.00000  Uiso   1.00
C1296  C     0.70939   0.83340   0.50004   0.00000  Uiso   1.00
C1297  C     0.86027   0.69047   0.53104   0.00000  Uiso   1.00
C1298  C     0.80640   0.97620   0.46895   0.00000  Uiso   1.00
C1299  C     0.80639   0.69062   0.46897   0.00000  Uiso   1.00
C1300  C     0.86028   0.97605   0.53103   0.00000  Uiso   1.00
C1301  C     0.88820   0.71382   0.56739   0.00000  Uiso   1.00
C1302  C     0.93076   0.72064   0.55705   0.00000  Uiso   1.00
C1303  C     0.95828   0.73701   0.59440   0.00000  Uiso   1.00
C1304  C     0.91312   0.83330   0.50006   0.00000  Uiso   1.00
C1305  C     0.94330   0.74722   0.64187   0.00000  Uiso   1.00
C1306  C     0.90132   0.73935   0.65270   0.00000  Uiso   1.00
C1307  C     0.87409   0.72182   0.61587   0.00000  Uiso   1.00
C1308  C     0.77849   0.95285   0.43258   0.00000  Uiso   1.00
C1309  C     0.79264   0.94477   0.38413   0.00000  Uiso   1.00
C1310  C     0.76543   0.92712   0.34730   0.00000  Uiso   1.00
C1311  C     0.72344   0.91922   0.35812   0.00000  Uiso   1.00
C1312  C     0.70843   0.92954   0.40554   0.00000  Uiso   1.00
C1313  C     0.73592   0.94603   0.44289   0.00000  Uiso   1.00
C1314  C     0.77833   0.71420   0.43280   0.00000  Uiso   1.00
C1315  C     0.83327   0.83334   0.40639   0.00000  Uiso   1.00
C1316  C     0.73594   0.72172   0.44364   0.00000  Uiso   1.00
C1317  C     0.70843   0.73921   0.40682   0.00000  Uiso   1.00
C1318  C     0.72319   0.74962   0.35930   0.00000  Uiso   1.00
C1319  C     0.76491   0.74076   0.34786   0.00000  Uiso   1.00
C1320  C     0.79216   0.72225   0.38421   0.00000  Uiso   1.00
C1321  C     0.88835   0.95248   0.56719   0.00000  Uiso   1.00
C1322  C     0.87454   0.94443   0.61578   0.00000  Uiso   1.00
C1323  C     0.90178   0.92591   0.65212   0.00000  Uiso   1.00
C1324  C     0.94349   0.91702   0.64065   0.00000  Uiso   1.00
C1325  C     0.95825   0.92744   0.59314   0.00000  Uiso   1.00
C1326  C     0.83339   0.83332   0.59361   0.00000  Uiso   1.00
C1327  C     0.93073   0.94494   0.55633   0.00000  Uiso   1.00
C1328  C     0.83331   0.83335   0.35518   0.00000  Uiso   1.00
C1329  C     0.83334   0.83332   0.64482   0.00000  Uiso   1.00
C1330  C     0.68939   0.83192   0.54585   0.00000  Uiso   1.00
C1331  C     0.97728   0.83473   0.45417   0.00000  Uiso   1.00
C1332  C     0.97942   0.83189   0.54574   0.00000  Uiso   1.00
H1333  H     0.70719   0.83088   0.58112   0.00000  Uiso   1.00
H1334  H     0.82479   0.95233   0.37529   0.00000  Uiso   1.00
H1335  H     0.77665   0.91990   0.64358   0.00000  Uiso   1.00
H1336  H     0.70270   0.90541   0.66279   0.00000  Uiso   1.00
H1337  H     0.67556   0.92456   0.41348   0.00000  Uiso   1.00
H1338  H     0.72396   0.95421   0.47941   0.00000  Uiso   1.00
H1339  H     0.72420   0.71355   0.48025   0.00000  Uiso   1.00
H1340  H     0.67575   0.74489   0.41524   0.00000  Uiso   1.00
H1341  H     0.70244   0.76425   0.66440   0.00000  Uiso   1.00
H1342  H     0.77593   0.74799   0.64405   0.00000  Uiso   1.00
H1343  H     0.82411   0.71414   0.37493   0.00000  Uiso   1.00
H1344  H     0.95948   0.83578   0.41889   0.00000  Uiso   1.00
H1345  H     0.84259   0.95257   0.62507   0.00000  Uiso   1.00
H1346  H     0.89076   0.91869   0.35593   0.00000  Uiso   1.00
H1347  H     0.96422   0.90235   0.33554   0.00000  Uiso   1.00
H1348  H     0.99092   0.92174   0.58469   0.00000  Uiso   1.00
H1349  H     0.94248   0.95310   0.51970   0.00000  Uiso   1.00
H1350  H     0.96318   0.83096   0.58094   0.00000  Uiso   1.00
H1351  H     0.70349   0.83563   0.41906   0.00000  Uiso   1.00
H1352  H     0.94269   0.71251   0.52050   0.00000  Uiso   1.00
H1353  H     0.99113   0.74197   0.58643   0.00000  Uiso   1.00
H1354  H     0.96405   0.76087   0.33721   0.00000  Uiso   1.00
H1355  H     0.89014   0.74643   0.35646   0.00000  Uiso   1.00
H1356  H     0.84195   0.71424   0.62473   0.00000  Uiso   1.00
N1357  N     0.83333   0.95240   0.50000   0.00000  Uiso   1.00
N1358  N     0.83333   0.71427   0.50000   0.00000  Uiso   1.00
O1359  O     0.77226   0.87154   0.50000   0.00000  Uiso   1.00
O1360  O     0.89441   0.79513   0.50000   0.00000  Uiso   1.00
O1361  O     0.89441   0.87154   0.50000   0.00000  Uiso   1.00
O1362  O     0.77226   0.79513   0.50000   0.00000  Uiso   1.00
O1363  O     0.83334   0.87155   0.42845   0.00000  Uiso   1.00
O1364  O     0.83333   0.79512   0.57155   0.00000  Uiso   1.00
O1365  O     0.83333   0.87155   0.57155   0.00000  Uiso   1.00
O1366  O     0.83334   0.79512   0.42845   0.00000  Uiso   1.00
Zn1367 Zn    0.83333   0.88437   0.50000   0.00000  Uiso   1.00
Zn1368 Zn    0.83333   0.78229   0.50000   0.00000  Uiso   1.00
C1369  C     0.08688   0.16670   0.83328   0.00000  Uiso   1.00
C1370  C     0.02058   0.16808   0.78760   0.00000  Uiso   1.00
C1371  C     0.29061   0.16658   0.83331   0.00000  Uiso   1.00
C1372  C     0.04273   0.16673   0.83337   0.00000  Uiso   1.00
C1373  C     0.19360   0.02380   0.86437   0.00000  Uiso   1.00
C1374  C     0.13974   0.30953   0.80228   0.00000  Uiso   1.00
C1375  C     0.13972   0.02396   0.80230   0.00000  Uiso   1.00
C1376  C     0.19362   0.30938   0.86436   0.00000  Uiso   1.00
C1377  C     0.22153   0.04715   0.90072   0.00000  Uiso   1.00
C1378  C     0.26410   0.05397   0.89038   0.00000  Uiso   1.00
C1379  C     0.29161   0.07034   0.92773   0.00000  Uiso   1.00
C1380  C     0.24645   0.16664   0.83340   0.00000  Uiso   1.00
C1381  C     0.27663   0.08055   0.97520   0.00000  Uiso   1.00
C1382  C     0.23466   0.07268   0.98604   0.00000  Uiso   1.00
C1383  C     0.20742   0.05515   0.94921   0.00000  Uiso   1.00
C1384  C     0.11182   0.28618   0.76592   0.00000  Uiso   1.00
C1385  C     0.12597   0.27811   0.71746   0.00000  Uiso   1.00
C1386  C     0.09876   0.26045   0.68064   0.00000  Uiso   1.00
C1387  C     0.05677   0.25255   0.69145   0.00000  Uiso   1.00
C1388  C     0.04176   0.26287   0.73888   0.00000  Uiso   1.00
C1389  C     0.06925   0.27936   0.77622   0.00000  Uiso   1.00
C1390  C     0.11166   0.04753   0.76613   0.00000  Uiso   1.00
C1391  C     0.16661   0.16668   0.73972   0.00000  Uiso   1.00
C1392  C     0.06928   0.05505   0.77697   0.00000  Uiso   1.00
C1393  C     0.04177   0.07254   0.74015   0.00000  Uiso   1.00
C1394  C     0.05652   0.08296   0.69264   0.00000  Uiso   1.00
C1395  C     0.09824   0.07410   0.68119   0.00000  Uiso   1.00
C1396  C     0.12549   0.05559   0.71754   0.00000  Uiso   1.00
C1397  C     0.22169   0.28581   0.90052   0.00000  Uiso   1.00
C1398  C     0.20787   0.27776   0.94912   0.00000  Uiso   1.00
C1399  C     0.23511   0.25924   0.98546   0.00000  Uiso   1.00
C1400  C     0.27682   0.25035   0.97399   0.00000  Uiso   1.00
C1401  C     0.29158   0.26077   0.92647   0.00000  Uiso   1.00
C1402  C     0.16672   0.16666   0.92695   0.00000  Uiso   1.00
C1403  C     0.26407   0.27828   0.88966   0.00000  Uiso   1.00
C1404  C     0.16665   0.16668   0.68851   0.00000  Uiso   1.00
C1405  C     0.16667   0.16665   0.97816   0.00000  Uiso   1.00
C1406  C     0.02272   0.16525   0.87918   0.00000  Uiso   1.00
C1407  C     0.31061   0.16806   0.78750   0.00000  Uiso   1.00
C1408  C     0.31275   0.16522   0.87908   0.00000  Uiso   1.00
H1409  H     0.04052   0.16421   0.91445   0.00000  Uiso   1.00
H1410  H     0.15812   0.28566   0.70862   0.00000  Uiso   1.00
H1411  H     0.10998   0.25324   0.97691   0.00000  Uiso   1.00
H1412  H     0.03604   0.23875   0.99612   0.00000  Uiso   1.00
H1413  H     0.00890   0.25789   0.74681   0.00000  Uiso   1.00
H1414  H     0.05730   0.28754   0.81274   0.00000  Uiso   1.00
H1415  H     0.05753   0.04688   0.81359   0.00000  Uiso   1.00
H1416  H     0.00909   0.07822   0.74858   0.00000  Uiso   1.00
H1417  H     0.03577   0.09759   0.99774   0.00000  Uiso   1.00
H1418  H     0.10926   0.08132   0.97738   0.00000  Uiso   1.00
H1419  H     0.15744   0.04747   0.70826   0.00000  Uiso   1.00
H1420  H     0.29282   0.16911   0.75223   0.00000  Uiso   1.00
H1421  H     0.17592   0.28590   0.95840   0.00000  Uiso   1.00
H1422  H     0.22410   0.25202   0.68927   0.00000  Uiso   1.00
H1423  H     0.29756   0.23569   0.66887   0.00000  Uiso   1.00
H1424  H     0.32425   0.25507   0.91802   0.00000  Uiso   1.00
H1425  H     0.27581   0.28644   0.85304   0.00000  Uiso   1.00
H1426  H     0.29652   0.16430   0.91427   0.00000  Uiso   1.00
H1427  H     0.03683   0.16896   0.75239   0.00000  Uiso   1.00
H1428  H     0.27603   0.04584   0.85384   0.00000  Uiso   1.00
H1429  H     0.32446   0.07530   0.91976   0.00000  Uiso   1.00
H1430  H     0.29739   0.09421   0.67054   0.00000  Uiso   1.00
H1431  H     0.22347   0.07976   0.68979   0.00000  Uiso   1.00
H1432  H     0.17528   0.04758   0.95807   0.00000  Uiso   1.00
N1433  N     0.16667   0.28573   0.83333   0.00000  Uiso   1.00
N1434  N     0.16667   0.04760   0.83333   0.00000  Uiso   1.00
O1435  O     0.10559   0.20487   0.83333   0.00000  Uiso   1.00
O1436  O     0.22774   0.12846   0.83334   0.00000  Uiso   1.00
O1437  O     0.22774   0.20487   0.83334   0.00000  Uiso   1.00
O1438  O     0.10559   0.12846   0.83333   0.00000  Uiso   1.00
O1439  O     0.16667   0.20488   0.76178   0.00000  Uiso   1.00
O1440  O     0.16666   0.12845   0.90489   0.00000  Uiso   1.00
O1441  O     0.16666   0.20488   0.90489   0.00000  Uiso   1.00
O1442  O     0.16667   0.12845   0.76178   0.00000  Uiso   1.00
Zn1443 Zn    0.16667   0.21771   0.83333   0.00000  Uiso   1.00
Zn1444 Zn    0.16667   0.11563   0.83333   0.00000  Uiso   1.00
C1445  C     0.42022   0.16670   0.83328   0.00000  Uiso   1.00
C1446  C     0.35392   0.16808   0.78760   0.00000  Uiso   1.00
C1447  C     0.62394   0.16658   0.83331   0.00000  Uiso   1.00
C1448  C     0.37606   0.16673   0.83337   0.00000  Uiso   1.00
C1449  C     0.52693   0.02380   0.86437   0.00000  Uiso   1.00
C1450  C     0.47307   0.30953   0.80228   0.00000  Uiso   1.00
C1451  C     0.47306   0.02396   0.80230   0.00000  Uiso   1.00
C1452  C     0.52695   0.30938   0.86436   0.00000  Uiso   1.00
C1453  C     0.55486   0.04715   0.90072   0.00000  Uiso   1.00
C1454  C     0.59743   0.05397   0.89038   0.00000  Uiso   1.00
C1455  C     0.62495   0.07034   0.92773   0.00000  Uiso   1.00
C1456  C     0.57978   0.16664   0.83340   0.00000  Uiso   1.00
C1457  C     0.60997   0.08055   0.97520   0.00000  Uiso   1.00
C1458  C     0.56799   0.07268   0.98604   0.00000  Uiso   1.00
C1459  C     0.54075   0.05515   0.94921   0.00000  Uiso   1.00
C1460  C     0.44516   0.28618   0.76592   0.00000  Uiso   1.00
C1461  C     0.45930   0.27811   0.71746   0.00000  Uiso   1.00
C1462  C     0.43209   0.26045   0.68064   0.00000  Uiso   1.00
C1463  C     0.39010   0.25255   0.69145   0.00000  Uiso   1.00
C1464  C     0.37509   0.26287   0.73888   0.00000  Uiso   1.00
C1465  C     0.40258   0.27936   0.77622   0.00000  Uiso   1.00
C1466  C     0.44500   0.04753   0.76613   0.00000  Uiso   1.00
C1467  C     0.49994   0.16668   0.73972   0.00000  Uiso   1.00
C1468  C     0.40261   0.05505   0.77697   0.00000  Uiso   1.00
C1469  C     0.37510   0.07254   0.74015   0.00000  Uiso   1.00
C1470  C     0.38986   0.08296   0.69264   0.00000  Uiso   1.00
C1471  C     0.43158   0.07410   0.68119   0.00000  Uiso   1.00
C1472  C     0.45882   0.05559   0.71754   0.00000  Uiso   1.00
C1473  C     0.55502   0.28581   0.90052   0.00000  Uiso   1.00
C1474  C     0.54120   0.27776   0.94912   0.00000  Uiso   1.00
C1475  C     0.56844   0.25924   0.98546   0.00000  Uiso   1.00
C1476  C     0.61016   0.25035   0.97399   0.00000  Uiso   1.00
C1477  C     0.62491   0.26077   0.92647   0.00000  Uiso   1.00
C1478  C     0.50005   0.16666   0.92695   0.00000  Uiso   1.00
C1479  C     0.59740   0.27828   0.88966   0.00000  Uiso   1.00
C1480  C     0.49998   0.16668   0.68851   0.00000  Uiso   1.00
C1481  C     0.50000   0.16665   0.97816   0.00000  Uiso   1.00
C1482  C     0.35606   0.16525   0.87918   0.00000  Uiso   1.00
C1483  C     0.64395   0.16806   0.78750   0.00000  Uiso   1.00
C1484  C     0.64609   0.16522   0.87908   0.00000  Uiso   1.00
H1485  H     0.37386   0.16421   0.91445   0.00000  Uiso   1.00
H1486  H     0.49146   0.28566   0.70862   0.00000  Uiso   1.00
H1487  H     0.44331   0.25324   0.97691   0.00000  Uiso   1.00
H1488  H     0.36937   0.23875   0.99612   0.00000  Uiso   1.00
H1489  H     0.34223   0.25789   0.74681   0.00000  Uiso   1.00
H1490  H     0.39063   0.28754   0.81274   0.00000  Uiso   1.00
H1491  H     0.39086   0.04688   0.81359   0.00000  Uiso   1.00
H1492  H     0.34242   0.07822   0.74858   0.00000  Uiso   1.00
H1493  H     0.36911   0.09759   0.99774   0.00000  Uiso   1.00
H1494  H     0.44260   0.08132   0.97738   0.00000  Uiso   1.00
H1495  H     0.49078   0.04747   0.70826   0.00000  Uiso   1.00
H1496  H     0.62615   0.16911   0.75223   0.00000  Uiso   1.00
H1497  H     0.50925   0.28590   0.95840   0.00000  Uiso   1.00
H1498  H     0.55743   0.25202   0.68927   0.00000  Uiso   1.00
H1499  H     0.63089   0.23569   0.66887   0.00000  Uiso   1.00
H1500  H     0.65759   0.25507   0.91802   0.00000  Uiso   1.00
H1501  H     0.60914   0.28644   0.85304   0.00000  Uiso   1.00
H1502  H     0.62985   0.16430   0.91427   0.00000  Uiso   1.00
H1503  H     0.37016   0.16896   0.75239   0.00000  Uiso   1.00
H1504  H     0.60936   0.04584   0.85384   0.00000  Uiso   1.00
H1505  H     0.65780   0.07530   0.91976   0.00000  Uiso   1.00
H1506  H     0.63072   0.09421   0.67054   0.00000  Uiso   1.00
H1507  H     0.55681   0.07976   0.68979   0.00000  Uiso   1.00
H1508  H     0.50861   0.04758   0.95807   0.00000  Uiso   1.00
N1509  N     0.50000   0.28573   0.83333   0.00000  Uiso   1.00
N1510  N     0.50000   0.04760   0.83333   0.00000  Uiso   1.00
O1511  O     0.43892   0.20487   0.83333   0.00000  Uiso   1.00
O1512  O     0.56108   0.12846   0.83334   0.00000  Uiso   1.00
O1513  O     0.56108   0.20487   0.83334   0.00000  Uiso   1.00
O1514  O     0.43892   0.12846   0.83333   0.00000  Uiso   1.00
O1515  O     0.50000   0.20488   0.76178   0.00000  Uiso   1.00
O1516  O     0.50000   0.12845   0.90489   0.00000  Uiso   1.00
O1517  O     0.50000   0.20488   0.90489   0.00000  Uiso   1.00
O1518  O     0.50000   0.12845   0.76178   0.00000  Uiso   1.00
Zn1519 Zn    0.50000   0.21771   0.83333   0.00000  Uiso   1.00
Zn1520 Zn    0.50000   0.11563   0.83333   0.00000  Uiso   1.00
C1521  C     0.75355   0.16670   0.83328   0.00000  Uiso   1.00
C1522  C     0.68725   0.16808   0.78760   0.00000  Uiso   1.00
C1523  C     0.95728   0.16658   0.83331   0.00000  Uiso   1.00
C1524  C     0.70939   0.16673   0.83337   0.00000  Uiso   1.00
C1525  C     0.86027   0.02380   0.86437   0.00000  Uiso   1.00
C1526  C     0.80640   0.30953   0.80228   0.00000  Uiso   1.00
C1527  C     0.80639   0.02396   0.80230   0.00000  Uiso   1.00
C1528  C     0.86028   0.30938   0.86436   0.00000  Uiso   1.00
C1529  C     0.88820   0.04715   0.90072   0.00000  Uiso   1.00
C1530  C     0.93076   0.05397   0.89038   0.00000  Uiso   1.00
C1531  C     0.95828   0.07034   0.92773   0.00000  Uiso   1.00
C1532  C     0.91312   0.16664   0.83340   0.00000  Uiso   1.00
C1533  C     0.94330   0.08055   0.97520   0.00000  Uiso   1.00
C1534  C     0.90132   0.07268   0.98604   0.00000  Uiso   1.00
C1535  C     0.87409   0.05515   0.94921   0.00000  Uiso   1.00
C1536  C     0.77849   0.28618   0.76592   0.00000  Uiso   1.00
C1537  C     0.79264   0.27811   0.71746   0.00000  Uiso   1.00
C1538  C     0.76543   0.26045   0.68064   0.00000  Uiso   1.00
C1539  C     0.72344   0.25255   0.69145   0.00000  Uiso   1.00
C1540  C     0.70843   0.26287   0.73888   0.00000  Uiso   1.00
C1541  C     0.73592   0.27936   0.77622   0.00000  Uiso   1.00
C1542  C     0.77833   0.04753   0.76613   0.00000  Uiso   1.00
C1543  C     0.83327   0.16668   0.73972   0.00000  Uiso   1.00
C1544  C     0.73594   0.05505   0.77697   0.00000  Uiso   1.00
C1545  C     0.70843   0.07254   0.74015   0.00000  Uiso   1.00
C1546  C     0.72319   0.08296   0.69264   0.00000  Uiso   1.00
C1547  C     0.76491   0.07410   0.68119   0.00000  Uiso   1.00
C1548  C     0.79216   0.05559   0.71754   0.00000  Uiso   1.00
C1549  C     0.88835   0.28581   0.90052   0.00000  Uiso   1.00
C1550  C     0.87454   0.27776   0.94912   0.00000  Uiso   1.00
C1551  C     0.90178   0.25924   0.98546   0.00000  Uiso   1.00
C1552  C     0.94349   0.25035   0.97399   0.00000  Uiso   1.00
C1553  C     0.95825   0.26077   0.92647   0.00000  Uiso   1.00
C1554  C     0.83339   0.16666   0.92695   0.00000  Uiso   1.00
C1555  C     0.93073   0.27828   0.88966   0.00000  Uiso   1.00
C1556  C     0.83331   0.16668   0.68851   0.00000  Uiso   1.00
C1557  C     0.83334   0.16665   0.97816   0.00000  Uiso   1.00
C1558  C     0.68939   0.16525   0.87918   0.00000  Uiso   1.00
C1559  C     0.97728   0.16806   0.78750   0.00000  Uiso   1.00
C1560  C     0.97942   0.16522   0.87908   0.00000  Uiso   1.00
H1561  H     0.70719   0.16421   0.91445   0.00000  Uiso   1.00
H1562  H     0.82479   0.28566   0.70862   0.00000  Uiso   1.00
H1563  H     0.77665   0.25324   0.97691   0.00000  Uiso   1.00
H1564  H     0.70270   0.23875   0.99612   0.00000  Uiso   1.00
H1565  H     0.67556   0.25789   0.74681   0.00000  Uiso   1.00
H1566  H     0.72396   0.28754   0.81274   0.00000  Uiso   1.00
H1567  H     0.72420   0.04688   0.81359   0.00000  Uiso   1.00
H1568  H     0.67575   0.07822   0.74858   0.00000  Uiso   1.00
H1569  H     0.70244   0.09759   0.99774   0.00000  Uiso   1.00
H1570  H     0.77593   0.08132   0.97738   0.00000  Uiso   1.00
H1571  H     0.82411   0.04747   0.70826   0.00000  Uiso   1.00
H1572  H     0.95948   0.16911   0.75223   0.00000  Uiso   1.00
H1573  H     0.84259   0.28590   0.95840   0.00000  Uiso   1.00
H1574  H     0.89076   0.25202   0.68927   0.00000  Uiso   1.00
H1575  H     0.96422   0.23569   0.66887   0.00000  Uiso   1.00
H1576  H     0.99092   0.25507   0.91802   0.00000  Uiso   1.00
H1577  H     0.94248   0.28644   0.85304   0.00000  Uiso   1.00
H1578  H     0.96318   0.16430   0.91427   0.00000  Uiso   1.00
H1579  H     0.70349   0.16896   0.75239   0.00000  Uiso   1.00
H1580  H     0.94269   0.04584   0.85384   0.00000  Uiso   1.00
H1581  H     0.99113   0.07530   0.91976   0.00000  Uiso   1.00
H1582  H     0.96405   0.09421   0.67054   0.00000  Uiso   1.00
H1583  H     0.89014   0.07976   0.68979   0.00000  Uiso   1.00
H1584  H     0.84195   0.04758   0.95807   0.00000  Uiso   1.00
N1585  N     0.83333   0.28573   0.83333   0.00000  Uiso   1.00
N1586  N     0.83333   0.04760   0.83333   0.00000  Uiso   1.00
O1587  O     0.77226   0.20487   0.83333   0.00000  Uiso   1.00
O1588  O     0.89441   0.12846   0.83334   0.00000  Uiso   1.00
O1589  O     0.89441   0.20487   0.83334   0.00000  Uiso   1.00
O1590  O     0.77226   0.12846   0.83333   0.00000  Uiso   1.00
O1591  O     0.83334   0.20488   0.76178   0.00000  Uiso   1.00
O1592  O     0.83333   0.12845   0.90489   0.00000  Uiso   1.00
O1593  O     0.83333   0.20488   0.90489   0.00000  Uiso   1.00
O1594  O     0.83334   0.12845   0.76178   0.00000  Uiso   1.00
Zn1595 Zn    0.83333   0.21771   0.83333   0.00000  Uiso   1.00
Zn1596 Zn    0.83333   0.11563   0.83333   0.00000  Uiso   1.00
C1597  C     0.08688   0.50003   0.83328   0.00000  Uiso   1.00
C1598  C     0.02058   0.50141   0.78760   0.00000  Uiso   1.00
C1599  C     0.29061   0.49991   0.83331   0.00000  Uiso   1.00
C1600  C     0.04273   0.50007   0.83337   0.00000  Uiso   1.00
C1601  C     0.19360   0.35714   0.86437   0.00000  Uiso   1.00
C1602  C     0.13974   0.64287   0.80228   0.00000  Uiso   1.00
C1603  C     0.13972   0.35729   0.80230   0.00000  Uiso   1.00
C1604  C     0.19362   0.64271   0.86436   0.00000  Uiso   1.00
C1605  C     0.22153   0.38049   0.90072   0.00000  Uiso   1.00
C1606  C     0.26410   0.38731   0.89038   0.00000  Uiso   1.00
C1607  C     0.29161   0.40368   0.92773   0.00000  Uiso   1.00
C1608  C     0.24645   0.49997   0.83340   0.00000  Uiso   1.00
C1609  C     0.27663   0.41389   0.97520   0.00000  Uiso   1.00
C1610  C     0.23466   0.40602   0.98604   0.00000  Uiso   1.00
C1611  C     0.20742   0.38849   0.94921   0.00000  Uiso   1.00
C1612  C     0.11182   0.61951   0.76592   0.00000  Uiso   1.00
C1613  C     0.12597   0.61144   0.71746   0.00000  Uiso   1.00
C1614  C     0.09876   0.59379   0.68064   0.00000  Uiso   1.00
C1615  C     0.05677   0.58588   0.69145   0.00000  Uiso   1.00
C1616  C     0.04176   0.59621   0.73888   0.00000  Uiso   1.00
C1617  C     0.06925   0.61269   0.77622   0.00000  Uiso   1.00
C1618  C     0.11166   0.38086   0.76613   0.00000  Uiso   1.00
C1619  C     0.16661   0.50001   0.73972   0.00000  Uiso   1.00
C1620  C     0.06928   0.38839   0.77697   0.00000  Uiso   1.00
C1621  C     0.04177   0.40588   0.74015   0.00000  Uiso   1.00
C1622  C     0.05652   0.41629   0.69264   0.00000  Uiso   1.00
C1623  C     0.09824   0.40743   0.68119   0.00000  Uiso   1.00
C1624  C     0.12549   0.38892   0.71754   0.00000  Uiso   1.00
C1625  C     0.22169   0.61914   0.90052   0.00000  Uiso   1.00
C1626  C     0.20787   0.61110   0.94912   0.00000  Uiso   1.00
C1627  C     0.23511   0.59258   0.98546   0.00000  Uiso   1.00
C1628  C     0.27682   0.58368   0.97399   0.00000  Uiso   1.00
C1629  C     0.29158   0.59410   0.92647   0.00000  Uiso   1.00
C1630  C     0.16672   0.49999   0.92695   0.00000  Uiso   1.00
C1631  C     0.26407   0.61161   0.88966   0.00000  Uiso   1.00
C1632  C     0.16665   0.50001   0.68851   0.00000  Uiso   1.00
C1633  C     0.16667   0.49999   0.97816   0.00000  Uiso   1.00
C1634  C     0.02272   0.49859   0.87918   0.00000  Uiso   1.00
C1635  C     0.31061   0.50139   0.78750   0.00000  Uiso   1.00
C1636  C     0.31275   0.49855   0.87908   0.00000  Uiso   1.00
H1637  H     0.04052   0.49754   0.91445   0.00000  Uiso   1.00
H1638  H     0.15812   0.61899   0.70862   0.00000  Uiso   1.00
H1639  H     0.10998   0.58657   0.97691   0.00000  Uiso   1.00
H1640  H     0.03604   0.57208   0.99612   0.00000  Uiso   1.00
H1641  H     0.00890   0.59122   0.74681   0.00000  Uiso   1.00
H1642  H     0.05730   0.62088   0.81274   0.00000  Uiso   1.00
H1643  H     0.05753   0.38022   0.81359   0.00000  Uiso   1.00
H1644  H     0.00909   0.41156   0.74858   0.00000  Uiso   1.00
H1645  H     0.03577   0.43092   0.99774   0.00000  Uiso   1.00
H1646  H     0.10926   0.41466   0.97738   0.00000  Uiso   1.00
H1647  H     0.15744   0.38080   0.70826   0.00000  Uiso   1.00
H1648  H     0.29282   0.50245   0.75223   0.00000  Uiso   1.00
H1649  H     0.17592   0.61924   0.95840   0.00000  Uiso   1.00
H1650  H     0.22410   0.58536   0.68927   0.00000  Uiso   1.00
H1651  H     0.29756   0.56902   0.66887   0.00000  Uiso   1.00
H1652  H     0.32425   0.58840   0.91802   0.00000  Uiso   1.00
H1653  H     0.27581   0.61977   0.85304   0.00000  Uiso   1.00
H1654  H     0.29652   0.49763   0.91427   0.00000  Uiso   1.00
H1655  H     0.03683   0.50230   0.75239   0.00000  Uiso   1.00
H1656  H     0.27603   0.37917   0.85384   0.00000  Uiso   1.00
H1657  H     0.32446   0.40863   0.91976   0.00000  Uiso   1.00
H1658  H     0.29739   0.42754   0.67054   0.00000  Uiso   1.00
H1659  H     0.22347   0.41310   0.68979   0.00000  Uiso   1.00
H1660  H     0.17528   0.38091   0.95807   0.00000  Uiso   1.00
N1661  N     0.16667   0.61907   0.83333   0.00000  Uiso   1.00
N1662  N     0.16667   0.38093   0.83333   0.00000  Uiso   1.00
O1663  O     0.10559   0.53821   0.83333   0.00000  Uiso   1.00
O1664  O     0.22774   0.46179   0.83334   0.00000  Uiso   1.00
O1665  O     0.22774   0.53821   0.83334   0.00000  Uiso   1.00
O1666  O     0.10559   0.46179   0.83333   0.00000  Uiso   1.00
O1667  O     0.16667   0.53821   0.76178   0.00000  Uiso   1.00
O1668  O     0.16666   0.46179   0.90489   0.00000  Uiso   1.00
O1669  O     0.16666   0.53821   0.90489   0.00000  Uiso   1.00
O1670  O     0.16667   0.46179   0.76178   0.00000  Uiso   1.00
Zn1671 Zn    0.16667   0.55104   0.83333   0.00000  Uiso   1.00
Zn1672 Zn    0.16667   0.44896   0.83333   0.00000  Uiso   1.00
C1673  C     0.42022   0.50003   0.83328   0.00000  Uiso   1.00
C1674  C     0.35392   0.50141   0.78760   0.00000  Uiso   1.00
C1675  C     0.62394   0.49991   0.83331   0.00000  Uiso   1.00
C1676  C     0.37606   0.50007   0.83337   0.00000  Uiso   1.00
C1677  C     0.52693   0.35714   0.86437   0.00000  Uiso   1.00
C1678  C     0.47307   0.64287   0.80228   0.00000  Uiso   1.00
C1679  C     0.47306   0.35729   0.80230   0.00000  Uiso   1.00
C1680  C     0.52695   0.64271   0.86436   0.00000  Uiso   1.00
C1681  C     0.55486   0.38049   0.90072   0.00000  Uiso   1.00
C1682  C     0.59743   0.38731   0.89038   0.00000  Uiso   1.00
C1683  C     0.62495   0.40368   0.92773   0.00000  Uiso   1.00
C1684  C     0.57978   0.49997   0.83340   0.00000  Uiso   1.00
C1685  C     0.60997   0.41389   0.97520   0.00000  Uiso   1.00
C1686  C     0.56799   0.40602   0.98604   0.00000  Uiso   1.00
C1687  C     0.54075   0.38849   0.94921   0.00000  Uiso   1.00
C1688  C     0.44516   0.61951   0.76592   0.00000  Uiso   1.00
C1689  C     0.45930   0.61144   0.71746   0.00000  Uiso   1.00
C1690  C     0.43209   0.59379   0.68064   0.00000  Uiso   1.00
C1691  C     0.39010   0.58588   0.69145   0.00000  Uiso   1.00
C1692  C     0.37509   0.59621   0.73888   0.00000  Uiso   1.00
C1693  C     0.40258   0.61269   0.77622   0.00000  Uiso   1.00
C1694  C     0.44500   0.38086   0.76613   0.00000  Uiso   1.00
C1695  C     0.49994   0.50001   0.73972   0.00000  Uiso   1.00
C1696  C     0.40261   0.38839   0.77697   0.00000  Uiso   1.00
C1697  C     0.37510   0.40588   0.74015   0.00000  Uiso   1.00
C1698  C     0.38986   0.41629   0.69264   0.00000  Uiso   1.00
C1699  C     0.43158   0.40743   0.68119   0.00000  Uiso   1.00
C1700  C     0.45882   0.38892   0.71754   0.00000  Uiso   1.00
C1701  C     0.55502   0.61914   0.90052   0.00000  Uiso   1.00
C1702  C     0.54120   0.61110   0.94912   0.00000  Uiso   1.00
C1703  C     0.56844   0.59258   0.98546   0.00000  Uiso   1.00
C1704  C     0.61016   0.58368   0.97399   0.00000  Uiso   1.00
C1705  C     0.62491   0.59410   0.92647   0.00000  Uiso   1.00
C1706  C     0.50005   0.49999   0.92695   0.00000  Uiso   1.00
C1707  C     0.59740   0.61161   0.88966   0.00000  Uiso   1.00
C1708  C     0.49998   0.50001   0.68851   0.00000  Uiso   1.00
C1709  C     0.50000   0.49999   0.97816   0.00000  Uiso   1.00
C1710  C     0.35606   0.49859   0.87918   0.00000  Uiso   1.00
C1711  C     0.64395   0.50139   0.78750   0.00000  Uiso   1.00
C1712  C     0.64609   0.49855   0.87908   0.00000  Uiso   1.00
H1713  H     0.37386   0.49754   0.91445   0.00000  Uiso   1.00
H1714  H     0.49146   0.61899   0.70862   0.00000  Uiso   1.00
H1715  H     0.44331   0.58657   0.97691   0.00000  Uiso   1.00
H1716  H     0.36937   0.57208   0.99612   0.00000  Uiso   1.00
H1717  H     0.34223   0.59122   0.74681   0.00000  Uiso   1.00
H1718  H     0.39063   0.62088   0.81274   0.00000  Uiso   1.00
H1719  H     0.39086   0.38022   0.81359   0.00000  Uiso   1.00
H1720  H     0.34242   0.41156   0.74858   0.00000  Uiso   1.00
H1721  H     0.36911   0.43092   0.99774   0.00000  Uiso   1.00
H1722  H     0.44260   0.41466   0.97738   0.00000  Uiso   1.00
H1723  H     0.49078   0.38080   0.70826   0.00000  Uiso   1.00
H1724  H     0.62615   0.50245   0.75223   0.00000  Uiso   1.00
H1725  H     0.50925   0.61924   0.95840   0.00000  Uiso   1.00
H1726  H     0.55743   0.58536   0.68927   0.00000  Uiso   1.00
H1727  H     0.63089   0.56902   0.66887   0.00000  Uiso   1.00
H1728  H     0.65759   0.58840   0.91802   0.00000  Uiso   1.00
H1729  H     0.60914   0.61977   0.85304   0.00000  Uiso   1.00
H1730  H     0.62985   0.49763   0.91427   0.00000  Uiso   1.00
H1731  H     0.37016   0.50230   0.75239   0.00000  Uiso   1.00
H1732  H     0.60936   0.37917   0.85384   0.00000  Uiso   1.00
H1733  H     0.65780   0.40863   0.91976   0.00000  Uiso   1.00
H1734  H     0.63072   0.42754   0.67054   0.00000  Uiso   1.00
H1735  H     0.55681   0.41310   0.68979   0.00000  Uiso   1.00
H1736  H     0.50861   0.38091   0.95807   0.00000  Uiso   1.00
N1737  N     0.50000   0.61907   0.83333   0.00000  Uiso   1.00
N1738  N     0.50000   0.38093   0.83333   0.00000  Uiso   1.00
O1739  O     0.43892   0.53821   0.83333   0.00000  Uiso   1.00
O1740  O     0.56108   0.46179   0.83334   0.00000  Uiso   1.00
O1741  O     0.56108   0.53821   0.83334   0.00000  Uiso   1.00
O1742  O     0.43892   0.46179   0.83333   0.00000  Uiso   1.00
O1743  O     0.50000   0.53821   0.76178   0.00000  Uiso   1.00
O1744  O     0.50000   0.46179   0.90489   0.00000  Uiso   1.00
O1745  O     0.50000   0.53821   0.90489   0.00000  Uiso   1.00
O1746  O     0.50000   0.46179   0.76178   0.00000  Uiso   1.00
Zn1747 Zn    0.50000   0.55104   0.83333   0.00000  Uiso   1.00
Zn1748 Zn    0.50000   0.44896   0.83333   0.00000  Uiso   1.00
C1749  C     0.75355   0.50003   0.83328   0.00000  Uiso   1.00
C1750  C     0.68725   0.50141   0.78760   0.00000  Uiso   1.00
C1751  C     0.95728   0.49991   0.83331   0.00000  Uiso   1.00
C1752  C     0.70939   0.50007   0.83337   0.00000  Uiso   1.00
C1753  C     0.86027   0.35714   0.86437   0.00000  Uiso   1.00
C1754  C     0.80640   0.64287   0.80228   0.00000  Uiso   1.00
C1755  C     0.80639   0.35729   0.80230   0.00000  Uiso   1.00
C1756  C     0.86028   0.64271   0.86436   0.00000  Uiso   1.00
C1757  C     0.88820   0.38049   0.90072   0.00000  Uiso   1.00
C1758  C     0.93076   0.38731   0.89038   0.00000  Uiso   1.00
C1759  C     0.95828   0.40368   0.92773   0.00000  Uiso   1.00
C1760  C     0.91312   0.49997   0.83340   0.00000  Uiso   1.00
C1761  C     0.94330   0.41389   0.97520   0.00000  Uiso   1.00
C1762  C     0.90132   0.40602   0.98604   0.00000  Uiso   1.00
C1763  C     0.87409   0.38849   0.94921   0.00000  Uiso   1.00
C1764  C     0.77849   0.61951   0.76592   0.00000  Uiso   1.00
C1765  C     0.79264   0.61144   0.71746   0.00000  Uiso   1.00
C1766  C     0.76543   0.59379   0.68064   0.00000  Uiso   1.00
C1767  C     0.72344   0.58588   0.69145   0.00000  Uiso   1.00
C1768  C     0.70843   0.59621   0.73888   0.00000  Uiso   1.00
C1769  C     0.73592   0.61269   0.77622   0.00000  Uiso   1.00
C1770  C     0.77833   0.38086   0.76613   0.00000  Uiso   1.00
C1771  C     0.83327   0.50001   0.73972   0.00000  Uiso   1.00
C1772  C     0.73594   0.38839   0.77697   0.00000  Uiso   1.00
C1773  C     0.70843   0.40588   0.74015   0.00000  Uiso   1.00
C1774  C     0.72319   0.41629   0.69264   0.00000  Uiso   1.00
C1775  C     0.76491   0.40743   0.68119   0.00000  Uiso   1.00
C1776  C     0.79216   0.38892   0.71754   0.00000  Uiso   1.00
C1777  C     0.88835   0.61914   0.90052   0.00000  Uiso   1.00
C1778  C     0.87454   0.61110   0.94912   0.00000  Uiso   1.00
C1779  C     0.90178   0.59258   0.98546   0.00000  Uiso   1.00
C1780  C     0.94349   0.58368   0.97399   0.00000  Uiso   1.00
C1781  C     0.95825   0.59410   0.92647   0.00000  Uiso   1.00
C1782  C     0.83339   0.49999   0.92695   0.00000  Uiso   1.00
C1783  C     0.93073   0.61161   0.88966   0.00000  Uiso   1.00
C1784  C     0.83331   0.50001   0.68851   0.00000  Uiso   1.00
C1785  C     0.83334   0.49999   0.97816   0.00000  Uiso   1.00
C1786  C     0.68939   0.49859   0.87918   0.00000  Uiso   1.00
C1787  C     0.97728   0.50139   0.78750   0.00000  Uiso   1.00
C1788  C     0.97942   0.49855   0.87908   0.00000  Uiso   1.00
H1789  H     0.70719   0.49754   0.91445   0.00000  Uiso   1.00
H1790  H     0.82479   0.61899   0.70862   0.00000  Uiso   1.00
H1791  H     0.77665   0.58657   0.97691   0.00000  Uiso   1.00
H1792  H     0.70270   0.57208   0.99612   0.00000  Uiso   1.00
H1793  H     0.67556   0.59122   0.74681   0.00000  Uiso   1.00
H1794  H     0.72396   0.62088   0.81274   0.00000  Uiso   1.00
H1795  H     0.72420   0.38022   0.81359   0.00000  Uiso   1.00
H1796  H     0.67575   0.41156   0.74858   0.00000  Uiso   1.00
H1797  H     0.70244   0.43092   0.99774   0.00000  Uiso   1.00
H1798  H     0.77593   0.41466   0.97738   0.00000  Uiso   1.00
H1799  H     0.82411   0.38080   0.70826   0.00000  Uiso   1.00
H1800  H     0.95948   0.50245   0.75223   0.00000  Uiso   1.00
H1801  H     0.84259   0.61924   0.95840   0.00000  Uiso   1.00
H1802  H     0.89076   0.58536   0.68927   0.00000  Uiso   1.00
H1803  H     0.96422   0.56902   0.66887   0.00000  Uiso   1.00
H1804  H     0.99092   0.58840   0.91802   0.00000  Uiso   1.00
H1805  H     0.94248   0.61977   0.85304   0.00000  Uiso   1.00
H1806  H     0.96318   0.49763   0.91427   0.00000  Uiso   1.00
H1807  H     0.70349   0.50230   0.75239   0.00000  Uiso   1.00
H1808  H     0.94269   0.37917   0.85384   0.00000  Uiso   1.00
H1809  H     0.99113   0.40863   0.91976   0.00000  Uiso   1.00
H1810  H     0.96405   0.42754   0.67054   0.00000  Uiso   1.00
H1811  H     0.89014   0.41310   0.68979   0.00000  Uiso   1.00
H1812  H     0.84195   0.38091   0.95807   0.00000  Uiso   1.00
N1813  N     0.83333   0.61907   0.83333   0.00000  Uiso   1.00
N1814  N     0.83333   0.38093   0.83333   0.00000  Uiso   1.00
O1815  O     0.77226   0.53821   0.83333   0.00000  Uiso   1.00
O1816  O     0.89441   0.46179   0.83334   0.00000  Uiso   1.00
O1817  O     0.89441   0.53821   0.83334   0.00000  Uiso   1.00
O1818  O     0.77226   0.46179   0.83333   0.00000  Uiso   1.00
O1819  O     0.83334   0.53821   0.76178   0.00000  Uiso   1.00
O1820  O     0.83333   0.46179   0.90489   0.00000  Uiso   1.00
O1821  O     0.83333   0.53821   0.90489   0.00000  Uiso   1.00
O1822  O     0.83334   0.46179   0.76178   0.00000  Uiso   1.00
Zn1823 Zn    0.83333   0.55104   0.83333   0.00000  Uiso   1.00
Zn1824 Zn    0.83333   0.44896   0.83333   0.00000  Uiso   1.00
C1825  C     0.08688   0.83336   0.83328   0.00000  Uiso   1.00
C1826  C     0.02058   0.83474   0.78760   0.00000  Uiso   1.00
C1827  C     0.29061   0.83325   0.83331   0.00000  Uiso   1.00
C1828  C     0.04273   0.83340   0.83337   0.00000  Uiso   1.00
C1829  C     0.19360   0.69047   0.86437   0.00000  Uiso   1.00
C1830  C     0.13974   0.97620   0.80228   0.00000  Uiso   1.00
C1831  C     0.13972   0.69062   0.80230   0.00000  Uiso   1.00
C1832  C     0.19362   0.97605   0.86436   0.00000  Uiso   1.00
C1833  C     0.22153   0.71382   0.90072   0.00000  Uiso   1.00
C1834  C     0.26410   0.72064   0.89038   0.00000  Uiso   1.00
C1835  C     0.29161   0.73701   0.92773   0.00000  Uiso   1.00
C1836  C     0.24645   0.83330   0.83340   0.00000  Uiso   1.00
C1837  C     0.27663   0.74722   0.97520   0.00000  Uiso   1.00
C1838  C     0.23466   0.73935   0.98604   0.00000  Uiso   1.00
C1839  C     0.20742   0.72182   0.94921   0.00000  Uiso   1.00
C1840  C     0.11182   0.95285   0.76592   0.00000  Uiso   1.00
C1841  C     0.12597   0.94477   0.71746   0.00000  Uiso   1.00
C1842  C     0.09876   0.92712   0.68064   0.00000  Uiso   1.00
C1843  C     0.05677   0.91922   0.69145   0.00000  Uiso   1.00
C1844  C     0.04176   0.92954   0.73888   0.00000  Uiso   1.00
C1845  C     0.06925   0.94603   0.77622   0.00000  Uiso   1.00
C1846  C     0.11166   0.71420   0.76613   0.00000  Uiso   1.00
C1847  C     0.16661   0.83334   0.73972   0.00000  Uiso   1.00
C1848  C     0.06928   0.72172   0.77697   0.00000  Uiso   1.00
C1849  C     0.04177   0.73921   0.74015   0.00000  Uiso   1.00
C1850  C     0.05652   0.74962   0.69264   0.00000  Uiso   1.00
C1851  C     0.09824   0.74076   0.68119   0.00000  Uiso   1.00
C1852  C     0.12549   0.72225   0.71754   0.00000  Uiso   1.00
C1853  C     0.22169   0.95248   0.90052   0.00000  Uiso   1.00
C1854  C     0.20787   0.94443   0.94912   0.00000  Uiso   1.00
C1855  C     0.23511   0.92591   0.98546   0.00000  Uiso   1.00
C1856  C     0.27682   0.91702   0.97399   0.00000  Uiso   1.00
C1857  C     0.29158   0.92744   0.92647   0.00000  Uiso   1.00
C1858  C     0.16672   0.83332   0.92695   0.00000  Uiso   1.00
C1859  C     0.26407   0.94494   0.88966   0.00000  Uiso   1.00
C1860  C     0.16665   0.83335   0.68851   0.00000  Uiso   1.00
C1861  C     0.16667   0.83332   0.97816   0.00000  Uiso   1.00
C1862  C     0.02272   0.83192   0.87918   0.00000  Uiso   1.00
C1863  C     0.31061   0.83473   0.78750   0.00000  Uiso   1.00
C1864  C     0.31275   0.83189   0.87908   0.00000  Uiso   1.00
H1865  H     0.04052   0.83088   0.91445   0.00000  Uiso   1.00
H1866  H     0.15812   0.95233   0.70862   0.00000  Uiso   1.00
H1867  H     0.10998   0.91990   0.97691   0.00000  Uiso   1.00
H1868  H     0.03604   0.90541   0.99612   0.00000  Uiso   1.00
H1869  H     0.00890   0.92456   0.74681   0.00000  Uiso   1.00
H1870  H     0.05730   0.95421   0.81274   0.00000  Uiso   1.00
H1871  H     0.05753   0.71355   0.81359   0.00000  Uiso   1.00
H1872  H     0.00909   0.74489   0.74858   0.00000  Uiso   1.00
H1873  H     0.03577   0.76425   0.99774   0.00000  Uiso   1.00
H1874  H     0.10926   0.74799   0.97738   0.00000  Uiso   1.00
H1875  H     0.15744   0.71414   0.70826   0.00000  Uiso   1.00
H1876  H     0.29282   0.83578   0.75223   0.00000  Uiso   1.00
H1877  H     0.17592   0.95257   0.95840   0.00000  Uiso   1.00
H1878  H     0.22410   0.91869   0.68927   0.00000  Uiso   1.00
H1879  H     0.29756   0.90235   0.66887   0.00000  Uiso   1.00
H1880  H     0.32425   0.92174   0.91802   0.00000  Uiso   1.00
H1881  H     0.27581   0.95310   0.85304   0.00000  Uiso   1.00
H1882  H     0.29652   0.83096   0.91427   0.00000  Uiso   1.00
H1883  H     0.03683   0.83563   0.75239   0.00000  Uiso   1.00
H1884  H     0.27603   0.71251   0.85384   0.00000  Uiso   1.00
H1885  H     0.32446   0.74197   0.91976   0.00000  Uiso   1.00
H1886  H     0.29739   0.76087   0.67054   0.00000  Uiso   1.00
H1887  H     0.22347   0.74643   0.68979   0.00000  Uiso   1.00
H1888  H     0.17528   0.71424   0.95807   0.00000  Uiso   1.00
N1889  N     0.16667   0.95240   0.83333   0.00000  Uiso   1.00
N1890  N     0.16667   0.71427   0.83333   0.00000  Uiso   1.00
O1891  O     0.10559   0.87154   0.83333   0.00000  Uiso   1.00
O1892  O     0.22774   0.79513   0.83334   0.00000  Uiso   1.00
O1893  O     0.22774   0.87154   0.83334   0.00000  Uiso   1.00
O1894  O     0.10559   0.79513   0.83333   0.00000  Uiso   1.00
O1895  O     0.16667   0.87155   0.76178   0.00000  Uiso   1.00
O1896  O     0.16666   0.79512   0.90489   0.00000  Uiso   1.00
O1897  O     0.16666   0.87155   0.90489   0.00000  Uiso   1.00
O1898  O     0.16667   0.79512   0.76178   0.00000  Uiso   1.00
Zn1899 Zn    0.16667   0.88437   0.83333   0.00000  Uiso   1.00
Zn1900 Zn    0.16667   0.78229   0.83333   0.00000  Uiso   1.00
C1901  C     0.42022   0.83336   0.83328   0.00000  Uiso   1.00
C1902  C     0.35392   0.83474   0.78760   0.00000  Uiso   1.00
C1903  C     0.62394   0.83325   0.83331   0.00000  Uiso   1.00
C1904  C     0.37606   0.83340   0.83337   0.00000  Uiso   1.00
C1905  C     0.52693   0.69047   0.86437   0.00000  Uiso   1.00
C1906  C     0.47307   0.97620   0.80228   0.00000  Uiso   1.00
C1907  C     0.47306   0.69062   0.80230   0.00000  Uiso   1.00
C1908  C     0.52695   0.97605   0.86436   0.00000  Uiso   1.00
C1909  C     0.55486   0.71382   0.90072   0.00000  Uiso   1.00
C1910  C     0.59743   0.72064   0.89038   0.00000  Uiso   1.00
C1911  C     0.62495   0.73701   0.92773   0.00000  Uiso   1.00
C1912  C     0.57978   0.83330   0.83340   0.00000  Uiso   1.00
C1913  C     0.60997   0.74722   0.97520   0.00000  Uiso   1.00
C1914  C     0.56799   0.73935   0.98604   0.00000  Uiso   1.00
C1915  C     0.54075   0.72182   0.94921   0.00000  Uiso   1.00
C1916  C     0.44516   0.95285   0.76592   0.00000  Uiso   1.00
C1917  C     0.45930   0.94477   0.71746   0.00000  Uiso   1.00
C1918  C     0.43209   0.92712   0.68064   0.00000  Uiso   1.00
C1919  C     0.39010   0.91922   0.69145   0.00000  Uiso   1.00
C1920  C     0.37509   0.92954   0.73888   0.00000  Uiso   1.00
C1921  C     0.40258   0.94603   0.77622   0.00000  Uiso   1.00
C1922  C     0.44500   0.71420   0.76613   0.00000  Uiso   1.00
C1923  C     0.49994   0.83334   0.73972   0.00000  Uiso   1.00
C1924  C     0.40261   0.72172   0.77697   0.00000  Uiso   1.00
C1925  C     0.37510   0.73921   0.74015   0.00000  Uiso   1.00
C1926  C     0.38986   0.74962   0.69264   0.00000  Uiso   1.00
C1927  C     0.43158   0.74076   0.68119   0.00000  Uiso   1.00
C1928  C     0.45882   0.72225   0.71754   0.00000  Uiso   1.00
C1929  C     0.55502   0.95248   0.90052   0.00000  Uiso   1.00
C1930  C     0.54120   0.94443   0.94912   0.00000  Uiso   1.00
C1931  C     0.56844   0.92591   0.98546   0.00000  Uiso   1.00
C1932  C     0.61016   0.91702   0.97399   0.00000  Uiso   1.00
C1933  C     0.62491   0.92744   0.92647   0.00000  Uiso   1.00
C1934  C     0.50005   0.83332   0.92695   0.00000  Uiso   1.00
C1935  C     0.59740   0.94494   0.88966   0.00000  Uiso   1.00
C1936  C     0.49998   0.83335   0.68851   0.00000  Uiso   1.00
C1937  C     0.50000   0.83332   0.97816   0.00000  Uiso   1.00
C1938  C     0.35606   0.83192   0.87918   0.00000  Uiso   1.00
C1939  C     0.64395   0.83473   0.78750   0.00000  Uiso   1.00
C1940  C     0.64609   0.83189   0.87908   0.00000  Uiso   1.00
H1941  H     0.37386   0.83088   0.91445   0.00000  Uiso   1.00
H1942  H     0.49146   0.95233   0.70862   0.00000  Uiso   1.00
H1943  H     0.44331   0.91990   0.97691   0.00000  Uiso   1.00
H1944  H     0.36937   0.90541   0.99612   0.00000  Uiso   1.00
H1945  H     0.34223   0.92456   0.74681   0.00000  Uiso   1.00
H1946  H     0.39063   0.95421   0.81274   0.00000  Uiso   1.00
H1947  H     0.39086   0.71355   0.81359   0.00000  Uiso   1.00
H1948  H     0.34242   0.74489   0.74858   0.00000  Uiso   1.00
H1949  H     0.36911   0.76425   0.99774   0.00000  Uiso   1.00
H1950  H     0.44260   0.74799   0.97738   0.00000  Uiso   1.00
H1951  H     0.49078   0.71414   0.70826   0.00000  Uiso   1.00
H1952  H     0.62615   0.83578   0.75223   0.00000  Uiso   1.00
H1953  H     0.50925   0.95257   0.95840   0.00000  Uiso   1.00
H1954  H     0.55743   0.91869   0.68927   0.00000  Uiso   1.00
H1955  H     0.63089   0.90235   0.66887   0.00000  Uiso   1.00
H1956  H     0.65759   0.92174   0.91802   0.00000  Uiso   1.00
H1957  H     0.60914   0.95310   0.85304   0.00000  Uiso   1.00
H1958  H     0.62985   0.83096   0.91427   0.00000  Uiso   1.00
H1959  H     0.37016   0.83563   0.75239   0.00000  Uiso   1.00
H1960  H     0.60936   0.71251   0.85384   0.00000  Uiso   1.00
H1961  H     0.65780   0.74197   0.91976   0.00000  Uiso   1.00
H1962  H     0.63072   0.76087   0.67054   0.00000  Uiso   1.00
H1963  H     0.55681   0.74643   0.68979   0.00000  Uiso   1.00
H1964  H     0.50861   0.71424   0.95807   0.00000  Uiso   1.00
N1965  N     0.50000   0.95240   0.83333   0.00000  Uiso   1.00
N1966  N     0.50000   0.71427   0.83333   0.00000  Uiso   1.00
O1967  O     0.43892   0.87154   0.83333   0.00000  Uiso   1.00
O1968  O     0.56108   0.79513   0.83334   0.00000  Uiso   1.00
O1969  O     0.56108   0.87154   0.83334   0.00000  Uiso   1.00
O1970  O     0.43892   0.79513   0.83333   0.00000  Uiso   1.00
O1971  O     0.50000   0.87155   0.76178   0.00000  Uiso   1.00
O1972  O     0.50000   0.79512   0.90489   0.00000  Uiso   1.00
O1973  O     0.50000   0.87155   0.90489   0.00000  Uiso   1.00
O1974  O     0.50000   0.79512   0.76178   0.00000  Uiso   1.00
Zn1975 Zn    0.50000   0.88437   0.83333   0.00000  Uiso   1.00
Zn1976 Zn    0.50000   0.78229   0.83333   0.00000  Uiso   1.00
C1977  C     0.75355   0.83336   0.83328   0.00000  Uiso   1.00
C1978  C     0.68725   0.83474   0.78760   0.00000  Uiso   1.00
C1979  C     0.95728   0.83325   0.83331   0.00000  Uiso   1.00
C1980  C     0.70939   0.83340   0.83337   0.00000  Uiso   1.00
C1981  C     0.86027   0.69047   0.86437   0.00000  Uiso   1.00
C1982  C     0.80640   0.97620   0.80228   0.00000  Uiso   1.00
C1983  C     0.80639   0.69062   0.80230   0.00000  Uiso   1.00
C1984  C     0.86028   0.97605   0.86436   0.00000  Uiso   1.00
C1985  C     0.88820   0.71382   0.90072   0.00000  Uiso   1.00
C1986  C     0.93076   0.72064   0.89038   0.00000  Uiso   1.00
C1987  C     0.95828   0.73701   0.92773   0.00000  Uiso   1.00
C1988  C     0.91312   0.83330   0.83340   0.00000  Uiso   1.00
C1989  C     0.94330   0.74722   0.97520   0.00000  Uiso   1.00
C1990  C     0.90132   0.73935   0.98604   0.00000  Uiso   1.00
C1991  C     0.87409   0.72182   0.94921   0.00000  Uiso   1.00
C1992  C     0.77849   0.95285   0.76592   0.00000  Uiso   1.00
C1993  C     0.79264   0.94477   0.71746   0.00000  Uiso   1.00
C1994  C     0.76543   0.92712   0.68064   0.00000  Uiso   1.00
C1995  C     0.72344   0.91922   0.69145   0.00000  Uiso   1.00
C1996  C     0.70843   0.92954   0.73888   0.00000  Uiso   1.00
C1997  C     0.73592   0.94603   0.77622   0.00000  Uiso   1.00
C1998  C     0.77833   0.71420   0.76613   0.00000  Uiso   1.00
C1999  C     0.83327   0.83334   0.73972   0.00000  Uiso   1.00
C2000  C     0.73594   0.72172   0.77697   0.00000  Uiso   1.00
C2001  C     0.70843   0.73921   0.74015   0.00000  Uiso   1.00
C2002  C     0.72319   0.74962   0.69264   0.00000  Uiso   1.00
C2003  C     0.76491   0.74076   0.68119   0.00000  Uiso   1.00
C2004  C     0.79216   0.72225   0.71754   0.00000  Uiso   1.00
C2005  C     0.88835   0.95248   0.90052   0.00000  Uiso   1.00
C2006  C     0.87454   0.94443   0.94912   0.00000  Uiso   1.00
C2007  C     0.90178   0.92591   0.98546   0.00000  Uiso   1.00
C2008  C     0.94349   0.91702   0.97399   0.00000  Uiso   1.00
C2009  C     0.95825   0.92744   0.92647   0.00000  Uiso   1.00
C2010  C     0.83339   0.83332   0.92695   0.00000  Uiso   1.00
C2011  C     0.93073   0.94494   0.88966   0.00000  Uiso   1.00
C2012  C     0.83331   0.83335   0.68851   0.00000  Uiso   1.00
C2013  C     0.83334   0.83332   0.97816   0.00000  Uiso   1.00
C2014  C     0.68939   0.83192   0.87918   0.00000  Uiso   1.00
C2015  C     0.97728   0.83473   0.78750   0.00000  Uiso   1.00
C2016  C     0.97942   0.83189   0.87908   0.00000  Uiso   1.00
H2017  H     0.70719   0.83088   0.91445   0.00000  Uiso   1.00
H2018  H     0.82479   0.95233   0.70862   0.00000  Uiso   1.00
H2019  H     0.77665   0.91990   0.97691   0.00000  Uiso   1.00
H2020  H     0.70270   0.90541   0.99612   0.00000  Uiso   1.00
H2021  H     0.67556   0.92456   0.74681   0.00000  Uiso   1.00
H2022  H     0.72396   0.95421   0.81274   0.00000  Uiso   1.00
H2023  H     0.72420   0.71355   0.81359   0.00000  Uiso   1.00
H2024  H     0.67575   0.74489   0.74858   0.00000  Uiso   1.00
H2025  H     0.70244   0.76425   0.99774   0.00000  Uiso   1.00
H2026  H     0.77593   0.74799   0.97738   0.00000  Uiso   1.00
H2027  H     0.82411   0.71414   0.70826   0.00000  Uiso   1.00
H2028  H     0.95948   0.83578   0.75223   0.00000  Uiso   1.00
H2029  H     0.84259   0.95257   0.95840   0.00000  Uiso   1.00
H2030  H     0.89076   0.91869   0.68927   0.00000  Uiso   1.00
H2031  H     0.96422   0.90235   0.66887   0.00000  Uiso   1.00
H2032  H     0.99092   0.92174   0.91802   0.00000  Uiso   1.00
H2033  H     0.94248   0.95310   0.85304   0.00000  Uiso   1.00
H2034  H     0.96318   0.83096   0.91427   0.00000  Uiso   1.00
H2035  H     0.70349   0.83563   0.75239   0.00000  Uiso   1.00
H2036  H     0.94269   0.71251   0.85384   0.00000  Uiso   1.00
H2037  H     0.99113   0.74197   0.91976   0.00000  Uiso   1.00
H2038  H     0.96405   0.76087   0.67054   0.00000  Uiso   1.00
H2039  H     0.89014   0.74643   0.68979   0.00000  Uiso   1.00
H2040  H     0.84195   0.71424   0.95807   0.00000  Uiso   1.00
N2041  N     0.83333   0.95240   0.83333   0.00000  Uiso   1.00
N2042  N     0.83333   0.71427   0.83333   0.00000  Uiso   1.00
O2043  O     0.77226   0.87154   0.83333   0.00000  Uiso   1.00
O2044  O     0.89441   0.79513   0.83334   0.00000  Uiso   1.00
O2045  O     0.89441   0.87154   0.83334   0.00000  Uiso   1.00
O2046  O     0.77226   0.79513   0.83333   0.00000  Uiso   1.00
O2047  O     0.83334   0.87155   0.76178   0.00000  Uiso   1.00
O2048  O     0.83333   0.79512   0.90489   0.00000  Uiso   1.00
O2049  O     0.83333   0.87155   0.90489   0.00000  Uiso   1.00
O2050  O     0.83334   0.79512   0.76178   0.00000  Uiso   1.00
Zn2051 Zn    0.83333   0.88437   0.83333   0.00000  Uiso   1.00
Zn2052 Zn    0.83333   0.78229   0.83333   0.00000  Uiso   1.00
loop_
_geom_bond_atom_site_label_1
_geom_bond_atom_site_label_2
_geom_bond_distance
_geom_bond_site_symmetry_2
_ccdc_geom_bond_type
C1     O67     1.291   .     A
C1     O70     1.291   .     A
C1     C4      1.404   .     S
C2     H59     1.084   .     S
C2     C4      1.393   .     A
C2     C191    1.377   1_455 S
C3     C12     1.404   .     S
C3     C39     1.393   .     A
C3     C40     1.393   .     A
C4     C38     1.393   .     A
C5     C9      1.475   .     S
C5     N66     1.374   .     A
C5     C464    1.433   1_545 S
C6     N65     1.374   .     A
C6     C16     1.475   .     S
C6     C235    1.433   .     S
C7     C22     1.476   .     S
C7     N66     1.374   .     A
C7     C462    1.433   1_545 S
C8     C29     1.476   .     S
C8     N65     1.374   .     A
C8     C233    1.433   .     S
C9     C10     1.404   .     A
C9     C15     1.401   .     A
C10    H60     1.083   .     S
C10    C11     1.398   .     A
C11    H61     1.082   .     S
C11    C13     1.399   .     A
C12    O69     1.291   .     A
C12    O68     1.291   .     A
C13    C14     1.394   .     A
C13    H746    1.078   .     S
C14    C15     1.396   .     A
C14    H747    1.081   .     S
C15    H64     1.080   .     S
C16    C21     1.404   .     A
C16    C17     1.401   .     A
C17    H42     1.080   .     S
C17    C18     1.397   .     A
C18    C19     1.394   .     A
C18    H1411   1.082   1_554 S
C19    C20     1.399   .     A
C19    H1412   1.079   1_554 S
C20    H45     1.082   .     S
C20    C21     1.399   .     A
C21    H46     1.083   .     S
C22    C28     1.401   .     A
C22    C24     1.404   .     A
C23    O71     1.289   .     A
C23    O74     1.289   .     A
C23    C36     1.366   .     S
C24    C25     1.399   .     A
C24    H47     1.083   .     S
C25    C26     1.399   .     A
C25    H48     1.082   .     S
C26    C27     1.394   .     A
C26    H1417   1.080   1_554 S
C27    C28     1.397   .     A
C27    H1418   1.082   1_554 S
C28    H51     1.079   .     S
C29    C30     1.401   .     A
C29    C35     1.404   .     A
C30    C31     1.397   .     A
C30    H53     1.080   .     S
C31    C32     1.394   .     A
C31    H738    1.082   .     S
C32    C33     1.399   .     A
C32    H739    1.080   .     S
C33    H56     1.082   .     S
C33    C35     1.399   .     A
C34    C37     1.366   .     S
C34    O72     1.289   .     A
C34    O73     1.289   .     A
C35    H57     1.083   .     S
C36    C1405   1.165   1_554 S
C37    C720    1.165   .     S
C38    H41     1.085   .     S
C38    C192    1.377   1_455 S
C39    H52     1.085   .     S
C39    C78     1.377   .     S
C40    H58     1.084   .     S
C40    C114    1.377   .     S
H43    C702    1.082   .     S
H44    C703    1.079   .     S
H49    C710    1.080   .     S
H50    C711    1.082   .     S
H54    C1399   1.082   1_554 S
H55    C1400   1.080   1_554 S
H62    C1381   1.078   1_554 S
H63    C1382   1.081   1_554 S
N65    Zn75    2.041   .     S
N66    Zn76    2.041   .     S
O67    Zn75    1.980   .     S
O68    Zn76    1.980   .     S
O69    Zn75    1.979   .     S
O70    Zn76    1.979   .     S
O71    Zn75    1.947   .     S
O72    Zn76    1.947   .     S
O73    Zn75    1.947   .     S
O74    Zn76    1.947   .     S
C77    O143    1.291   .     A
C77    O146    1.291   .     A
C77    C80     1.404   .     S
C78    H135    1.084   .     S
C78    C80     1.393   .     A
C79    C88     1.404   .     S
C79    C115    1.393   .     A
C79    C116    1.393   .     A
C80    C114    1.393   .     A
C81    C85     1.475   .     S
C81    N142    1.374   .     A
C81    C540    1.433   1_545 S
C82    N141    1.374   .     A
C82    C92     1.475   .     S
C82    C311    1.433   .     S
C83    C98     1.476   .     S
C83    N142    1.374   .     A
C83    C538    1.433   1_545 S
C84    C105    1.476   .     S
C84    N141    1.374   .     A
C84    C309    1.433   .     S
C85    C86     1.404   .     A
C85    C91     1.401   .     A
C86    H136    1.083   .     S
C86    C87     1.398   .     A
C87    H137    1.082   .     S
C87    C89     1.399   .     A
C88    O145    1.291   .     A
C88    O144    1.291   .     A
C89    C90     1.394   .     A
C89    H822    1.078   .     S
C90    C91     1.396   .     A
C90    H823    1.081   .     S
C91    H140    1.080   .     S
C92    C97     1.404   .     A
C92    C93     1.401   .     A
C93    H118    1.080   .     S
C93    C94     1.397   .     A
C94    C95     1.394   .     A
C94    H1487   1.082   1_554 S
C95    C96     1.399   .     A
C95    H1488   1.079   1_554 S
C96    H121    1.082   .     S
C96    C97     1.399   .     A
C97    H122    1.083   .     S
C98    C104    1.401   .     A
C98    C100    1.404   .     A
C99    O147    1.289   .     A
C99    O150    1.289   .     A
C99    C112    1.366   .     S
C100   C101    1.399   .     A
C100   H123    1.083   .     S
C101   C102    1.399   .     A
C101   H124    1.082   .     S
C102   C103    1.394   .     A
C102   H1493   1.080   1_554 S
C103   C104    1.397   .     A
C103   H1494   1.082   1_554 S
C104   H127    1.079   .     S
C105   C106    1.401   .     A
C105   C111    1.404   .     A
C106   C107    1.397   .     A
C106   H129    1.080   .     S
C107   C108    1.394   .     A
C107   H814    1.082   .     S
C108   C109    1.399   .     A
C108   H815    1.080   .     S
C109   H132    1.082   .     S
C109   C111    1.399   .     A
C110   C113    1.366   .     S
C110   O148    1.289   .     A
C110   O149    1.289   .     A
C111   H133    1.083   .     S
C112   C1481   1.165   1_554 S
C113   C796    1.165   .     S
C114   H117    1.085   .     S
C115   H128    1.085   .     S
C115   C154    1.377   .     S
C116   H134    1.084   .     S
C116   C190    1.377   .     S
H119   C778    1.082   .     S
H120   C779    1.079   .     S
H125   C786    1.080   .     S
H126   C787    1.082   .     S
H130   C1475   1.082   1_554 S
H131   C1476   1.080   1_554 S
H138   C1457   1.078   1_554 S
H139   C1458   1.081   1_554 S
N141   Zn151   2.041   .     S
N142   Zn152   2.041   .     S
O143   Zn151   1.980   .     S
O144   Zn152   1.980   .     S
O145   Zn151   1.979   .     S
O146   Zn152   1.979   .     S
O147   Zn151   1.947   .     S
O148   Zn152   1.947   .     S
O149   Zn151   1.947   .     S
O150   Zn152   1.947   .     S
C153   O219    1.291   .     A
C153   O222    1.291   .     A
C153   C156    1.404   .     S
C154   H211    1.084   .     S
C154   C156    1.393   .     A
C155   C164    1.404   .     S
C155   C191    1.393   .     A
C155   C192    1.393   .     A
C156   C190    1.393   .     A
C157   C161    1.475   .     S
C157   N218    1.374   .     A
C157   C616    1.433   1_545 S
C158   N217    1.374   .     A
C158   C168    1.475   .     S
C158   C387    1.433   .     S
C159   C174    1.476   .     S
C159   N218    1.374   .     A
C159   C614    1.433   1_545 S
C160   C181    1.476   .     S
C160   N217    1.374   .     A
C160   C385    1.433   .     S
C161   C162    1.404   .     A
C161   C167    1.401   .     A
C162   H212    1.083   .     S
C162   C163    1.398   .     A
C163   H213    1.082   .     S
C163   C165    1.399   .     A
C164   O221    1.291   .     A
C164   O220    1.291   .     A
C165   C166    1.394   .     A
C165   H898    1.078   .     S
C166   C167    1.396   .     A
C166   H899    1.081   .     S
C167   H216    1.080   .     S
C168   C173    1.404   .     A
C168   C169    1.401   .     A
C169   H194    1.080   .     S
C169   C170    1.397   .     A
C170   C171    1.394   .     A
C170   H1563   1.082   1_554 S
C171   C172    1.399   .     A
C171   H1564   1.079   1_554 S
C172   H197    1.082   .     S
C172   C173    1.399   .     A
C173   H198    1.083   .     S
C174   C180    1.401   .     A
C174   C176    1.404   .     A
C175   O223    1.289   .     A
C175   O226    1.289   .     A
C175   C188    1.366   .     S
C176   C177    1.399   .     A
C176   H199    1.083   .     S
C177   C178    1.399   .     A
C177   H200    1.082   .     S
C178   C179    1.394   .     A
C178   H1569   1.080   1_554 S
C179   C180    1.397   .     A
C179   H1570   1.082   1_554 S
C180   H203    1.079   .     S
C181   C182    1.401   .     A
C181   C187    1.404   .     A
C182   C183    1.397   .     A
C182   H205    1.080   .     S
C183   C184    1.394   .     A
C183   H890    1.082   .     S
C184   C185    1.399   .     A
C184   H891    1.080   .     S
C185   H208    1.082   .     S
C185   C187    1.399   .     A
C186   C189    1.366   .     S
C186   O224    1.289   .     A
C186   O225    1.289   .     A
C187   H209    1.083   .     S
C188   C1557   1.165   1_554 S
C189   C872    1.165   .     S
C190   H193    1.085   .     S
C191   H204    1.085   .     S
C191   C2      1.377   1_655 S
C192   H210    1.084   .     S
C192   C38     1.377   1_655 S
H195   C854    1.082   .     S
H196   C855    1.079   .     S
H201   C862    1.080   .     S
H202   C863    1.082   .     S
H206   C1551   1.082   1_554 S
H207   C1552   1.080   1_554 S
H214   C1533   1.078   1_554 S
H215   C1534   1.081   1_554 S
N217   Zn227   2.041   .     S
N218   Zn228   2.041   .     S
O219   Zn227   1.980   .     S
O220   Zn228   1.980   .     S
O221   Zn227   1.979   .     S
O222   Zn228   1.979   .     S
O223   Zn227   1.947   .     S
O224   Zn228   1.947   .     S
O225   Zn227   1.947   .     S
O226   Zn228   1.947   .     S
C229   O295    1.291   .     A
C229   O298    1.291   .     A
C229   C232    1.404   .     S
C230   H287    1.084   .     S
C230   C232    1.393   .     A
C230   C419    1.377   1_455 S
C231   C240    1.404   .     S
C231   C267    1.393   .     A
C231   C268    1.393   .     A
C232   C266    1.393   .     A
C233   C237    1.475   .     S
C233   N294    1.374   .     A
C234   N293    1.374   .     A
C234   C244    1.475   .     S
C234   C463    1.433   .     S
C235   C250    1.476   .     S
C235   N294    1.374   .     A
C236   C257    1.476   .     S
C236   N293    1.374   .     A
C236   C461    1.433   .     S
C237   C238    1.404   .     A
C237   C243    1.401   .     A
C238   H288    1.083   .     S
C238   C239    1.398   .     A
C239   H289    1.082   .     S
C239   C241    1.399   .     A
C240   O297    1.291   .     A
C240   O296    1.291   .     A
C241   C242    1.394   .     A
C241   H974    1.078   .     S
C242   C243    1.396   .     A
C242   H975    1.081   .     S
C243   H292    1.080   .     S
C244   C249    1.404   .     A
C244   C245    1.401   .     A
C245   H270    1.080   .     S
C245   C246    1.397   .     A
C246   C247    1.394   .     A
C246   H1639   1.082   1_554 S
C247   C248    1.399   .     A
C247   H1640   1.079   1_554 S
C248   H273    1.082   .     S
C248   C249    1.399   .     A
C249   H274    1.083   .     S
C250   C256    1.401   .     A
C250   C252    1.404   .     A
C251   O299    1.289   .     A
C251   O302    1.289   .     A
C251   C264    1.366   .     S
C252   C253    1.399   .     A
C252   H275    1.083   .     S
C253   C254    1.399   .     A
C253   H276    1.082   .     S
C254   C255    1.394   .     A
C254   H1645   1.080   1_554 S
C255   C256    1.397   .     A
C255   H1646   1.082   1_554 S
C256   H279    1.079   .     S
C257   C258    1.401   .     A
C257   C263    1.404   .     A
C258   C259    1.397   .     A
C258   H281    1.080   .     S
C259   C260    1.394   .     A
C259   H966    1.082   .     S
C260   C261    1.399   .     A
C260   H967    1.080   .     S
C261   H284    1.082   .     S
C261   C263    1.399   .     A
C262   C265    1.366   .     S
C262   O300    1.289   .     A
C262   O301    1.289   .     A
C263   H285    1.083   .     S
C264   C1633   1.165   1_554 S
C265   C948    1.165   .     S
C266   H269    1.085   .     S
C266   C420    1.377   1_455 S
C267   H280    1.085   .     S
C267   C306    1.377   .     S
C268   H286    1.084   .     S
C268   C342    1.377   .     S
H271   C930    1.082   .     S
H272   C931    1.079   .     S
H277   C938    1.080   .     S
H278   C939    1.082   .     S
H282   C1627   1.082   1_554 S
H283   C1628   1.080   1_554 S
H290   C1609   1.078   1_554 S
H291   C1610   1.081   1_554 S
N293   Zn303   2.041   .     S
N294   Zn304   2.041   .     S
O295   Zn303   1.980   .     S
O296   Zn304   1.980   .     S
O297   Zn303   1.979   .     S
O298   Zn304   1.979   .     S
O299   Zn303   1.947   .     S
O300   Zn304   1.947   .     S
O301   Zn303   1.947   .     S
O302   Zn304   1.947   .     S
C305   O371    1.291   .     A
C305   O374    1.291   .     A
C305   C308    1.404   .     S
C306   H363    1.084   .     S
C306   C308    1.393   .     A
C307   C316    1.404   .     S
C307   C343    1.393   .     A
C307   C344    1.393   .     A
C308   C342    1.393   .     A
C309   C313    1.475   .     S
C309   N370    1.374   .     A
C310   N369    1.374   .     A
C310   C320    1.475   .     S
C310   C539    1.433   .     S
C311   C326    1.476   .     S
C311   N370    1.374   .     A
C312   C333    1.476   .     S
C312   N369    1.374   .     A
C312   C537    1.433   .     S
C313   C314    1.404   .     A
C313   C319    1.401   .     A
C314   H364    1.083   .     S
C314   C315    1.398   .     A
C315   H365    1.082   .     S
C315   C317    1.399   .     A
C316   O373    1.291   .     A
C316   O372    1.291   .     A
C317   C318    1.394   .     A
C317   H1050   1.078   .     S
C318   C319    1.396   .     A
C318   H1051   1.081   .     S
C319   H368    1.080   .     S
C320   C325    1.404   .     A
C320   C321    1.401   .     A
C321   H346    1.080   .     S
C321   C322    1.397   .     A
C322   C323    1.394   .     A
C322   H1715   1.082   1_554 S
C323   C324    1.399   .     A
C323   H1716   1.079   1_554 S
C324   H349    1.082   .     S
C324   C325    1.399   .     A
C325   H350    1.083   .     S
C326   C332    1.401   .     A
C326   C328    1.404   .     A
C327   O375    1.289   .     A
C327   O378    1.289   .     A
C327   C340    1.366   .     S
C328   C329    1.399   .     A
C328   H351    1.083   .     S
C329   C330    1.399   .     A
C329   H352    1.082   .     S
C330   C331    1.394   .     A
C330   H1721   1.080   1_554 S
C331   C332    1.397   .     A
C331   H1722   1.082   1_554 S
C332   H355    1.079   .     S
C333   C334    1.401   .     A
C333   C339    1.404   .     A
C334   C335    1.397   .     A
C334   H357    1.080   .     S
C335   C336    1.394   .     A
C335   H1042   1.082   .     S
C336   C337    1.399   .     A
C336   H1043   1.080   .     S
C337   H360    1.082   .     S
C337   C339    1.399   .     A
C338   C341    1.366   .     S
C338   O376    1.289   .     A
C338   O377    1.289   .     A
C339   H361    1.083   .     S
C340   C1709   1.165   1_554 S
C341   C1024   1.165   .     S
C342   H345    1.085   .     S
C343   H356    1.085   .     S
C343   C382    1.377   .     S
C344   H362    1.084   .     S
C344   C418    1.377   .     S
H347   C1006   1.082   .     S
H348   C1007   1.079   .     S
H353   C1014   1.080   .     S
H354   C1015   1.082   .     S
H358   C1703   1.082   1_554 S
H359   C1704   1.080   1_554 S
H366   C1685   1.078   1_554 S
H367   C1686   1.081   1_554 S
N369   Zn379   2.041   .     S
N370   Zn380   2.041   .     S
O371   Zn379   1.980   .     S
O372   Zn380   1.980   .     S
O373   Zn379   1.979   .     S
O374   Zn380   1.979   .     S
O375   Zn379   1.947   .     S
O376   Zn380   1.947   .     S
O377   Zn379   1.947   .     S
O378   Zn380   1.947   .     S
C381   O447    1.291   .     A
C381   O450    1.291   .     A
C381   C384    1.404   .     S
C382   H439    1.084   .     S
C382   C384    1.393   .     A
C383   C392    1.404   .     S
C383   C419    1.393   .     A
C383   C420    1.393   .     A
C384   C418    1.393   .     A
C385   C389    1.475   .     S
C385   N446    1.374   .     A
C386   N445    1.374   .     A
C386   C396    1.475   .     S
C386   C615    1.433   .     S
C387   C402    1.476   .     S
C387   N446    1.374   .     A
C388   C409    1.476   .     S
C388   N445    1.374   .     A
C388   C613    1.433   .     S
C389   C390    1.404   .     A
C389   C395    1.401   .     A
C390   H440    1.083   .     S
C390   C391    1.398   .     A
C391   H441    1.082   .     S
C391   C393    1.399   .     A
C392   O449    1.291   .     A
C392   O448    1.291   .     A
C393   C394    1.394   .     A
C393   H1126   1.078   .     S
C394   C395    1.396   .     A
C394   H1127   1.081   .     S
C395   H444    1.080   .     S
C396   C401    1.404   .     A
C396   C397    1.401   .     A
C397   H422    1.080   .     S
C397   C398    1.397   .     A
C398   C399    1.394   .     A
C398   H1791   1.082   1_554 S
C399   C400    1.399   .     A
C399   H1792   1.079   1_554 S
C400   H425    1.082   .     S
C400   C401    1.399   .     A
C401   H426    1.083   .     S
C402   C408    1.401   .     A
C402   C404    1.404   .     A
C403   O451    1.289   .     A
C403   O454    1.289   .     A
C403   C416    1.366   .     S
C404   C405    1.399   .     A
C404   H427    1.083   .     S
C405   C406    1.399   .     A
C405   H428    1.082   .     S
C406   C407    1.394   .     A
C406   H1797   1.080   1_554 S
C407   C408    1.397   .     A
C407   H1798   1.082   1_554 S
C408   H431    1.079   .     S
C409   C410    1.401   .     A
C409   C415    1.404   .     A
C410   C411    1.397   .     A
C410   H433    1.080   .     S
C411   C412    1.394   .     A
C411   H1118   1.082   .     S
C412   C413    1.399   .     A
C412   H1119   1.080   .     S
C413   H436    1.082   .     S
C413   C415    1.399   .     A
C414   C417    1.366   .     S
C414   O452    1.289   .     A
C414   O453    1.289   .     A
C415   H437    1.083   .     S
C416   C1785   1.165   1_554 S
C417   C1100   1.165   .     S
C418   H421    1.085   .     S
C419   H432    1.085   .     S
C419   C230    1.377   1_655 S
C420   H438    1.084   .     S
C420   C266    1.377   1_655 S
H423   C1082   1.082   .     S
H424   C1083   1.079   .     S
H429   C1090   1.080   .     S
H430   C1091   1.082   .     S
H434   C1779   1.082   1_554 S
H435   C1780   1.080   1_554 S
H442   C1761   1.078   1_554 S
H443   C1762   1.081   1_554 S
N445   Zn455   2.041   .     S
N446   Zn456   2.041   .     S
O447   Zn455   1.980   .     S
O448   Zn456   1.980   .     S
O449   Zn455   1.979   .     S
O450   Zn456   1.979   .     S
O451   Zn455   1.947   .     S
O452   Zn456   1.947   .     S
O453   Zn455   1.947   .     S
O454   Zn456   1.947   .     S
C457   O523    1.291   .     A
C457   O526    1.291   .     A
C457   C460    1.404   .     S
C458   H515    1.084   .     S
C458   C460    1.393   .     A
C458   C647    1.377   1_455 S
C459   C468    1.404   .     S
C459   C495    1.393   .     A
C459   C496    1.393   .     A
C460   C494    1.393   .     A
C461   C465    1.475   .     S
C461   N522    1.374   .     A
C462   N521    1.374   .     A
C462   C472    1.475   .     S
C462   C7      1.433   1_565 S
C463   C478    1.476   .     S
C463   N522    1.374   .     A
C464   C485    1.476   .     S
C464   N521    1.374   .     A
C464   C5      1.433   1_565 S
C465   C466    1.404   .     A
C465   C471    1.401   .     A
C466   H516    1.083   .     S
C466   C467    1.398   .     A
C467   H517    1.082   .     S
C467   C469    1.399   .     A
C468   O525    1.291   .     A
C468   O524    1.291   .     A
C469   C470    1.394   .     A
C469   H1202   1.078   .     S
C470   C471    1.396   .     A
C470   H1203   1.081   .     S
C471   H520    1.080   .     S
C472   C477    1.404   .     A
C472   C473    1.401   .     A
C473   H498    1.080   .     S
C473   C474    1.397   .     A
C474   C475    1.394   .     A
C474   H1867   1.082   1_554 S
C475   C476    1.399   .     A
C475   H1868   1.079   1_554 S
C476   H501    1.082   .     S
C476   C477    1.399   .     A
C477   H502    1.083   .     S
C478   C484    1.401   .     A
C478   C480    1.404   .     A
C479   O527    1.289   .     A
C479   O530    1.289   .     A
C479   C492    1.366   .     S
C480   C481    1.399   .     A
C480   H503    1.083   .     S
C481   C482    1.399   .     A
C481   H504    1.082   .     S
C482   C483    1.394   .     A
C482   H1873   1.080   1_554 S
C483   C484    1.397   .     A
C483   H1874   1.082   1_554 S
C484   H507    1.079   .     S
C485   C486    1.401   .     A
C485   C491    1.404   .     A
C486   C487    1.397   .     A
C486   H509    1.080   .     S
C487   C488    1.394   .     A
C487   H1194   1.082   .     S
C488   C489    1.399   .     A
C488   H1195   1.080   .     S
C489   H512    1.082   .     S
C489   C491    1.399   .     A
C490   C493    1.366   .     S
C490   O528    1.289   .     A
C490   O529    1.289   .     A
C491   H513    1.083   .     S
C492   C1861   1.165   1_554 S
C493   C1176   1.165   .     S
C494   H497    1.085   .     S
C494   C648    1.377   1_455 S
C495   H508    1.085   .     S
C495   C534    1.377   .     S
C496   H514    1.084   .     S
C496   C570    1.377   .     S
H499   C1158   1.082   .     S
H500   C1159   1.079   .     S
H505   C1166   1.080   .     S
H506   C1167   1.082   .     S
H510   C1855   1.082   1_554 S
H511   C1856   1.080   1_554 S
H518   C1837   1.078   1_554 S
H519   C1838   1.081   1_554 S
N521   Zn531   2.041   .     S
N522   Zn532   2.041   .     S
O523   Zn531   1.980   .     S
O524   Zn532   1.980   .     S
O525   Zn531   1.979   .     S
O526   Zn532   1.979   .     S
O527   Zn531   1.947   .     S
O528   Zn532   1.947   .     S
O529   Zn531   1.947   .     S
O530   Zn532   1.947   .     S
C533   O599    1.291   .     A
C533   O602    1.291   .     A
C533   C536    1.404   .     S
C534   H591    1.084   .     S
C534   C536    1.393   .     A
C535   C544    1.404   .     S
C535   C571    1.393   .     A
C535   C572    1.393   .     A
C536   C570    1.393   .     A
C537   C541    1.475   .     S
C537   N598    1.374   .     A
C538   N597    1.374   .     A
C538   C548    1.475   .     S
C538   C83     1.433   1_565 S
C539   C554    1.476   .     S
C539   N598    1.374   .     A
C540   C561    1.476   .     S
C540   N597    1.374   .     A
C540   C81     1.433   1_565 S
C541   C542    1.404   .     A
C541   C547    1.401   .     A
C542   H592    1.083   .     S
C542   C543    1.398   .     A
C543   H593    1.082   .     S
C543   C545    1.399   .     A
C544   O601    1.291   .     A
C544   O600    1.291   .     A
C545   C546    1.394   .     A
C545   H1278   1.078   .     S
C546   C547    1.396   .     A
C546   H1279   1.081   .     S
C547   H596    1.080   .     S
C548   C553    1.404   .     A
C548   C549    1.401   .     A
C549   H574    1.080   .     S
C549   C550    1.397   .     A
C550   C551    1.394   .     A
C550   H1943   1.082   1_554 S
C551   C552    1.399   .     A
C551   H1944   1.079   1_554 S
C552   H577    1.082   .     S
C552   C553    1.399   .     A
C553   H578    1.083   .     S
C554   C560    1.401   .     A
C554   C556    1.404   .     A
C555   O603    1.289   .     A
C555   O606    1.289   .     A
C555   C568    1.366   .     S
C556   C557    1.399   .     A
C556   H579    1.083   .     S
C557   C558    1.399   .     A
C557   H580    1.082   .     S
C558   C559    1.394   .     A
C558   H1949   1.080   1_554 S
C559   C560    1.397   .     A
C559   H1950   1.082   1_554 S
C560   H583    1.079   .     S
C561   C562    1.401   .     A
C561   C567    1.404   .     A
C562   C563    1.397   .     A
C562   H585    1.080   .     S
C563   C564    1.394   .     A
C563   H1270   1.082   .     S
C564   C565    1.399   .     A
C564   H1271   1.080   .     S
C565   H588    1.082   .     S
C565   C567    1.399   .     A
C566   C569    1.366   .     S
C566   O604    1.289   .     A
C566   O605    1.289   .     A
C567   H589    1.083   .     S
C568   C1937   1.165   1_554 S
C569   C1252   1.165   .     S
C570   H573    1.085   .     S
C571   H584    1.085   .     S
C571   C610    1.377   .     S
C572   H590    1.084   .     S
C572   C646    1.377   .     S
H575   C1234   1.082   .     S
H576   C1235   1.079   .     S
H581   C1242   1.080   .     S
H582   C1243   1.082   .     S
H586   C1931   1.082   1_554 S
H587   C1932   1.080   1_554 S
H594   C1913   1.078   1_554 S
H595   C1914   1.081   1_554 S
N597   Zn607   2.041   .     S
N598   Zn608   2.041   .     S
O599   Zn607   1.980   .     S
O600   Zn608   1.980   .     S
O601   Zn607   1.979   .     S
O602   Zn608   1.979   .     S
O603   Zn607   1.947   .     S
O604   Zn608   1.947   .     S
O605   Zn607   1.947   .     S
O606   Zn608   1.947   .     S
C609   O675    1.291   .     A
C609   O678    1.291   .     A
C609   C612    1.404   .     S
C610   H667    1.084   .     S
C610   C612    1.393   .     A
C611   C620    1.404   .     S
C611   C647    1.393   .     A
C611   C648    1.393   .     A
C612   C646    1.393   .     A
C613   C617    1.475   .     S
C613   N674    1.374   .     A
C614   N673    1.374   .     A
C614   C624    1.475   .     S
C614   C159    1.433   1_565 S
C615   C630    1.476   .     S
C615   N674    1.374   .     A
C616   C637    1.476   .     S
C616   N673    1.374   .     A
C616   C157    1.433   1_565 S
C617   C618    1.404   .     A
C617   C623    1.401   .     A
C618   H668    1.083   .     S
C618   C619    1.398   .     A
C619   H669    1.082   .     S
C619   C621    1.399   .     A
C620   O677    1.291   .     A
C620   O676    1.291   .     A
C621   C622    1.394   .     A
C621   H1354   1.078   .     S
C622   C623    1.396   .     A
C622   H1355   1.081   .     S
C623   H672    1.080   .     S
C624   C629    1.404   .     A
C624   C625    1.401   .     A
C625   H650    1.080   .     S
C625   C626    1.397   .     A
C626   C627    1.394   .     A
C626   H2019   1.082   1_554 S
C627   C628    1.399   .     A
C627   H2020   1.079   1_554 S
C628   H653    1.082   .     S
C628   C629    1.399   .     A
C629   H654    1.083   .     S
C630   C636    1.401   .     A
C630   C632    1.404   .     A
C631   O679    1.289   .     A
C631   O682    1.289   .     A
C631   C644    1.366   .     S
C632   C633    1.399   .     A
C632   H655    1.083   .     S
C633   C634    1.399   .     A
C633   H656    1.082   .     S
C634   C635    1.394   .     A
C634   H2025   1.080   1_554 S
C635   C636    1.397   .     A
C635   H2026   1.082   1_554 S
C636   H659    1.079   .     S
C637   C638    1.401   .     A
C637   C643    1.404   .     A
C638   C639    1.397   .     A
C638   H661    1.080   .     S
C639   C640    1.394   .     A
C639   H1346   1.082   .     S
C640   C641    1.399   .     A
C640   H1347   1.080   .     S
C641   H664    1.082   .     S
C641   C643    1.399   .     A
C642   C645    1.366   .     S
C642   O680    1.289   .     A
C642   O681    1.289   .     A
C643   H665    1.083   .     S
C644   C2013   1.165   1_554 S
C645   C1328   1.165   .     S
C646   H649    1.085   .     S
C647   H660    1.085   .     S
C647   C458    1.377   1_655 S
C648   H666    1.084   .     S
C648   C494    1.377   1_655 S
H651   C1310   1.082   .     S
H652   C1311   1.079   .     S
H657   C1318   1.080   .     S
H658   C1319   1.082   .     S
H662   C2007   1.082   1_554 S
H663   C2008   1.080   1_554 S
H670   C1989   1.078   1_554 S
H671   C1990   1.081   1_554 S
N673   Zn683   2.041   .     S
N674   Zn684   2.041   .     S
O675   Zn683   1.980   .     S
O676   Zn684   1.980   .     S
O677   Zn683   1.979   .     S
O678   Zn684   1.979   .     S
O679   Zn683   1.947   .     S
O680   Zn684   1.947   .     S
O681   Zn683   1.947   .     S
O682   Zn684   1.947   .     S
C685   O751    1.291   .     A
C685   O754    1.291   .     A
C685   C688    1.404   .     S
C686   H743    1.084   .     S
C686   C688    1.393   .     A
C686   C875    1.377   1_455 S
C687   C696    1.404   .     S
C687   C723    1.393   .     A
C687   C724    1.393   .     A
C688   C722    1.393   .     A
C689   C693    1.475   .     S
C689   N750    1.374   .     A
C689   C1148   1.433   1_545 S
C690   N749    1.374   .     A
C690   C700    1.475   .     S
C690   C919    1.433   .     S
C691   C706    1.476   .     S
C691   N750    1.374   .     A
C691   C1146   1.433   1_545 S
C692   C713    1.476   .     S
C692   N749    1.374   .     A
C692   C917    1.433   .     S
C693   C694    1.404   .     A
C693   C699    1.401   .     A
C694   H744    1.083   .     S
C694   C695    1.398   .     A
C695   H745    1.082   .     S
C695   C697    1.399   .     A
C696   O753    1.291   .     A
C696   O752    1.291   .     A
C697   C698    1.394   .     A
C697   H1430   1.078   .     S
C698   C699    1.396   .     A
C698   H1431   1.081   .     S
C699   H748    1.080   .     S
C700   C705    1.404   .     A
C700   C701    1.401   .     A
C701   H726    1.080   .     S
C701   C702    1.397   .     A
C702   C703    1.394   .     A
C703   C704    1.399   .     A
C704   H729    1.082   .     S
C704   C705    1.399   .     A
C705   H730    1.083   .     S
C706   C712    1.401   .     A
C706   C708    1.404   .     A
C707   O755    1.289   .     A
C707   O758    1.289   .     A
C707   C720    1.366   .     S
C708   C709    1.399   .     A
C708   H731    1.083   .     S
C709   C710    1.399   .     A
C709   H732    1.082   .     S
C710   C711    1.394   .     A
C711   C712    1.397   .     A
C712   H735    1.079   .     S
C713   C714    1.401   .     A
C713   C719    1.404   .     A
C714   C715    1.397   .     A
C714   H737    1.080   .     S
C715   C716    1.394   .     A
C715   H1422   1.082   .     S
C716   C717    1.399   .     A
C716   H1423   1.080   .     S
C717   H740    1.082   .     S
C717   C719    1.399   .     A
C718   C721    1.366   .     S
C718   O756    1.289   .     A
C718   O757    1.289   .     A
C719   H741    1.083   .     S
C721   C1404   1.165   .     S
C722   H725    1.085   .     S
C722   C876    1.377   1_455 S
C723   H736    1.085   .     S
C723   C762    1.377   .     S
C724   H742    1.084   .     S
C724   C798    1.377   .     S
H727   C1386   1.082   .     S
H728   C1387   1.079   .     S
H733   C1394   1.080   .     S
H734   C1395   1.082   .     S
N749   Zn759   2.041   .     S
N750   Zn760   2.041   .     S
O751   Zn759   1.980   .     S
O752   Zn760   1.980   .     S
O753   Zn759   1.979   .     S
O754   Zn760   1.979   .     S
O755   Zn759   1.947   .     S
O756   Zn760   1.947   .     S
O757   Zn759   1.947   .     S
O758   Zn760   1.947   .     S
C761   O827    1.291   .     A
C761   O830    1.291   .     A
C761   C764    1.404   .     S
C762   H819    1.084   .     S
C762   C764    1.393   .     A
C763   C772    1.404   .     S
C763   C799    1.393   .     A
C763   C800    1.393   .     A
C764   C798    1.393   .     A
C765   C769    1.475   .     S
C765   N826    1.374   .     A
C765   C1224   1.433   1_545 S
C766   N825    1.374   .     A
C766   C776    1.475   .     S
C766   C995    1.433   .     S
C767   C782    1.476   .     S
C767   N826    1.374   .     A
C767   C1222   1.433   1_545 S
C768   C789    1.476   .     S
C768   N825    1.374   .     A
C768   C993    1.433   .     S
C769   C770    1.404   .     A
C769   C775    1.401   .     A
C770   H820    1.083   .     S
C770   C771    1.398   .     A
C771   H821    1.082   .     S
C771   C773    1.399   .     A
C772   O829    1.291   .     A
C772   O828    1.291   .     A
C773   C774    1.394   .     A
C773   H1506   1.078   .     S
C774   C775    1.396   .     A
C774   H1507   1.081   .     S
C775   H824    1.080   .     S
C776   C781    1.404   .     A
C776   C777    1.401   .     A
C777   H802    1.080   .     S
C777   C778    1.397   .     A
C778   C779    1.394   .     A
C779   C780    1.399   .     A
C780   H805    1.082   .     S
C780   C781    1.399   .     A
C781   H806    1.083   .     S
C782   C788    1.401   .     A
C782   C784    1.404   .     A
C783   O831    1.289   .     A
C783   O834    1.289   .     A
C783   C796    1.366   .     S
C784   C785    1.399   .     A
C784   H807    1.083   .     S
C785   C786    1.399   .     A
C785   H808    1.082   .     S
C786   C787    1.394   .     A
C787   C788    1.397   .     A
C788   H811    1.079   .     S
C789   C790    1.401   .     A
C789   C795    1.404   .     A
C790   C791    1.397   .     A
C790   H813    1.080   .     S
C791   C792    1.394   .     A
C791   H1498   1.082   .     S
C792   C793    1.399   .     A
C792   H1499   1.080   .     S
C793   H816    1.082   .     S
C793   C795    1.399   .     A
C794   C797    1.366   .     S
C794   O832    1.289   .     A
C794   O833    1.289   .     A
C795   H817    1.083   .     S
C797   C1480   1.165   .     S
C798   H801    1.085   .     S
C799   H812    1.085   .     S
C799   C838    1.377   .     S
C800   H818    1.084   .     S
C800   C874    1.377   .     S
H803   C1462   1.082   .     S
H804   C1463   1.079   .     S
H809   C1470   1.080   .     S
H810   C1471   1.082   .     S
N825   Zn835   2.041   .     S
N826   Zn836   2.041   .     S
O827   Zn835   1.980   .     S
O828   Zn836   1.980   .     S
O829   Zn835   1.979   .     S
O830   Zn836   1.979   .     S
O831   Zn835   1.947   .     S
O832   Zn836   1.947   .     S
O833   Zn835   1.947   .     S
O834   Zn836   1.947   .     S
C837   O903    1.291   .     A
C837   O906    1.291   .     A
C837   C840    1.404   .     S
C838   H895    1.084   .     S
C838   C840    1.393   .     A
C839   C848    1.404   .     S
C839   C875    1.393   .     A
C839   C876    1.393   .     A
C840   C874    1.393   .     A
C841   C845    1.475   .     S
C841   N902    1.374   .     A
C841   C1300   1.433   1_545 S
C842   N901    1.374   .     A
C842   C852    1.475   .     S
C842   C1071   1.433   .     S
C843   C858    1.476   .     S
C843   N902    1.374   .     A
C843   C1298   1.433   1_545 S
C844   C865    1.476   .     S
C844   N901    1.374   .     A
C844   C1069   1.433   .     S
C845   C846    1.404   .     A
C845   C851    1.401   .     A
C846   H896    1.083   .     S
C846   C847    1.398   .     A
C847   H897    1.082   .     S
C847   C849    1.399   .     A
C848   O905    1.291   .     A
C848   O904    1.291   .     A
C849   C850    1.394   .     A
C849   H1582   1.078   .     S
C850   C851    1.396   .     A
C850   H1583   1.081   .     S
C851   H900    1.080   .     S
C852   C857    1.404   .     A
C852   C853    1.401   .     A
C853   H878    1.080   .     S
C853   C854    1.397   .     A
C854   C855    1.394   .     A
C855   C856    1.399   .     A
C856   H881    1.082   .     S
C856   C857    1.399   .     A
C857   H882    1.083   .     S
C858   C864    1.401   .     A
C858   C860    1.404   .     A
C859   O907    1.289   .     A
C859   O910    1.289   .     A
C859   C872    1.366   .     S
C860   C861    1.399   .     A
C860   H883    1.083   .     S
C861   C862    1.399   .     A
C861   H884    1.082   .     S
C862   C863    1.394   .     A
C863   C864    1.397   .     A
C864   H887    1.079   .     S
C865   C866    1.401   .     A
C865   C871    1.404   .     A
C866   C867    1.397   .     A
C866   H889    1.080   .     S
C867   C868    1.394   .     A
C867   H1574   1.082   .     S
C868   C869    1.399   .     A
C868   H1575   1.080   .     S
C869   H892    1.082   .     S
C869   C871    1.399   .     A
C870   C873    1.366   .     S
C870   O908    1.289   .     A
C870   O909    1.289   .     A
C871   H893    1.083   .     S
C873   C1556   1.165   .     S
C874   H877    1.085   .     S
C875   H888    1.085   .     S
C875   C686    1.377   1_655 S
C876   H894    1.084   .     S
C876   C722    1.377   1_655 S
H879   C1538   1.082   .     S
H880   C1539   1.079   .     S
H885   C1546   1.080   .     S
H886   C1547   1.082   .     S
N901   Zn911   2.041   .     S
N902   Zn912   2.041   .     S
O903   Zn911   1.980   .     S
O904   Zn912   1.980   .     S
O905   Zn911   1.979   .     S
O906   Zn912   1.979   .     S
O907   Zn911   1.947   .     S
O908   Zn912   1.947   .     S
O909   Zn911   1.947   .     S
O910   Zn912   1.947   .     S
C913   O979    1.291   .     A
C913   O982    1.291   .     A
C913   C916    1.404   .     S
C914   H971    1.084   .     S
C914   C916    1.393   .     A
C914   C1103   1.377   1_455 S
C915   C924    1.404   .     S
C915   C951    1.393   .     A
C915   C952    1.393   .     A
C916   C950    1.393   .     A
C917   C921    1.475   .     S
C917   N978    1.374   .     A
C918   N977    1.374   .     A
C918   C928    1.475   .     S
C918   C1147   1.433   .     S
C919   C934    1.476   .     S
C919   N978    1.374   .     A
C920   C941    1.476   .     S
C920   N977    1.374   .     A
C920   C1145   1.433   .     S
C921   C922    1.404   .     A
C921   C927    1.401   .     A
C922   H972    1.083   .     S
C922   C923    1.398   .     A
C923   H973    1.082   .     S
C923   C925    1.399   .     A
C924   O981    1.291   .     A
C924   O980    1.291   .     A
C925   C926    1.394   .     A
C925   H1658   1.078   .     S
C926   C927    1.396   .     A
C926   H1659   1.081   .     S
C927   H976    1.080   .     S
C928   C933    1.404   .     A
C928   C929    1.401   .     A
C929   H954    1.080   .     S
C929   C930    1.397   .     A
C930   C931    1.394   .     A
C931   C932    1.399   .     A
C932   H957    1.082   .     S
C932   C933    1.399   .     A
C933   H958    1.083   .     S
C934   C940    1.401   .     A
C934   C936    1.404   .     A
C935   O983    1.289   .     A
C935   O986    1.289   .     A
C935   C948    1.366   .     S
C936   C937    1.399   .     A
C936   H959    1.083   .     S
C937   C938    1.399   .     A
C937   H960    1.082   .     S
C938   C939    1.394   .     A
C939   C940    1.397   .     A
C940   H963    1.079   .     S
C941   C942    1.401   .     A
C941   C947    1.404   .     A
C942   C943    1.397   .     A
C942   H965    1.080   .     S
C943   C944    1.394   .     A
C943   H1650   1.082   .     S
C944   C945    1.399   .     A
C944   H1651   1.080   .     S
C945   H968    1.082   .     S
C945   C947    1.399   .     A
C946   C949    1.366   .     S
C946   O984    1.289   .     A
C946   O985    1.289   .     A
C947   H969    1.083   .     S
C949   C1632   1.165   .     S
C950   H953    1.085   .     S
C950   C1104   1.377   1_455 S
C951   H964    1.085   .     S
C951   C990    1.377   .     S
C952   H970    1.084   .     S
C952   C1026   1.377   .     S
H955   C1614   1.082   .     S
H956   C1615   1.079   .     S
H961   C1622   1.080   .     S
H962   C1623   1.082   .     S
N977   Zn987   2.041   .     S
N978   Zn988   2.041   .     S
O979   Zn987   1.980   .     S
O980   Zn988   1.980   .     S
O981   Zn987   1.979   .     S
O982   Zn988   1.979   .     S
O983   Zn987   1.947   .     S
O984   Zn988   1.947   .     S
O985   Zn987   1.947   .     S
O986   Zn988   1.947   .     S
C989   O1055   1.291   .     A
C989   O1058   1.291   .     A
C989   C992    1.404   .     S
C990   H1047   1.084   .     S
C990   C992    1.393   .     A
C991   C1000   1.404   .     S
C991   C1027   1.393   .     A
C991   C1028   1.393   .     A
C992   C1026   1.393   .     A
C993   C997    1.475   .     S
C993   N1054   1.374   .     A
C994   N1053   1.374   .     A
C994   C1004   1.475   .     S
C994   C1223   1.433   .     S
C995   C1010   1.476   .     S
C995   N1054   1.374   .     A
C996   C1017   1.476   .     S
C996   N1053   1.374   .     A
C996   C1221   1.433   .     S
C997   C998    1.404   .     A
C997   C1003   1.401   .     A
C998   H1048   1.083   .     S
C998   C999    1.398   .     A
C999   H1049   1.082   .     S
C999   C1001   1.399   .     A
C1000  O1057   1.291   .     A
C1000  O1056   1.291   .     A
C1001  C1002   1.394   .     A
C1001  H1734   1.078   .     S
C1002  C1003   1.396   .     A
C1002  H1735   1.081   .     S
C1003  H1052   1.080   .     S
C1004  C1009   1.404   .     A
C1004  C1005   1.401   .     A
C1005  H1030   1.080   .     S
C1005  C1006   1.397   .     A
C1006  C1007   1.394   .     A
C1007  C1008   1.399   .     A
C1008  H1033   1.082   .     S
C1008  C1009   1.399   .     A
C1009  H1034   1.083   .     S
C1010  C1016   1.401   .     A
C1010  C1012   1.404   .     A
C1011  O1059   1.289   .     A
C1011  O1062   1.289   .     A
C1011  C1024   1.366   .     S
C1012  C1013   1.399   .     A
C1012  H1035   1.083   .     S
C1013  C1014   1.399   .     A
C1013  H1036   1.082   .     S
C1014  C1015   1.394   .     A
C1015  C1016   1.397   .     A
C1016  H1039   1.079   .     S
C1017  C1018   1.401   .     A
C1017  C1023   1.404   .     A
C1018  C1019   1.397   .     A
C1018  H1041   1.080   .     S
C1019  C1020   1.394   .     A
C1019  H1726   1.082   .     S
C1020  C1021   1.399   .     A
C1020  H1727   1.080   .     S
C1021  H1044   1.082   .     S
C1021  C1023   1.399   .     A
C1022  C1025   1.366   .     S
C1022  O1060   1.289   .     A
C1022  O1061   1.289   .     A
C1023  H1045   1.083   .     S
C1025  C1708   1.165   .     S
C1026  H1029   1.085   .     S
C1027  H1040   1.085   .     S
C1027  C1066   1.377   .     S
C1028  H1046   1.084   .     S
C1028  C1102   1.377   .     S
H1031  C1690   1.082   .     S
H1032  C1691   1.079   .     S
H1037  C1698   1.080   .     S
H1038  C1699   1.082   .     S
N1053  Zn1063  2.041   .     S
N1054  Zn1064  2.041   .     S
O1055  Zn1063  1.980   .     S
O1056  Zn1064  1.980   .     S
O1057  Zn1063  1.979   .     S
O1058  Zn1064  1.979   .     S
O1059  Zn1063  1.947   .     S
O1060  Zn1064  1.947   .     S
O1061  Zn1063  1.947   .     S
O1062  Zn1064  1.947   .     S
C1065  O1131   1.291   .     A
C1065  O1134   1.291   .     A
C1065  C1068   1.404   .     S
C1066  H1123   1.084   .     S
C1066  C1068   1.393   .     A
C1067  C1076   1.404   .     S
C1067  C1103   1.393   .     A
C1067  C1104   1.393   .     A
C1068  C1102   1.393   .     A
C1069  C1073   1.475   .     S
C1069  N1130   1.374   .     A
C1070  N1129   1.374   .     A
C1070  C1080   1.475   .     S
C1070  C1299   1.433   .     S
C1071  C1086   1.476   .     S
C1071  N1130   1.374   .     A
C1072  C1093   1.476   .     S
C1072  N1129   1.374   .     A
C1072  C1297   1.433   .     S
C1073  C1074   1.404   .     A
C1073  C1079   1.401   .     A
C1074  H1124   1.083   .     S
C1074  C1075   1.398   .     A
C1075  H1125   1.082   .     S
C1075  C1077   1.399   .     A
C1076  O1133   1.291   .     A
C1076  O1132   1.291   .     A
C1077  C1078   1.394   .     A
C1077  H1810   1.078   .     S
C1078  C1079   1.396   .     A
C1078  H1811   1.081   .     S
C1079  H1128   1.080   .     S
C1080  C1085   1.404   .     A
C1080  C1081   1.401   .     A
C1081  H1106   1.080   .     S
C1081  C1082   1.397   .     A
C1082  C1083   1.394   .     A
C1083  C1084   1.399   .     A
C1084  H1109   1.082   .     S
C1084  C1085   1.399   .     A
C1085  H1110   1.083   .     S
C1086  C1092   1.401   .     A
C1086  C1088   1.404   .     A
C1087  O1135   1.289   .     A
C1087  O1138   1.289   .     A
C1087  C1100   1.366   .     S
C1088  C1089   1.399   .     A
C1088  H1111   1.083   .     S
C1089  C1090   1.399   .     A
C1089  H1112   1.082   .     S
C1090  C1091   1.394   .     A
C1091  C1092   1.397   .     A
C1092  H1115   1.079   .     S
C1093  C1094   1.401   .     A
C1093  C1099   1.404   .     A
C1094  C1095   1.397   .     A
C1094  H1117   1.080   .     S
C1095  C1096   1.394   .     A
C1095  H1802   1.082   .     S
C1096  C1097   1.399   .     A
C1096  H1803   1.080   .     S
C1097  H1120   1.082   .     S
C1097  C1099   1.399   .     A
C1098  C1101   1.366   .     S
C1098  O1136   1.289   .     A
C1098  O1137   1.289   .     A
C1099  H1121   1.083   .     S
C1101  C1784   1.165   .     S
C1102  H1105   1.085   .     S
C1103  H1116   1.085   .     S
C1103  C914    1.377   1_655 S
C1104  H1122   1.084   .     S
C1104  C950    1.377   1_655 S
H1107  C1766   1.082   .     S
H1108  C1767   1.079   .     S
H1113  C1774   1.080   .     S
H1114  C1775   1.082   .     S
N1129  Zn1139  2.041   .     S
N1130  Zn1140  2.041   .     S
O1131  Zn1139  1.980   .     S
O1132  Zn1140  1.980   .     S
O1133  Zn1139  1.979   .     S
O1134  Zn1140  1.979   .     S
O1135  Zn1139  1.947   .     S
O1136  Zn1140  1.947   .     S
O1137  Zn1139  1.947   .     S
O1138  Zn1140  1.947   .     S
C1141  O1207   1.291   .     A
C1141  O1210   1.291   .     A
C1141  C1144   1.404   .     S
C1142  H1199   1.084   .     S
C1142  C1144   1.393   .     A
C1142  C1331   1.377   1_455 S
C1143  C1152   1.404   .     S
C1143  C1179   1.393   .     A
C1143  C1180   1.393   .     A
C1144  C1178   1.393   .     A
C1145  C1149   1.475   .     S
C1145  N1206   1.374   .     A
C1146  N1205   1.374   .     A
C1146  C1156   1.475   .     S
C1146  C691    1.433   1_565 S
C1147  C1162   1.476   .     S
C1147  N1206   1.374   .     A
C1148  C1169   1.476   .     S
C1148  N1205   1.374   .     A
C1148  C689    1.433   1_565 S
C1149  C1150   1.404   .     A
C1149  C1155   1.401   .     A
C1150  H1200   1.083   .     S
C1150  C1151   1.398   .     A
C1151  H1201   1.082   .     S
C1151  C1153   1.399   .     A
C1152  O1209   1.291   .     A
C1152  O1208   1.291   .     A
C1153  C1154   1.394   .     A
C1153  H1886   1.078   .     S
C1154  C1155   1.396   .     A
C1154  H1887   1.081   .     S
C1155  H1204   1.080   .     S
C1156  C1161   1.404   .     A
C1156  C1157   1.401   .     A
C1157  H1182   1.080   .     S
C1157  C1158   1.397   .     A
C1158  C1159   1.394   .     A
C1159  C1160   1.399   .     A
C1160  H1185   1.082   .     S
C1160  C1161   1.399   .     A
C1161  H1186   1.083   .     S
C1162  C1168   1.401   .     A
C1162  C1164   1.404   .     A
C1163  O1211   1.289   .     A
C1163  O1214   1.289   .     A
C1163  C1176   1.366   .     S
C1164  C1165   1.399   .     A
C1164  H1187   1.083   .     S
C1165  C1166   1.399   .     A
C1165  H1188   1.082   .     S
C1166  C1167   1.394   .     A
C1167  C1168   1.397   .     A
C1168  H1191   1.079   .     S
C1169  C1170   1.401   .     A
C1169  C1175   1.404   .     A
C1170  C1171   1.397   .     A
C1170  H1193   1.080   .     S
C1171  C1172   1.394   .     A
C1171  H1878   1.082   .     S
C1172  C1173   1.399   .     A
C1172  H1879   1.080   .     S
C1173  H1196   1.082   .     S
C1173  C1175   1.399   .     A
C1174  C1177   1.366   .     S
C1174  O1212   1.289   .     A
C1174  O1213   1.289   .     A
C1175  H1197   1.083   .     S
C1177  C1860   1.165   .     S
C1178  H1181   1.085   .     S
C1178  C1332   1.377   1_455 S
C1179  H1192   1.085   .     S
C1179  C1218   1.377   .     S
C1180  H1198   1.084   .     S
C1180  C1254   1.377   .     S
H1183  C1842   1.082   .     S
H1184  C1843   1.079   .     S
H1189  C1850   1.080   .     S
H1190  C1851   1.082   .     S
N1205  Zn1215  2.041   .     S
N1206  Zn1216  2.041   .     S
O1207  Zn1215  1.980   .     S
O1208  Zn1216  1.980   .     S
O1209  Zn1215  1.979   .     S
O1210  Zn1216  1.979   .     S
O1211  Zn1215  1.947   .     S
O1212  Zn1216  1.947   .     S
O1213  Zn1215  1.947   .     S
O1214  Zn1216  1.947   .     S
C1217  O1283   1.291   .     A
C1217  O1286   1.291   .     A
C1217  C1220   1.404   .     S
C1218  H1275   1.084   .     S
C1218  C1220   1.393   .     A
C1219  C1228   1.404   .     S
C1219  C1255   1.393   .     A
C1219  C1256   1.393   .     A
C1220  C1254   1.393   .     A
C1221  C1225   1.475   .     S
C1221  N1282   1.374   .     A
C1222  N1281   1.374   .     A
C1222  C1232   1.475   .     S
C1222  C767    1.433   1_565 S
C1223  C1238   1.476   .     S
C1223  N1282   1.374   .     A
C1224  C1245   1.476   .     S
C1224  N1281   1.374   .     A
C1224  C765    1.433   1_565 S
C1225  C1226   1.404   .     A
C1225  C1231   1.401   .     A
C1226  H1276   1.083   .     S
C1226  C1227   1.398   .     A
C1227  H1277   1.082   .     S
C1227  C1229   1.399   .     A
C1228  O1285   1.291   .     A
C1228  O1284   1.291   .     A
C1229  C1230   1.394   .     A
C1229  H1962   1.078   .     S
C1230  C1231   1.396   .     A
C1230  H1963   1.081   .     S
C1231  H1280   1.080   .     S
C1232  C1237   1.404   .     A
C1232  C1233   1.401   .     A
C1233  H1258   1.080   .     S
C1233  C1234   1.397   .     A
C1234  C1235   1.394   .     A
C1235  C1236   1.399   .     A
C1236  H1261   1.082   .     S
C1236  C1237   1.399   .     A
C1237  H1262   1.083   .     S
C1238  C1244   1.401   .     A
C1238  C1240   1.404   .     A
C1239  O1287   1.289   .     A
C1239  O1290   1.289   .     A
C1239  C1252   1.366   .     S
C1240  C1241   1.399   .     A
C1240  H1263   1.083   .     S
C1241  C1242   1.399   .     A
C1241  H1264   1.082   .     S
C1242  C1243   1.394   .     A
C1243  C1244   1.397   .     A
C1244  H1267   1.079   .     S
C1245  C1246   1.401   .     A
C1245  C1251   1.404   .     A
C1246  C1247   1.397   .     A
C1246  H1269   1.080   .     S
C1247  C1248   1.394   .     A
C1247  H1954   1.082   .     S
C1248  C1249   1.399   .     A
C1248  H1955   1.080   .     S
C1249  H1272   1.082   .     S
C1249  C1251   1.399   .     A
C1250  C1253   1.366   .     S
C1250  O1288   1.289   .     A
C1250  O1289   1.289   .     A
C1251  H1273   1.083   .     S
C1253  C1936   1.165   .     S
C1254  H1257   1.085   .     S
C1255  H1268   1.085   .     S
C1255  C1294   1.377   .     S
C1256  H1274   1.084   .     S
C1256  C1330   1.377   .     S
H1259  C1918   1.082   .     S
H1260  C1919   1.079   .     S
H1265  C1926   1.080   .     S
H1266  C1927   1.082   .     S
N1281  Zn1291  2.041   .     S
N1282  Zn1292  2.041   .     S
O1283  Zn1291  1.980   .     S
O1284  Zn1292  1.980   .     S
O1285  Zn1291  1.979   .     S
O1286  Zn1292  1.979   .     S
O1287  Zn1291  1.947   .     S
O1288  Zn1292  1.947   .     S
O1289  Zn1291  1.947   .     S
O1290  Zn1292  1.947   .     S
C1293  O1359   1.291   .     A
C1293  O1362   1.291   .     A
C1293  C1296   1.404   .     S
C1294  H1351   1.084   .     S
C1294  C1296   1.393   .     A
C1295  C1304   1.404   .     S
C1295  C1331   1.393   .     A
C1295  C1332   1.393   .     A
C1296  C1330   1.393   .     A
C1297  C1301   1.475   .     S
C1297  N1358   1.374   .     A
C1298  N1357   1.374   .     A
C1298  C1308   1.475   .     S
C1298  C843    1.433   1_565 S
C1299  C1314   1.476   .     S
C1299  N1358   1.374   .     A
C1300  C1321   1.476   .     S
C1300  N1357   1.374   .     A
C1300  C841    1.433   1_565 S
C1301  C1302   1.404   .     A
C1301  C1307   1.401   .     A
C1302  H1352   1.083   .     S
C1302  C1303   1.398   .     A
C1303  H1353   1.082   .     S
C1303  C1305   1.399   .     A
C1304  O1361   1.291   .     A
C1304  O1360   1.291   .     A
C1305  C1306   1.394   .     A
C1305  H2038   1.078   .     S
C1306  C1307   1.396   .     A
C1306  H2039   1.081   .     S
C1307  H1356   1.080   .     S
C1308  C1313   1.404   .     A
C1308  C1309   1.401   .     A
C1309  H1334   1.080   .     S
C1309  C1310   1.397   .     A
C1310  C1311   1.394   .     A
C1311  C1312   1.399   .     A
C1312  H1337   1.082   .     S
C1312  C1313   1.399   .     A
C1313  H1338   1.083   .     S
C1314  C1320   1.401   .     A
C1314  C1316   1.404   .     A
C1315  O1363   1.289   .     A
C1315  O1366   1.289   .     A
C1315  C1328   1.366   .     S
C1316  C1317   1.399   .     A
C1316  H1339   1.083   .     S
C1317  C1318   1.399   .     A
C1317  H1340   1.082   .     S
C1318  C1319   1.394   .     A
C1319  C1320   1.397   .     A
C1320  H1343   1.079   .     S
C1321  C1322   1.401   .     A
C1321  C1327   1.404   .     A
C1322  C1323   1.397   .     A
C1322  H1345   1.080   .     S
C1323  C1324   1.394   .     A
C1323  H2030   1.082   .     S
C1324  C1325   1.399   .     A
C1324  H2031   1.080   .     S
C1325  H1348   1.082   .     S
C1325  C1327   1.399   .     A
C1326  C1329   1.366   .     S
C1326  O1364   1.289   .     A
C1326  O1365   1.289   .     A
C1327  H1349   1.083   .     S
C1329  C2012   1.165   .     S
C1330  H1333   1.085   .     S
C1331  H1344   1.085   .     S
C1331  C1142   1.377   1_655 S
C1332  H1350   1.084   .     S
C1332  C1178   1.377   1_655 S
H1335  C1994   1.082   .     S
H1336  C1995   1.079   .     S
H1341  C2002   1.080   .     S
H1342  C2003   1.082   .     S
N1357  Zn1367  2.041   .     S
N1358  Zn1368  2.041   .     S
O1359  Zn1367  1.980   .     S
O1360  Zn1368  1.980   .     S
O1361  Zn1367  1.979   .     S
O1362  Zn1368  1.979   .     S
O1363  Zn1367  1.947   .     S
O1364  Zn1368  1.947   .     S
O1365  Zn1367  1.947   .     S
O1366  Zn1368  1.947   .     S
C1369  O1435   1.291   .     A
C1369  O1438   1.291   .     A
C1369  C1372   1.404   .     S
C1370  H1427   1.084   .     S
C1370  C1372   1.393   .     A
C1370  C1559   1.377   1_455 S
C1371  C1380   1.404   .     S
C1371  C1407   1.393   .     A
C1371  C1408   1.393   .     A
C1372  C1406   1.393   .     A
C1373  C1377   1.475   .     S
C1373  N1434   1.374   .     A
C1373  C1832   1.433   1_545 S
C1374  N1433   1.374   .     A
C1374  C1384   1.475   .     S
C1374  C1603   1.433   .     S
C1375  C1390   1.476   .     S
C1375  N1434   1.374   .     A
C1375  C1830   1.433   1_545 S
C1376  C1397   1.476   .     S
C1376  N1433   1.374   .     A
C1376  C1601   1.433   .     S
C1377  C1378   1.404   .     A
C1377  C1383   1.401   .     A
C1378  H1428   1.083   .     S
C1378  C1379   1.398   .     A
C1379  H1429   1.082   .     S
C1379  C1381   1.399   .     A
C1380  O1437   1.291   .     A
C1380  O1436   1.291   .     A
C1381  C1382   1.394   .     A
C1381  H62     1.078   1_556 S
C1382  C1383   1.396   .     A
C1382  H63     1.081   1_556 S
C1383  H1432   1.080   .     S
C1384  C1389   1.404   .     A
C1384  C1385   1.401   .     A
C1385  H1410   1.080   .     S
C1385  C1386   1.397   .     A
C1386  C1387   1.394   .     A
C1387  C1388   1.399   .     A
C1388  H1413   1.082   .     S
C1388  C1389   1.399   .     A
C1389  H1414   1.083   .     S
C1390  C1396   1.401   .     A
C1390  C1392   1.404   .     A
C1391  O1439   1.289   .     A
C1391  O1442   1.289   .     A
C1391  C1404   1.366   .     S
C1392  C1393   1.399   .     A
C1392  H1415   1.083   .     S
C1393  C1394   1.399   .     A
C1393  H1416   1.082   .     S
C1394  C1395   1.394   .     A
C1395  C1396   1.397   .     A
C1396  H1419   1.079   .     S
C1397  C1398   1.401   .     A
C1397  C1403   1.404   .     A
C1398  C1399   1.397   .     A
C1398  H1421   1.080   .     S
C1399  C1400   1.394   .     A
C1399  H54     1.082   1_556 S
C1400  C1401   1.399   .     A
C1400  H55     1.080   1_556 S
C1401  H1424   1.082   .     S
C1401  C1403   1.399   .     A
C1402  C1405   1.366   .     S
C1402  O1440   1.289   .     A
C1402  O1441   1.289   .     A
C1403  H1425   1.083   .     S
C1405  C36     1.165   1_556 S
C1406  H1409   1.085   .     S
C1406  C1560   1.377   1_455 S
C1407  H1420   1.085   .     S
C1407  C1446   1.377   .     S
C1408  H1426   1.084   .     S
C1408  C1482   1.377   .     S
H1411  C18     1.082   1_556 S
H1412  C19     1.079   1_556 S
H1417  C26     1.080   1_556 S
H1418  C27     1.082   1_556 S
N1433  Zn1443  2.041   .     S
N1434  Zn1444  2.041   .     S
O1435  Zn1443  1.980   .     S
O1436  Zn1444  1.980   .     S
O1437  Zn1443  1.979   .     S
O1438  Zn1444  1.979   .     S
O1439  Zn1443  1.947   .     S
O1440  Zn1444  1.947   .     S
O1441  Zn1443  1.947   .     S
O1442  Zn1444  1.947   .     S
C1445  O1511   1.291   .     A
C1445  O1514   1.291   .     A
C1445  C1448   1.404   .     S
C1446  H1503   1.084   .     S
C1446  C1448   1.393   .     A
C1447  C1456   1.404   .     S
C1447  C1483   1.393   .     A
C1447  C1484   1.393   .     A
C1448  C1482   1.393   .     A
C1449  C1453   1.475   .     S
C1449  N1510   1.374   .     A
C1449  C1908   1.433   1_545 S
C1450  N1509   1.374   .     A
C1450  C1460   1.475   .     S
C1450  C1679   1.433   .     S
C1451  C1466   1.476   .     S
C1451  N1510   1.374   .     A
C1451  C1906   1.433   1_545 S
C1452  C1473   1.476   .     S
C1452  N1509   1.374   .     A
C1452  C1677   1.433   .     S
C1453  C1454   1.404   .     A
C1453  C1459   1.401   .     A
C1454  H1504   1.083   .     S
C1454  C1455   1.398   .     A
C1455  H1505   1.082   .     S
C1455  C1457   1.399   .     A
C1456  O1513   1.291   .     A
C1456  O1512   1.291   .     A
C1457  C1458   1.394   .     A
C1457  H138    1.078   1_556 S
C1458  C1459   1.396   .     A
C1458  H139    1.081   1_556 S
C1459  H1508   1.080   .     S
C1460  C1465   1.404   .     A
C1460  C1461   1.401   .     A
C1461  H1486   1.080   .     S
C1461  C1462   1.397   .     A
C1462  C1463   1.394   .     A
C1463  C1464   1.399   .     A
C1464  H1489   1.082   .     S
C1464  C1465   1.399   .     A
C1465  H1490   1.083   .     S
C1466  C1472   1.401   .     A
C1466  C1468   1.404   .     A
C1467  O1515   1.289   .     A
C1467  O1518   1.289   .     A
C1467  C1480   1.366   .     S
C1468  C1469   1.399   .     A
C1468  H1491   1.083   .     S
C1469  C1470   1.399   .     A
C1469  H1492   1.082   .     S
C1470  C1471   1.394   .     A
C1471  C1472   1.397   .     A
C1472  H1495   1.079   .     S
C1473  C1474   1.401   .     A
C1473  C1479   1.404   .     A
C1474  C1475   1.397   .     A
C1474  H1497   1.080   .     S
C1475  C1476   1.394   .     A
C1475  H130    1.082   1_556 S
C1476  C1477   1.399   .     A
C1476  H131    1.080   1_556 S
C1477  H1500   1.082   .     S
C1477  C1479   1.399   .     A
C1478  C1481   1.366   .     S
C1478  O1516   1.289   .     A
C1478  O1517   1.289   .     A
C1479  H1501   1.083   .     S
C1481  C112    1.165   1_556 S
C1482  H1485   1.085   .     S
C1483  H1496   1.085   .     S
C1483  C1522   1.377   .     S
C1484  H1502   1.084   .     S
C1484  C1558   1.377   .     S
H1487  C94     1.082   1_556 S
H1488  C95     1.079   1_556 S
H1493  C102    1.080   1_556 S
H1494  C103    1.082   1_556 S
N1509  Zn1519  2.041   .     S
N1510  Zn1520  2.041   .     S
O1511  Zn1519  1.980   .     S
O1512  Zn1520  1.980   .     S
O1513  Zn1519  1.979   .     S
O1514  Zn1520  1.979   .     S
O1515  Zn1519  1.947   .     S
O1516  Zn1520  1.947   .     S
O1517  Zn1519  1.947   .     S
O1518  Zn1520  1.947   .     S
C1521  O1587   1.291   .     A
C1521  O1590   1.291   .     A
C1521  C1524   1.404   .     S
C1522  H1579   1.084   .     S
C1522  C1524   1.393   .     A
C1523  C1532   1.404   .     S
C1523  C1559   1.393   .     A
C1523  C1560   1.393   .     A
C1524  C1558   1.393   .     A
C1525  C1529   1.475   .     S
C1525  N1586   1.374   .     A
C1525  C1984   1.433   1_545 S
C1526  N1585   1.374   .     A
C1526  C1536   1.475   .     S
C1526  C1755   1.433   .     S
C1527  C1542   1.476   .     S
C1527  N1586   1.374   .     A
C1527  C1982   1.433   1_545 S
C1528  C1549   1.476   .     S
C1528  N1585   1.374   .     A
C1528  C1753   1.433   .     S
C1529  C1530   1.404   .     A
C1529  C1535   1.401   .     A
C1530  H1580   1.083   .     S
C1530  C1531   1.398   .     A
C1531  H1581   1.082   .     S
C1531  C1533   1.399   .     A
C1532  O1589   1.291   .     A
C1532  O1588   1.291   .     A
C1533  C1534   1.394   .     A
C1533  H214    1.078   1_556 S
C1534  C1535   1.396   .     A
C1534  H215    1.081   1_556 S
C1535  H1584   1.080   .     S
C1536  C1541   1.404   .     A
C1536  C1537   1.401   .     A
C1537  H1562   1.080   .     S
C1537  C1538   1.397   .     A
C1538  C1539   1.394   .     A
C1539  C1540   1.399   .     A
C1540  H1565   1.082   .     S
C1540  C1541   1.399   .     A
C1541  H1566   1.083   .     S
C1542  C1548   1.401   .     A
C1542  C1544   1.404   .     A
C1543  O1591   1.289   .     A
C1543  O1594   1.289   .     A
C1543  C1556   1.366   .     S
C1544  C1545   1.399   .     A
C1544  H1567   1.083   .     S
C1545  C1546   1.399   .     A
C1545  H1568   1.082   .     S
C1546  C1547   1.394   .     A
C1547  C1548   1.397   .     A
C1548  H1571   1.079   .     S
C1549  C1550   1.401   .     A
C1549  C1555   1.404   .     A
C1550  C1551   1.397   .     A
C1550  H1573   1.080   .     S
C1551  C1552   1.394   .     A
C1551  H206    1.082   1_556 S
C1552  C1553   1.399   .     A
C1552  H207    1.080   1_556 S
C1553  H1576   1.082   .     S
C1553  C1555   1.399   .     A
C1554  C1557   1.366   .     S
C1554  O1592   1.289   .     A
C1554  O1593   1.289   .     A
C1555  H1577   1.083   .     S
C1557  C188    1.165   1_556 S
C1558  H1561   1.085   .     S
C1559  H1572   1.085   .     S
C1559  C1370   1.377   1_655 S
C1560  H1578   1.084   .     S
C1560  C1406   1.377   1_655 S
H1563  C170    1.082   1_556 S
H1564  C171    1.079   1_556 S
H1569  C178    1.080   1_556 S
H1570  C179    1.082   1_556 S
N1585  Zn1595  2.041   .     S
N1586  Zn1596  2.041   .     S
O1587  Zn1595  1.980   .     S
O1588  Zn1596  1.980   .     S
O1589  Zn1595  1.979   .     S
O1590  Zn1596  1.979   .     S
O1591  Zn1595  1.947   .     S
O1592  Zn1596  1.947   .     S
O1593  Zn1595  1.947   .     S
O1594  Zn1596  1.947   .     S
C1597  O1663   1.291   .     A
C1597  O1666   1.291   .     A
C1597  C1600   1.404   .     S
C1598  H1655   1.084   .     S
C1598  C1600   1.393   .     A
C1598  C1787   1.377   1_455 S
C1599  C1608   1.404   .     S
C1599  C1635   1.393   .     A
C1599  C1636   1.393   .     A
C1600  C1634   1.393   .     A
C1601  C1605   1.475   .     S
C1601  N1662   1.374   .     A
C1602  N1661   1.374   .     A
C1602  C1612   1.475   .     S
C1602  C1831   1.433   .     S
C1603  C1618   1.476   .     S
C1603  N1662   1.374   .     A
C1604  C1625   1.476   .     S
C1604  N1661   1.374   .     A
C1604  C1829   1.433   .     S
C1605  C1606   1.404   .     A
C1605  C1611   1.401   .     A
C1606  H1656   1.083   .     S
C1606  C1607   1.398   .     A
C1607  H1657   1.082   .     S
C1607  C1609   1.399   .     A
C1608  O1665   1.291   .     A
C1608  O1664   1.291   .     A
C1609  C1610   1.394   .     A
C1609  H290    1.078   1_556 S
C1610  C1611   1.396   .     A
C1610  H291    1.081   1_556 S
C1611  H1660   1.080   .     S
C1612  C1617   1.404   .     A
C1612  C1613   1.401   .     A
C1613  H1638   1.080   .     S
C1613  C1614   1.397   .     A
C1614  C1615   1.394   .     A
C1615  C1616   1.399   .     A
C1616  H1641   1.082   .     S
C1616  C1617   1.399   .     A
C1617  H1642   1.083   .     S
C1618  C1624   1.401   .     A
C1618  C1620   1.404   .     A
C1619  O1667   1.289   .     A
C1619  O1670   1.289   .     A
C1619  C1632   1.366   .     S
C1620  C1621   1.399   .     A
C1620  H1643   1.083   .     S
C1621  C1622   1.399   .     A
C1621  H1644   1.082   .     S
C1622  C1623   1.394   .     A
C1623  C1624   1.397   .     A
C1624  H1647   1.079   .     S
C1625  C1626   1.401   .     A
C1625  C1631   1.404   .     A
C1626  C1627   1.397   .     A
C1626  H1649   1.080   .     S
C1627  C1628   1.394   .     A
C1627  H282    1.082   1_556 S
C1628  C1629   1.399   .     A
C1628  H283    1.080   1_556 S
C1629  H1652   1.082   .     S
C1629  C1631   1.399   .     A
C1630  C1633   1.366   .     S
C1630  O1668   1.289   .     A
C1630  O1669   1.289   .     A
C1631  H1653   1.083   .     S
C1633  C264    1.165   1_556 S
C1634  H1637   1.085   .     S
C1634  C1788   1.377   1_455 S
C1635  H1648   1.085   .     S
C1635  C1674   1.377   .     S
C1636  H1654   1.084   .     S
C1636  C1710   1.377   .     S
H1639  C246    1.082   1_556 S
H1640  C247    1.079   1_556 S
H1645  C254    1.080   1_556 S
H1646  C255    1.082   1_556 S
N1661  Zn1671  2.041   .     S
N1662  Zn1672  2.041   .     S
O1663  Zn1671  1.980   .     S
O1664  Zn1672  1.980   .     S
O1665  Zn1671  1.979   .     S
O1666  Zn1672  1.979   .     S
O1667  Zn1671  1.947   .     S
O1668  Zn1672  1.947   .     S
O1669  Zn1671  1.947   .     S
O1670  Zn1672  1.947   .     S
C1673  O1739   1.291   .     A
C1673  O1742   1.291   .     A
C1673  C1676   1.404   .     S
C1674  H1731   1.084   .     S
C1674  C1676   1.393   .     A
C1675  C1684   1.404   .     S
C1675  C1711   1.393   .     A
C1675  C1712   1.393   .     A
C1676  C1710   1.393   .     A
C1677  C1681   1.475   .     S
C1677  N1738   1.374   .     A
C1678  N1737   1.374   .     A
C1678  C1688   1.475   .     S
C1678  C1907   1.433   .     S
C1679  C1694   1.476   .     S
C1679  N1738   1.374   .     A
C1680  C1701   1.476   .     S
C1680  N1737   1.374   .     A
C1680  C1905   1.433   .     S
C1681  C1682   1.404   .     A
C1681  C1687   1.401   .     A
C1682  H1732   1.083   .     S
C1682  C1683   1.398   .     A
C1683  H1733   1.082   .     S
C1683  C1685   1.399   .     A
C1684  O1741   1.291   .     A
C1684  O1740   1.291   .     A
C1685  C1686   1.394   .     A
C1685  H366    1.078   1_556 S
C1686  C1687   1.396   .     A
C1686  H367    1.081   1_556 S
C1687  H1736   1.080   .     S
C1688  C1693   1.404   .     A
C1688  C1689   1.401   .     A
C1689  H1714   1.080   .     S
C1689  C1690   1.397   .     A
C1690  C1691   1.394   .     A
C1691  C1692   1.399   .     A
C1692  H1717   1.082   .     S
C1692  C1693   1.399   .     A
C1693  H1718   1.083   .     S
C1694  C1700   1.401   .     A
C1694  C1696   1.404   .     A
C1695  O1743   1.289   .     A
C1695  O1746   1.289   .     A
C1695  C1708   1.366   .     S
C1696  C1697   1.399   .     A
C1696  H1719   1.083   .     S
C1697  C1698   1.399   .     A
C1697  H1720   1.082   .     S
C1698  C1699   1.394   .     A
C1699  C1700   1.397   .     A
C1700  H1723   1.079   .     S
C1701  C1702   1.401   .     A
C1701  C1707   1.404   .     A
C1702  C1703   1.397   .     A
C1702  H1725   1.080   .     S
C1703  C1704   1.394   .     A
C1703  H358    1.082   1_556 S
C1704  C1705   1.399   .     A
C1704  H359    1.080   1_556 S
C1705  H1728   1.082   .     S
C1705  C1707   1.399   .     A
C1706  C1709   1.366   .     S
C1706  O1744   1.289   .     A
C1706  O1745   1.289   .     A
C1707  H1729   1.083   .     S
C1709  C340    1.165   1_556 S
C1710  H1713   1.085   .     S
C1711  H1724   1.085   .     S
C1711  C1750   1.377   .     S
C1712  H1730   1.084   .     S
C1712  C1786   1.377   .     S
H1715  C322    1.082   1_556 S
H1716  C323    1.079   1_556 S
H1721  C330    1.080   1_556 S
H1722  C331    1.082   1_556 S
N1737  Zn1747  2.041   .     S
N1738  Zn1748  2.041   .     S
O1739  Zn1747  1.980   .     S
O1740  Zn1748  1.980   .     S
O1741  Zn1747  1.979   .     S
O1742  Zn1748  1.979   .     S
O1743  Zn1747  1.947   .     S
O1744  Zn1748  1.947   .     S
O1745  Zn1747  1.947   .     S
O1746  Zn1748  1.947   .     S
C1749  O1815   1.291   .     A
C1749  O1818   1.291   .     A
C1749  C1752   1.404   .     S
C1750  H1807   1.084   .     S
C1750  C1752   1.393   .     A
C1751  C1760   1.404   .     S
C1751  C1787   1.393   .     A
C1751  C1788   1.393   .     A
C1752  C1786   1.393   .     A
C1753  C1757   1.475   .     S
C1753  N1814   1.374   .     A
C1754  N1813   1.374   .     A
C1754  C1764   1.475   .     S
C1754  C1983   1.433   .     S
C1755  C1770   1.476   .     S
C1755  N1814   1.374   .     A
C1756  C1777   1.476   .     S
C1756  N1813   1.374   .     A
C1756  C1981   1.433   .     S
C1757  C1758   1.404   .     A
C1757  C1763   1.401   .     A
C1758  H1808   1.083   .     S
C1758  C1759   1.398   .     A
C1759  H1809   1.082   .     S
C1759  C1761   1.399   .     A
C1760  O1817   1.291   .     A
C1760  O1816   1.291   .     A
C1761  C1762   1.394   .     A
C1761  H442    1.078   1_556 S
C1762  C1763   1.396   .     A
C1762  H443    1.081   1_556 S
C1763  H1812   1.080   .     S
C1764  C1769   1.404   .     A
C1764  C1765   1.401   .     A
C1765  H1790   1.080   .     S
C1765  C1766   1.397   .     A
C1766  C1767   1.394   .     A
C1767  C1768   1.399   .     A
C1768  H1793   1.082   .     S
C1768  C1769   1.399   .     A
C1769  H1794   1.083   .     S
C1770  C1776   1.401   .     A
C1770  C1772   1.404   .     A
C1771  O1819   1.289   .     A
C1771  O1822   1.289   .     A
C1771  C1784   1.366   .     S
C1772  C1773   1.399   .     A
C1772  H1795   1.083   .     S
C1773  C1774   1.399   .     A
C1773  H1796   1.082   .     S
C1774  C1775   1.394   .     A
C1775  C1776   1.397   .     A
C1776  H1799   1.079   .     S
C1777  C1778   1.401   .     A
C1777  C1783   1.404   .     A
C1778  C1779   1.397   .     A
C1778  H1801   1.080   .     S
C1779  C1780   1.394   .     A
C1779  H434    1.082   1_556 S
C1780  C1781   1.399   .     A
C1780  H435    1.080   1_556 S
C1781  H1804   1.082   .     S
C1781  C1783   1.399   .     A
C1782  C1785   1.366   .     S
C1782  O1820   1.289   .     A
C1782  O1821   1.289   .     A
C1783  H1805   1.083   .     S
C1785  C416    1.165   1_556 S
C1786  H1789   1.085   .     S
C1787  H1800   1.085   .     S
C1787  C1598   1.377   1_655 S
C1788  H1806   1.084   .     S
C1788  C1634   1.377   1_655 S
H1791  C398    1.082   1_556 S
H1792  C399    1.079   1_556 S
H1797  C406    1.080   1_556 S
H1798  C407    1.082   1_556 S
N1813  Zn1823  2.041   .     S
N1814  Zn1824  2.041   .     S
O1815  Zn1823  1.980   .     S
O1816  Zn1824  1.980   .     S
O1817  Zn1823  1.979   .     S
O1818  Zn1824  1.979   .     S
O1819  Zn1823  1.947   .     S
O1820  Zn1824  1.947   .     S
O1821  Zn1823  1.947   .     S
O1822  Zn1824  1.947   .     S
C1825  O1891   1.291   .     A
C1825  O1894   1.291   .     A
C1825  C1828   1.404   .     S
C1826  H1883   1.084   .     S
C1826  C1828   1.393   .     A
C1826  C2015   1.377   1_455 S
C1827  C1836   1.404   .     S
C1827  C1863   1.393   .     A
C1827  C1864   1.393   .     A
C1828  C1862   1.393   .     A
C1829  C1833   1.475   .     S
C1829  N1890   1.374   .     A
C1830  N1889   1.374   .     A
C1830  C1840   1.475   .     S
C1830  C1375   1.433   1_565 S
C1831  C1846   1.476   .     S
C1831  N1890   1.374   .     A
C1832  C1853   1.476   .     S
C1832  N1889   1.374   .     A
C1832  C1373   1.433   1_565 S
C1833  C1834   1.404   .     A
C1833  C1839   1.401   .     A
C1834  H1884   1.083   .     S
C1834  C1835   1.398   .     A
C1835  H1885   1.082   .     S
C1835  C1837   1.399   .     A
C1836  O1893   1.291   .     A
C1836  O1892   1.291   .     A
C1837  C1838   1.394   .     A
C1837  H518    1.078   1_556 S
C1838  C1839   1.396   .     A
C1838  H519    1.081   1_556 S
C1839  H1888   1.080   .     S
C1840  C1845   1.404   .     A
C1840  C1841   1.401   .     A
C1841  H1866   1.080   .     S
C1841  C1842   1.397   .     A
C1842  C1843   1.394   .     A
C1843  C1844   1.399   .     A
C1844  H1869   1.082   .     S
C1844  C1845   1.399   .     A
C1845  H1870   1.083   .     S
C1846  C1852   1.401   .     A
C1846  C1848   1.404   .     A
C1847  O1895   1.289   .     A
C1847  O1898   1.289   .     A
C1847  C1860   1.366   .     S
C1848  C1849   1.399   .     A
C1848  H1871   1.083   .     S
C1849  C1850   1.399   .     A
C1849  H1872   1.082   .     S
C1850  C1851   1.394   .     A
C1851  C1852   1.397   .     A
C1852  H1875   1.079   .     S
C1853  C1854   1.401   .     A
C1853  C1859   1.404   .     A
C1854  C1855   1.397   .     A
C1854  H1877   1.080   .     S
C1855  C1856   1.394   .     A
C1855  H510    1.082   1_556 S
C1856  C1857   1.399   .     A
C1856  H511    1.080   1_556 S
C1857  H1880   1.082   .     S
C1857  C1859   1.399   .     A
C1858  C1861   1.366   .     S
C1858  O1896   1.289   .     A
C1858  O1897   1.289   .     A
C1859  H1881   1.083   .     S
C1861  C492    1.165   1_556 S
C1862  H1865   1.085   .     S
C1862  C2016   1.377   1_455 S
C1863  H1876   1.085   .     S
C1863  C1902   1.377   .     S
C1864  H1882   1.084   .     S
C1864  C1938   1.377   .     S
H1867  C474    1.082   1_556 S
H1868  C475    1.079   1_556 S
H1873  C482    1.080   1_556 S
H1874  C483    1.082   1_556 S
N1889  Zn1899  2.041   .     S
N1890  Zn1900  2.041   .     S
O1891  Zn1899  1.980   .     S
O1892  Zn1900  1.980   .     S
O1893  Zn1899  1.979   .     S
O1894  Zn1900  1.979   .     S
O1895  Zn1899  1.947   .     S
O1896  Zn1900  1.947   .     S
O1897  Zn1899  1.947   .     S
O1898  Zn1900  1.947   .     S
C1901  O1967   1.291   .     A
C1901  O1970   1.291   .     A
C1901  C1904   1.404   .     S
C1902  H1959   1.084   .     S
C1902  C1904   1.393   .     A
C1903  C1912   1.404   .     S
C1903  C1939   1.393   .     A
C1903  C1940   1.393   .     A
C1904  C1938   1.393   .     A
C1905  C1909   1.475   .     S
C1905  N1966   1.374   .     A
C1906  N1965   1.374   .     A
C1906  C1916   1.475   .     S
C1906  C1451   1.433   1_565 S
C1907  C1922   1.476   .     S
C1907  N1966   1.374   .     A
C1908  C1929   1.476   .     S
C1908  N1965   1.374   .     A
C1908  C1449   1.433   1_565 S
C1909  C1910   1.404   .     A
C1909  C1915   1.401   .     A
C1910  H1960   1.083   .     S
C1910  C1911   1.398   .     A
C1911  H1961   1.082   .     S
C1911  C1913   1.399   .     A
C1912  O1969   1.291   .     A
C1912  O1968   1.291   .     A
C1913  C1914   1.394   .     A
C1913  H594    1.078   1_556 S
C1914  C1915   1.396   .     A
C1914  H595    1.081   1_556 S
C1915  H1964   1.080   .     S
C1916  C1921   1.404   .     A
C1916  C1917   1.401   .     A
C1917  H1942   1.080   .     S
C1917  C1918   1.397   .     A
C1918  C1919   1.394   .     A
C1919  C1920   1.399   .     A
C1920  H1945   1.082   .     S
C1920  C1921   1.399   .     A
C1921  H1946   1.083   .     S
C1922  C1928   1.401   .     A
C1922  C1924   1.404   .     A
C1923  O1971   1.289   .     A
C1923  O1974   1.289   .     A
C1923  C1936   1.366   .     S
C1924  C1925   1.399   .     A
C1924  H1947   1.083   .     S
C1925  C1926   1.399   .     A
C1925  H1948   1.082   .     S
C1926  C1927   1.394   .     A
C1927  C1928   1.397   .     A
C1928  H1951   1.079   .     S
C1929  C1930   1.401   .     A
C1929  C1935   1.404   .     A
C1930  C1931   1.397   .     A
C1930  H1953   1.080   .     S
C1931  C1932   1.394   .     A
C1931  H586    1.082   1_556 S
C1932  C1933   1.399   .     A
C1932  H587    1.080   1_556 S
C1933  H1956   1.082   .     S
C1933  C1935   1.399   .     A
C1934  C1937   1.366   .     S
C1934  O1972   1.289   .     A
C1934  O1973   1.289   .     A
C1935  H1957   1.083   .     S
C1937  C568    1.165   1_556 S
C1938  H1941   1.085   .     S
C1939  H1952   1.085   .     S
C1939  C1978   1.377   .     S
C1940  H1958   1.084   .     S
C1940  C2014   1.377   .     S
H1943  C550    1.082   1_556 S
H1944  C551    1.079   1_556 S
H1949  C558    1.080   1_556 S
H1950  C559    1.082   1_556 S
N1965  Zn1975  2.041   .     S
N1966  Zn1976  2.041   .     S
O1967  Zn1975  1.980   .     S
O1968  Zn1976  1.980   .     S
O1969  Zn1975  1.979   .     S
O1970  Zn1976  1.979   .     S
O1971  Zn1975  1.947   .     S
O1972  Zn1976  1.947   .     S
O1973  Zn1975  1.947   .     S
O1974  Zn1976  1.947   .     S
C1977  O2043   1.291   .     A
C1977  O2046   1.291   .     A
C1977  C1980   1.404   .     S
C1978  H2035   1.084   .     S
C1978  C1980   1.393   .     A
C1979  C1988   1.404   .     S
C1979  C2015   1.393   .     A
C1979  C2016   1.393   .     A
C1980  C2014   1.393   .     A
C1981  C1985   1.475   .     S
C1981  N2042   1.374   .     A
C1982  N2041   1.374   .     A
C1982  C1992   1.475   .     S
C1982  C1527   1.433   1_565 S
C1983  C1998   1.476   .     S
C1983  N2042   1.374   .     A
C1984  C2005   1.476   .     S
C1984  N2041   1.374   .     A
C1984  C1525   1.433   1_565 S
C1985  C1986   1.404   .     A
C1985  C1991   1.401   .     A
C1986  H2036   1.083   .     S
C1986  C1987   1.398   .     A
C1987  H2037   1.082   .     S
C1987  C1989   1.399   .     A
C1988  O2045   1.291   .     A
C1988  O2044   1.291   .     A
C1989  C1990   1.394   .     A
C1989  H670    1.078   1_556 S
C1990  C1991   1.396   .     A
C1990  H671    1.081   1_556 S
C1991  H2040   1.080   .     S
C1992  C1997   1.404   .     A
C1992  C1993   1.401   .     A
C1993  H2018   1.080   .     S
C1993  C1994   1.397   .     A
C1994  C1995   1.394   .     A
C1995  C1996   1.399   .     A
C1996  H2021   1.082   .     S
C1996  C1997   1.399   .     A
C1997  H2022   1.083   .     S
C1998  C2004   1.401   .     A
C1998  C2000   1.404   .     A
C1999  O2047   1.289   .     A
C1999  O2050   1.289   .     A
C1999  C2012   1.366   .     S
C2000  C2001   1.399   .     A
C2000  H2023   1.083   .     S
C2001  C2002   1.399   .     A
C2001  H2024   1.082   .     S
C2002  C2003   1.394   .     A
C2003  C2004   1.397   .     A
C2004  H2027   1.079   .     S
C2005  C2006   1.401   .     A
C2005  C2011   1.404   .     A
C2006  C2007   1.397   .     A
C2006  H2029   1.080   .     S
C2007  C2008   1.394   .     A
C2007  H662    1.082   1_556 S
C2008  C2009   1.399   .     A
C2008  H663    1.080   1_556 S
C2009  H2032   1.082   .     S
C2009  C2011   1.399   .     A
C2010  C2013   1.366   .     S
C2010  O2048   1.289   .     A
C2010  O2049   1.289   .     A
C2011  H2033   1.083   .     S
C2013  C644    1.165   1_556 S
C2014  H2017   1.085   .     S
C2015  H2028   1.085   .     S
C2015  C1826   1.377   1_655 S
C2016  H2034   1.084   .     S
C2016  C1862   1.377   1_655 S
H2019  C626    1.082   1_556 S
H2020  C627    1.079   1_556 S
H2025  C634    1.080   1_556 S
H2026  C635    1.082   1_556 S
N2041  Zn2051  2.041   .     S
N2042  Zn2052  2.041   .     S
O2043  Zn2051  1.980   .     S
O2044  Zn2052  1.980   .     S
O2045  Zn2051  1.979   .     S
O2046  Zn2052  1.979   .     S
O2047  Zn2051  1.947   .     S
O2048  Zn2052  1.947   .     S
O2049  Zn2051  1.947   .     S
O2050  Zn2052  1.947   .     S
