data_str_m3_o1_o10_pcu_sym.42
_audit_creation_date              2020-01-03
_audit_creation_method            'Materials Studio'
_symmetry_space_group_name_H-M    'P1'
_symmetry_Int_Tables_number       1
_symmetry_cell_setting            triclinic
loop_
_symmetry_equiv_pos_as_xyz
  x,y,z
_cell_length_a                    25.7591
_cell_length_b                    31.9044
_cell_length_c                    29.5925
_cell_angle_alpha                 89.8604
_cell_angle_beta                  98.6738
_cell_angle_gamma                 90.4240
loop_
_atom_site_label
_atom_site_type_symbol
_atom_site_fract_x
_atom_site_fract_y
_atom_site_fract_z
_atom_site_U_iso_or_equiv
_atom_site_adp_type
_atom_site_occupancy
C1     C     0.16643   0.08687   0.16668   0.00000  Uiso   1.00
C2     C     0.21421   0.02238   0.18144   0.00000  Uiso   1.00
C3     C     0.16711   0.29066   0.16651   0.00000  Uiso   1.00
C4     C     0.16622   0.04267   0.16682   0.00000  Uiso   1.00
C5     C     0.20016   0.19217   0.02827   0.00000  Uiso   1.00
C6     C     0.13317   0.14117   0.30506   0.00000  Uiso   1.00
C7     C     0.20015   0.19216   0.31369   0.00000  Uiso   1.00
C8     C     0.13319   0.14118   0.01964   0.00000  Uiso   1.00
C9     C     0.06741   0.04465   0.13771   0.00000  Uiso   1.00
C10    C     0.26592   0.28869   0.19563   0.00000  Uiso   1.00
C11    C     0.06952   0.28510   0.13687   0.00000  Uiso   1.00
C12    C     0.16690   0.24647   0.16665   0.00000  Uiso   1.00
C13    C     0.26382   0.04824   0.19646   0.00000  Uiso   1.00
C14    C     0.06705   0.16686   0.15470   0.00000  Uiso   1.00
C15    C     0.26628   0.16647   0.17864   0.00000  Uiso   1.00
C16    C     0.01199   0.16685   0.14827   0.00000  Uiso   1.00
C17    C     0.32135   0.16649   0.18506   0.00000  Uiso   1.00
C18    C     0.11855   0.02133   0.15220   0.00000  Uiso   1.00
C19    C     0.21478   0.31201   0.18113   0.00000  Uiso   1.00
C20    C     0.11913   0.31096   0.15190   0.00000  Uiso   1.00
H21    H     0.32467   0.16710   0.11337   0.00000  Uiso   1.00
H22    H     0.26234   0.25422   0.19300   0.00000  Uiso   1.00
H23    H     0.29508   0.29816   0.17345   0.00000  Uiso   1.00
H24    H     0.28139   0.29597   0.23185   0.00000  Uiso   1.00
H25    H     0.07509   0.26496   0.10748   0.00000  Uiso   1.00
H26    H     0.06126   0.26486   0.16558   0.00000  Uiso   1.00
H27    H     0.03383   0.30369   0.12575   0.00000  Uiso   1.00
H28    H     0.27207   0.06848   0.16775   0.00000  Uiso   1.00
H29    H     0.25825   0.06837   0.22586   0.00000  Uiso   1.00
H30    H     0.29951   0.02965   0.20756   0.00000  Uiso   1.00
H31    H     0.00866   0.16624   0.21996   0.00000  Uiso   1.00
H32    H     0.22698   0.21257   0.04983   0.00000  Uiso   1.00
H33    H     0.10636   0.12076   0.28350   0.00000  Uiso   1.00
H34    H     0.22693   0.21257   0.29903   0.00000  Uiso   1.00
H35    H     0.10640   0.12077   0.03430   0.00000  Uiso   1.00
H36    H     0.07099   0.07911   0.14037   0.00000  Uiso   1.00
H37    H     0.05196   0.03738   0.10148   0.00000  Uiso   1.00
H38    H     0.03824   0.03516   0.15987   0.00000  Uiso   1.00
N39    N     0.16665   0.16666   0.28573   0.00000  Uiso   1.00
N40    N     0.16668   0.16668   0.04760   0.00000  Uiso   1.00
O41    O     0.16666   0.10558   0.20487   0.00000  Uiso   1.00
O42    O     0.16667   0.22775   0.12846   0.00000  Uiso   1.00
O43    O     0.16666   0.10559   0.12843   0.00000  Uiso   1.00
O44    O     0.16667   0.22774   0.20490   0.00000  Uiso   1.00
O45    O     0.09058   0.16666   0.19595   0.00000  Uiso   1.00
O46    O     0.24275   0.16667   0.13739   0.00000  Uiso   1.00
O47    O     0.09058   0.16667   0.11950   0.00000  Uiso   1.00
O48    O     0.24275   0.16666   0.21383   0.00000  Uiso   1.00
Zn49   Zn    0.16667   0.16666   0.21771   0.00000  Uiso   1.00
Zn50   Zn    0.16667   0.16667   0.11563   0.00000  Uiso   1.00
C51    C     0.49977   0.08687   0.16668   0.00000  Uiso   1.00
C52    C     0.54754   0.02238   0.18144   0.00000  Uiso   1.00
C53    C     0.50044   0.29066   0.16651   0.00000  Uiso   1.00
C54    C     0.49956   0.04267   0.16682   0.00000  Uiso   1.00
C55    C     0.53350   0.19217   0.02827   0.00000  Uiso   1.00
C56    C     0.46650   0.14117   0.30506   0.00000  Uiso   1.00
C57    C     0.53348   0.19216   0.31369   0.00000  Uiso   1.00
C58    C     0.46652   0.14118   0.01964   0.00000  Uiso   1.00
C59    C     0.40074   0.04465   0.13771   0.00000  Uiso   1.00
C60    C     0.59926   0.28869   0.19563   0.00000  Uiso   1.00
C61    C     0.40285   0.28510   0.13687   0.00000  Uiso   1.00
C62    C     0.50023   0.24647   0.16665   0.00000  Uiso   1.00
C63    C     0.59715   0.04824   0.19646   0.00000  Uiso   1.00
C64    C     0.40038   0.16686   0.15470   0.00000  Uiso   1.00
C65    C     0.59962   0.16647   0.17864   0.00000  Uiso   1.00
C66    C     0.34532   0.16685   0.14827   0.00000  Uiso   1.00
C67    C     0.65468   0.16649   0.18506   0.00000  Uiso   1.00
C68    C     0.45189   0.02133   0.15220   0.00000  Uiso   1.00
C69    C     0.54811   0.31201   0.18113   0.00000  Uiso   1.00
C70    C     0.45246   0.31096   0.15190   0.00000  Uiso   1.00
H71    H     0.65801   0.16710   0.11337   0.00000  Uiso   1.00
H72    H     0.59567   0.25422   0.19300   0.00000  Uiso   1.00
H73    H     0.62842   0.29816   0.17345   0.00000  Uiso   1.00
H74    H     0.61472   0.29597   0.23185   0.00000  Uiso   1.00
H75    H     0.40842   0.26496   0.10748   0.00000  Uiso   1.00
H76    H     0.39459   0.26486   0.16558   0.00000  Uiso   1.00
H77    H     0.36717   0.30369   0.12575   0.00000  Uiso   1.00
H78    H     0.60540   0.06848   0.16775   0.00000  Uiso   1.00
H79    H     0.59159   0.06837   0.22586   0.00000  Uiso   1.00
H80    H     0.63284   0.02965   0.20756   0.00000  Uiso   1.00
H81    H     0.34199   0.16624   0.21996   0.00000  Uiso   1.00
H82    H     0.56031   0.21257   0.04983   0.00000  Uiso   1.00
H83    H     0.43969   0.12076   0.28350   0.00000  Uiso   1.00
H84    H     0.56027   0.21257   0.29903   0.00000  Uiso   1.00
H85    H     0.43973   0.12077   0.03430   0.00000  Uiso   1.00
H86    H     0.40432   0.07911   0.14037   0.00000  Uiso   1.00
H87    H     0.38529   0.03738   0.10148   0.00000  Uiso   1.00
H88    H     0.37157   0.03516   0.15987   0.00000  Uiso   1.00
N89    N     0.49999   0.16666   0.28573   0.00000  Uiso   1.00
N90    N     0.50001   0.16668   0.04760   0.00000  Uiso   1.00
O91    O     0.50000   0.10558   0.20487   0.00000  Uiso   1.00
O92    O     0.50000   0.22775   0.12846   0.00000  Uiso   1.00
O93    O     0.50000   0.10559   0.12843   0.00000  Uiso   1.00
O94    O     0.50000   0.22774   0.20490   0.00000  Uiso   1.00
O95    O     0.42392   0.16666   0.19595   0.00000  Uiso   1.00
O96    O     0.57608   0.16667   0.13739   0.00000  Uiso   1.00
O97    O     0.42392   0.16667   0.11950   0.00000  Uiso   1.00
O98    O     0.57608   0.16666   0.21383   0.00000  Uiso   1.00
Zn99   Zn    0.50000   0.16666   0.21771   0.00000  Uiso   1.00
Zn100  Zn    0.50000   0.16667   0.11563   0.00000  Uiso   1.00
C101   C     0.83310   0.08687   0.16668   0.00000  Uiso   1.00
C102   C     0.88087   0.02238   0.18144   0.00000  Uiso   1.00
C103   C     0.83378   0.29066   0.16651   0.00000  Uiso   1.00
C104   C     0.83289   0.04267   0.16682   0.00000  Uiso   1.00
C105   C     0.86683   0.19217   0.02827   0.00000  Uiso   1.00
C106   C     0.79984   0.14117   0.30506   0.00000  Uiso   1.00
C107   C     0.86681   0.19216   0.31369   0.00000  Uiso   1.00
C108   C     0.79985   0.14118   0.01964   0.00000  Uiso   1.00
C109   C     0.73408   0.04465   0.13771   0.00000  Uiso   1.00
C110   C     0.93259   0.28869   0.19563   0.00000  Uiso   1.00
C111   C     0.73618   0.28510   0.13687   0.00000  Uiso   1.00
C112   C     0.83357   0.24647   0.16665   0.00000  Uiso   1.00
C113   C     0.93049   0.04824   0.19646   0.00000  Uiso   1.00
C114   C     0.73371   0.16686   0.15470   0.00000  Uiso   1.00
C115   C     0.93295   0.16647   0.17864   0.00000  Uiso   1.00
C116   C     0.67865   0.16685   0.14827   0.00000  Uiso   1.00
C117   C     0.98801   0.16649   0.18506   0.00000  Uiso   1.00
C118   C     0.78522   0.02133   0.15220   0.00000  Uiso   1.00
C119   C     0.88145   0.31201   0.18113   0.00000  Uiso   1.00
C120   C     0.78580   0.31096   0.15190   0.00000  Uiso   1.00
H121   H     0.99134   0.16710   0.11337   0.00000  Uiso   1.00
H122   H     0.92901   0.25422   0.19300   0.00000  Uiso   1.00
H123   H     0.96175   0.29816   0.17345   0.00000  Uiso   1.00
H124   H     0.94805   0.29597   0.23185   0.00000  Uiso   1.00
H125   H     0.74176   0.26496   0.10748   0.00000  Uiso   1.00
H126   H     0.72793   0.26486   0.16558   0.00000  Uiso   1.00
H127   H     0.70050   0.30369   0.12575   0.00000  Uiso   1.00
H128   H     0.93874   0.06848   0.16775   0.00000  Uiso   1.00
H129   H     0.92492   0.06837   0.22586   0.00000  Uiso   1.00
H130   H     0.96617   0.02965   0.20756   0.00000  Uiso   1.00
H131   H     0.67533   0.16624   0.21996   0.00000  Uiso   1.00
H132   H     0.89364   0.21257   0.04983   0.00000  Uiso   1.00
H133   H     0.77302   0.12076   0.28350   0.00000  Uiso   1.00
H134   H     0.89360   0.21257   0.29903   0.00000  Uiso   1.00
H135   H     0.77307   0.12077   0.03430   0.00000  Uiso   1.00
H136   H     0.73765   0.07911   0.14037   0.00000  Uiso   1.00
H137   H     0.71863   0.03738   0.10148   0.00000  Uiso   1.00
H138   H     0.70491   0.03516   0.15987   0.00000  Uiso   1.00
N139   N     0.83332   0.16666   0.28573   0.00000  Uiso   1.00
N140   N     0.83335   0.16668   0.04760   0.00000  Uiso   1.00
O141   O     0.83333   0.10558   0.20487   0.00000  Uiso   1.00
O142   O     0.83334   0.22775   0.12846   0.00000  Uiso   1.00
O143   O     0.83333   0.10559   0.12843   0.00000  Uiso   1.00
O144   O     0.83334   0.22774   0.20490   0.00000  Uiso   1.00
O145   O     0.75725   0.16666   0.19595   0.00000  Uiso   1.00
O146   O     0.90942   0.16667   0.13739   0.00000  Uiso   1.00
O147   O     0.75725   0.16667   0.11950   0.00000  Uiso   1.00
O148   O     0.90942   0.16666   0.21383   0.00000  Uiso   1.00
Zn149  Zn    0.83333   0.16666   0.21771   0.00000  Uiso   1.00
Zn150  Zn    0.83333   0.16667   0.11563   0.00000  Uiso   1.00
C151   C     0.16643   0.42020   0.16668   0.00000  Uiso   1.00
C152   C     0.21421   0.35571   0.18144   0.00000  Uiso   1.00
C153   C     0.16711   0.62400   0.16651   0.00000  Uiso   1.00
C154   C     0.16622   0.37601   0.16682   0.00000  Uiso   1.00
C155   C     0.20016   0.52550   0.02827   0.00000  Uiso   1.00
C156   C     0.13317   0.47450   0.30506   0.00000  Uiso   1.00
C157   C     0.20015   0.52549   0.31369   0.00000  Uiso   1.00
C158   C     0.13319   0.47451   0.01964   0.00000  Uiso   1.00
C159   C     0.06741   0.37798   0.13771   0.00000  Uiso   1.00
C160   C     0.26592   0.62202   0.19563   0.00000  Uiso   1.00
C161   C     0.06952   0.61843   0.13687   0.00000  Uiso   1.00
C162   C     0.16690   0.57980   0.16665   0.00000  Uiso   1.00
C163   C     0.26382   0.38157   0.19646   0.00000  Uiso   1.00
C164   C     0.06705   0.50020   0.15470   0.00000  Uiso   1.00
C165   C     0.26628   0.49980   0.17864   0.00000  Uiso   1.00
C166   C     0.01199   0.50018   0.14827   0.00000  Uiso   1.00
C167   C     0.32135   0.49982   0.18506   0.00000  Uiso   1.00
C168   C     0.11855   0.35466   0.15220   0.00000  Uiso   1.00
C169   C     0.21478   0.64534   0.18113   0.00000  Uiso   1.00
C170   C     0.11913   0.64429   0.15190   0.00000  Uiso   1.00
H171   H     0.32467   0.50043   0.11337   0.00000  Uiso   1.00
H172   H     0.26234   0.58755   0.19300   0.00000  Uiso   1.00
H173   H     0.29508   0.63149   0.17345   0.00000  Uiso   1.00
H174   H     0.28139   0.62930   0.23185   0.00000  Uiso   1.00
H175   H     0.07509   0.59830   0.10748   0.00000  Uiso   1.00
H176   H     0.06126   0.59819   0.16558   0.00000  Uiso   1.00
H177   H     0.03383   0.63702   0.12575   0.00000  Uiso   1.00
H178   H     0.27207   0.40181   0.16775   0.00000  Uiso   1.00
H179   H     0.25825   0.40170   0.22586   0.00000  Uiso   1.00
H180   H     0.29951   0.36298   0.20756   0.00000  Uiso   1.00
H181   H     0.00866   0.49957   0.21996   0.00000  Uiso   1.00
H182   H     0.22698   0.54590   0.04983   0.00000  Uiso   1.00
H183   H     0.10636   0.45410   0.28350   0.00000  Uiso   1.00
H184   H     0.22693   0.54590   0.29903   0.00000  Uiso   1.00
H185   H     0.10640   0.45410   0.03430   0.00000  Uiso   1.00
H186   H     0.07099   0.41245   0.14037   0.00000  Uiso   1.00
H187   H     0.05196   0.37071   0.10148   0.00000  Uiso   1.00
H188   H     0.03824   0.36849   0.15987   0.00000  Uiso   1.00
N189   N     0.16665   0.49999   0.28573   0.00000  Uiso   1.00
N190   N     0.16668   0.50001   0.04760   0.00000  Uiso   1.00
O191   O     0.16666   0.43892   0.20487   0.00000  Uiso   1.00
O192   O     0.16667   0.56108   0.12846   0.00000  Uiso   1.00
O193   O     0.16666   0.43893   0.12843   0.00000  Uiso   1.00
O194   O     0.16667   0.56107   0.20490   0.00000  Uiso   1.00
O195   O     0.09058   0.50000   0.19595   0.00000  Uiso   1.00
O196   O     0.24275   0.50000   0.13739   0.00000  Uiso   1.00
O197   O     0.09058   0.50000   0.11950   0.00000  Uiso   1.00
O198   O     0.24275   0.50000   0.21383   0.00000  Uiso   1.00
Zn199  Zn    0.16667   0.49999   0.21771   0.00000  Uiso   1.00
Zn200  Zn    0.16667   0.50001   0.11563   0.00000  Uiso   1.00
C201   C     0.49977   0.42020   0.16668   0.00000  Uiso   1.00
C202   C     0.54754   0.35571   0.18144   0.00000  Uiso   1.00
C203   C     0.50044   0.62400   0.16651   0.00000  Uiso   1.00
C204   C     0.49956   0.37601   0.16682   0.00000  Uiso   1.00
C205   C     0.53350   0.52550   0.02827   0.00000  Uiso   1.00
C206   C     0.46650   0.47450   0.30506   0.00000  Uiso   1.00
C207   C     0.53348   0.52549   0.31369   0.00000  Uiso   1.00
C208   C     0.46652   0.47451   0.01964   0.00000  Uiso   1.00
C209   C     0.40074   0.37798   0.13771   0.00000  Uiso   1.00
C210   C     0.59926   0.62202   0.19563   0.00000  Uiso   1.00
C211   C     0.40285   0.61843   0.13687   0.00000  Uiso   1.00
C212   C     0.50023   0.57980   0.16665   0.00000  Uiso   1.00
C213   C     0.59715   0.38157   0.19646   0.00000  Uiso   1.00
C214   C     0.40038   0.50020   0.15470   0.00000  Uiso   1.00
C215   C     0.59962   0.49980   0.17864   0.00000  Uiso   1.00
C216   C     0.34532   0.50018   0.14827   0.00000  Uiso   1.00
C217   C     0.65468   0.49982   0.18506   0.00000  Uiso   1.00
C218   C     0.45189   0.35466   0.15220   0.00000  Uiso   1.00
C219   C     0.54811   0.64534   0.18113   0.00000  Uiso   1.00
C220   C     0.45246   0.64429   0.15190   0.00000  Uiso   1.00
H221   H     0.65801   0.50043   0.11337   0.00000  Uiso   1.00
H222   H     0.59567   0.58755   0.19300   0.00000  Uiso   1.00
H223   H     0.62842   0.63149   0.17345   0.00000  Uiso   1.00
H224   H     0.61472   0.62930   0.23185   0.00000  Uiso   1.00
H225   H     0.40842   0.59830   0.10748   0.00000  Uiso   1.00
H226   H     0.39459   0.59819   0.16558   0.00000  Uiso   1.00
H227   H     0.36717   0.63702   0.12575   0.00000  Uiso   1.00
H228   H     0.60540   0.40181   0.16775   0.00000  Uiso   1.00
H229   H     0.59159   0.40170   0.22586   0.00000  Uiso   1.00
H230   H     0.63284   0.36298   0.20756   0.00000  Uiso   1.00
H231   H     0.34199   0.49957   0.21996   0.00000  Uiso   1.00
H232   H     0.56031   0.54590   0.04983   0.00000  Uiso   1.00
H233   H     0.43969   0.45410   0.28350   0.00000  Uiso   1.00
H234   H     0.56027   0.54590   0.29903   0.00000  Uiso   1.00
H235   H     0.43973   0.45410   0.03430   0.00000  Uiso   1.00
H236   H     0.40432   0.41245   0.14037   0.00000  Uiso   1.00
H237   H     0.38529   0.37071   0.10148   0.00000  Uiso   1.00
H238   H     0.37157   0.36849   0.15987   0.00000  Uiso   1.00
N239   N     0.49999   0.49999   0.28573   0.00000  Uiso   1.00
N240   N     0.50001   0.50001   0.04760   0.00000  Uiso   1.00
O241   O     0.50000   0.43892   0.20487   0.00000  Uiso   1.00
O242   O     0.50000   0.56108   0.12846   0.00000  Uiso   1.00
O243   O     0.50000   0.43893   0.12843   0.00000  Uiso   1.00
O244   O     0.50000   0.56107   0.20490   0.00000  Uiso   1.00
O245   O     0.42392   0.50000   0.19595   0.00000  Uiso   1.00
O246   O     0.57608   0.50000   0.13739   0.00000  Uiso   1.00
O247   O     0.42392   0.50000   0.11950   0.00000  Uiso   1.00
O248   O     0.57608   0.50000   0.21383   0.00000  Uiso   1.00
Zn249  Zn    0.50000   0.49999   0.21771   0.00000  Uiso   1.00
Zn250  Zn    0.50000   0.50001   0.11563   0.00000  Uiso   1.00
C251   C     0.83310   0.42020   0.16668   0.00000  Uiso   1.00
C252   C     0.88087   0.35571   0.18144   0.00000  Uiso   1.00
C253   C     0.83378   0.62400   0.16651   0.00000  Uiso   1.00
C254   C     0.83289   0.37601   0.16682   0.00000  Uiso   1.00
C255   C     0.86683   0.52550   0.02827   0.00000  Uiso   1.00
C256   C     0.79984   0.47450   0.30506   0.00000  Uiso   1.00
C257   C     0.86681   0.52549   0.31369   0.00000  Uiso   1.00
C258   C     0.79985   0.47451   0.01964   0.00000  Uiso   1.00
C259   C     0.73408   0.37798   0.13771   0.00000  Uiso   1.00
C260   C     0.93259   0.62202   0.19563   0.00000  Uiso   1.00
C261   C     0.73618   0.61843   0.13687   0.00000  Uiso   1.00
C262   C     0.83357   0.57980   0.16665   0.00000  Uiso   1.00
C263   C     0.93049   0.38157   0.19646   0.00000  Uiso   1.00
C264   C     0.73371   0.50020   0.15470   0.00000  Uiso   1.00
C265   C     0.93295   0.49980   0.17864   0.00000  Uiso   1.00
C266   C     0.67865   0.50018   0.14827   0.00000  Uiso   1.00
C267   C     0.98801   0.49982   0.18506   0.00000  Uiso   1.00
C268   C     0.78522   0.35466   0.15220   0.00000  Uiso   1.00
C269   C     0.88145   0.64534   0.18113   0.00000  Uiso   1.00
C270   C     0.78580   0.64429   0.15190   0.00000  Uiso   1.00
H271   H     0.99134   0.50043   0.11337   0.00000  Uiso   1.00
H272   H     0.92901   0.58755   0.19300   0.00000  Uiso   1.00
H273   H     0.96175   0.63149   0.17345   0.00000  Uiso   1.00
H274   H     0.94805   0.62930   0.23185   0.00000  Uiso   1.00
H275   H     0.74176   0.59830   0.10748   0.00000  Uiso   1.00
H276   H     0.72793   0.59819   0.16558   0.00000  Uiso   1.00
H277   H     0.70050   0.63702   0.12575   0.00000  Uiso   1.00
H278   H     0.93874   0.40181   0.16775   0.00000  Uiso   1.00
H279   H     0.92492   0.40170   0.22586   0.00000  Uiso   1.00
H280   H     0.96617   0.36298   0.20756   0.00000  Uiso   1.00
H281   H     0.67533   0.49957   0.21996   0.00000  Uiso   1.00
H282   H     0.89364   0.54590   0.04983   0.00000  Uiso   1.00
H283   H     0.77302   0.45410   0.28350   0.00000  Uiso   1.00
H284   H     0.89360   0.54590   0.29903   0.00000  Uiso   1.00
H285   H     0.77307   0.45410   0.03430   0.00000  Uiso   1.00
H286   H     0.73765   0.41245   0.14037   0.00000  Uiso   1.00
H287   H     0.71863   0.37071   0.10148   0.00000  Uiso   1.00
H288   H     0.70491   0.36849   0.15987   0.00000  Uiso   1.00
N289   N     0.83332   0.49999   0.28573   0.00000  Uiso   1.00
N290   N     0.83335   0.50001   0.04760   0.00000  Uiso   1.00
O291   O     0.83333   0.43892   0.20487   0.00000  Uiso   1.00
O292   O     0.83334   0.56108   0.12846   0.00000  Uiso   1.00
O293   O     0.83333   0.43893   0.12843   0.00000  Uiso   1.00
O294   O     0.83334   0.56107   0.20490   0.00000  Uiso   1.00
O295   O     0.75725   0.50000   0.19595   0.00000  Uiso   1.00
O296   O     0.90942   0.50000   0.13739   0.00000  Uiso   1.00
O297   O     0.75725   0.50000   0.11950   0.00000  Uiso   1.00
O298   O     0.90942   0.50000   0.21383   0.00000  Uiso   1.00
Zn299  Zn    0.83333   0.49999   0.21771   0.00000  Uiso   1.00
Zn300  Zn    0.83333   0.50001   0.11563   0.00000  Uiso   1.00
C301   C     0.16643   0.75353   0.16668   0.00000  Uiso   1.00
C302   C     0.21421   0.68904   0.18144   0.00000  Uiso   1.00
C303   C     0.16711   0.95733   0.16651   0.00000  Uiso   1.00
C304   C     0.16622   0.70934   0.16682   0.00000  Uiso   1.00
C305   C     0.20016   0.85883   0.02827   0.00000  Uiso   1.00
C306   C     0.13317   0.80783   0.30506   0.00000  Uiso   1.00
C307   C     0.20015   0.85882   0.31369   0.00000  Uiso   1.00
C308   C     0.13319   0.80784   0.01964   0.00000  Uiso   1.00
C309   C     0.06741   0.71131   0.13771   0.00000  Uiso   1.00
C310   C     0.26592   0.95536   0.19563   0.00000  Uiso   1.00
C311   C     0.06952   0.95176   0.13687   0.00000  Uiso   1.00
C312   C     0.16690   0.91313   0.16665   0.00000  Uiso   1.00
C313   C     0.26382   0.71490   0.19646   0.00000  Uiso   1.00
C314   C     0.06705   0.83353   0.15470   0.00000  Uiso   1.00
C315   C     0.26628   0.83314   0.17864   0.00000  Uiso   1.00
C316   C     0.01199   0.83351   0.14827   0.00000  Uiso   1.00
C317   C     0.32135   0.83315   0.18506   0.00000  Uiso   1.00
C318   C     0.11855   0.68799   0.15220   0.00000  Uiso   1.00
C319   C     0.21478   0.97867   0.18113   0.00000  Uiso   1.00
C320   C     0.11913   0.97763   0.15190   0.00000  Uiso   1.00
H321   H     0.32467   0.83376   0.11337   0.00000  Uiso   1.00
H322   H     0.26234   0.92088   0.19300   0.00000  Uiso   1.00
H323   H     0.29508   0.96483   0.17345   0.00000  Uiso   1.00
H324   H     0.28139   0.96264   0.23185   0.00000  Uiso   1.00
H325   H     0.07509   0.93163   0.10748   0.00000  Uiso   1.00
H326   H     0.06126   0.93153   0.16558   0.00000  Uiso   1.00
H327   H     0.03383   0.97035   0.12575   0.00000  Uiso   1.00
H328   H     0.27207   0.73515   0.16775   0.00000  Uiso   1.00
H329   H     0.25825   0.73503   0.22586   0.00000  Uiso   1.00
H330   H     0.29951   0.69632   0.20756   0.00000  Uiso   1.00
H331   H     0.00866   0.83290   0.21996   0.00000  Uiso   1.00
H332   H     0.22698   0.87924   0.04983   0.00000  Uiso   1.00
H333   H     0.10636   0.78743   0.28350   0.00000  Uiso   1.00
H334   H     0.22693   0.87923   0.29903   0.00000  Uiso   1.00
H335   H     0.10640   0.78744   0.03430   0.00000  Uiso   1.00
H336   H     0.07099   0.74578   0.14037   0.00000  Uiso   1.00
H337   H     0.05196   0.70405   0.10148   0.00000  Uiso   1.00
H338   H     0.03824   0.70183   0.15987   0.00000  Uiso   1.00
N339   N     0.16665   0.83332   0.28573   0.00000  Uiso   1.00
N340   N     0.16668   0.83334   0.04760   0.00000  Uiso   1.00
O341   O     0.16666   0.77225   0.20487   0.00000  Uiso   1.00
O342   O     0.16667   0.89442   0.12846   0.00000  Uiso   1.00
O343   O     0.16666   0.77226   0.12843   0.00000  Uiso   1.00
O344   O     0.16667   0.89441   0.20490   0.00000  Uiso   1.00
O345   O     0.09058   0.83333   0.19595   0.00000  Uiso   1.00
O346   O     0.24275   0.83334   0.13739   0.00000  Uiso   1.00
O347   O     0.09058   0.83334   0.11950   0.00000  Uiso   1.00
O348   O     0.24275   0.83333   0.21383   0.00000  Uiso   1.00
Zn349  Zn    0.16667   0.83333   0.21771   0.00000  Uiso   1.00
Zn350  Zn    0.16667   0.83334   0.11563   0.00000  Uiso   1.00
C351   C     0.49977   0.75353   0.16668   0.00000  Uiso   1.00
C352   C     0.54754   0.68904   0.18144   0.00000  Uiso   1.00
C353   C     0.50044   0.95733   0.16651   0.00000  Uiso   1.00
C354   C     0.49956   0.70934   0.16682   0.00000  Uiso   1.00
C355   C     0.53350   0.85883   0.02827   0.00000  Uiso   1.00
C356   C     0.46650   0.80783   0.30506   0.00000  Uiso   1.00
C357   C     0.53348   0.85882   0.31369   0.00000  Uiso   1.00
C358   C     0.46652   0.80784   0.01964   0.00000  Uiso   1.00
C359   C     0.40074   0.71131   0.13771   0.00000  Uiso   1.00
C360   C     0.59926   0.95536   0.19563   0.00000  Uiso   1.00
C361   C     0.40285   0.95176   0.13687   0.00000  Uiso   1.00
C362   C     0.50023   0.91313   0.16665   0.00000  Uiso   1.00
C363   C     0.59715   0.71490   0.19646   0.00000  Uiso   1.00
C364   C     0.40038   0.83353   0.15470   0.00000  Uiso   1.00
C365   C     0.59962   0.83314   0.17864   0.00000  Uiso   1.00
C366   C     0.34532   0.83351   0.14827   0.00000  Uiso   1.00
C367   C     0.65468   0.83315   0.18506   0.00000  Uiso   1.00
C368   C     0.45189   0.68799   0.15220   0.00000  Uiso   1.00
C369   C     0.54811   0.97867   0.18113   0.00000  Uiso   1.00
C370   C     0.45246   0.97763   0.15190   0.00000  Uiso   1.00
H371   H     0.65801   0.83376   0.11337   0.00000  Uiso   1.00
H372   H     0.59567   0.92088   0.19300   0.00000  Uiso   1.00
H373   H     0.62842   0.96483   0.17345   0.00000  Uiso   1.00
H374   H     0.61472   0.96264   0.23185   0.00000  Uiso   1.00
H375   H     0.40842   0.93163   0.10748   0.00000  Uiso   1.00
H376   H     0.39459   0.93153   0.16558   0.00000  Uiso   1.00
H377   H     0.36717   0.97035   0.12575   0.00000  Uiso   1.00
H378   H     0.60540   0.73515   0.16775   0.00000  Uiso   1.00
H379   H     0.59159   0.73503   0.22586   0.00000  Uiso   1.00
H380   H     0.63284   0.69632   0.20756   0.00000  Uiso   1.00
H381   H     0.34199   0.83290   0.21996   0.00000  Uiso   1.00
H382   H     0.56031   0.87924   0.04983   0.00000  Uiso   1.00
H383   H     0.43969   0.78743   0.28350   0.00000  Uiso   1.00
H384   H     0.56027   0.87923   0.29903   0.00000  Uiso   1.00
H385   H     0.43973   0.78744   0.03430   0.00000  Uiso   1.00
H386   H     0.40432   0.74578   0.14037   0.00000  Uiso   1.00
H387   H     0.38529   0.70405   0.10148   0.00000  Uiso   1.00
H388   H     0.37157   0.70183   0.15987   0.00000  Uiso   1.00
N389   N     0.49999   0.83332   0.28573   0.00000  Uiso   1.00
N390   N     0.50001   0.83334   0.04760   0.00000  Uiso   1.00
O391   O     0.50000   0.77225   0.20487   0.00000  Uiso   1.00
O392   O     0.50000   0.89442   0.12846   0.00000  Uiso   1.00
O393   O     0.50000   0.77226   0.12843   0.00000  Uiso   1.00
O394   O     0.50000   0.89441   0.20490   0.00000  Uiso   1.00
O395   O     0.42392   0.83333   0.19595   0.00000  Uiso   1.00
O396   O     0.57608   0.83334   0.13739   0.00000  Uiso   1.00
O397   O     0.42392   0.83334   0.11950   0.00000  Uiso   1.00
O398   O     0.57608   0.83333   0.21383   0.00000  Uiso   1.00
Zn399  Zn    0.50000   0.83333   0.21771   0.00000  Uiso   1.00
Zn400  Zn    0.50000   0.83334   0.11563   0.00000  Uiso   1.00
C401   C     0.83310   0.75353   0.16668   0.00000  Uiso   1.00
C402   C     0.88087   0.68904   0.18144   0.00000  Uiso   1.00
C403   C     0.83378   0.95733   0.16651   0.00000  Uiso   1.00
C404   C     0.83289   0.70934   0.16682   0.00000  Uiso   1.00
C405   C     0.86683   0.85883   0.02827   0.00000  Uiso   1.00
C406   C     0.79984   0.80783   0.30506   0.00000  Uiso   1.00
C407   C     0.86681   0.85882   0.31369   0.00000  Uiso   1.00
C408   C     0.79985   0.80784   0.01964   0.00000  Uiso   1.00
C409   C     0.73408   0.71131   0.13771   0.00000  Uiso   1.00
C410   C     0.93259   0.95536   0.19563   0.00000  Uiso   1.00
C411   C     0.73618   0.95176   0.13687   0.00000  Uiso   1.00
C412   C     0.83357   0.91313   0.16665   0.00000  Uiso   1.00
C413   C     0.93049   0.71490   0.19646   0.00000  Uiso   1.00
C414   C     0.73371   0.83353   0.15470   0.00000  Uiso   1.00
C415   C     0.93295   0.83314   0.17864   0.00000  Uiso   1.00
C416   C     0.67865   0.83351   0.14827   0.00000  Uiso   1.00
C417   C     0.98801   0.83315   0.18506   0.00000  Uiso   1.00
C418   C     0.78522   0.68799   0.15220   0.00000  Uiso   1.00
C419   C     0.88145   0.97867   0.18113   0.00000  Uiso   1.00
C420   C     0.78580   0.97763   0.15190   0.00000  Uiso   1.00
H421   H     0.99134   0.83376   0.11337   0.00000  Uiso   1.00
H422   H     0.92901   0.92088   0.19300   0.00000  Uiso   1.00
H423   H     0.96175   0.96483   0.17345   0.00000  Uiso   1.00
H424   H     0.94805   0.96264   0.23185   0.00000  Uiso   1.00
H425   H     0.74176   0.93163   0.10748   0.00000  Uiso   1.00
H426   H     0.72793   0.93153   0.16558   0.00000  Uiso   1.00
H427   H     0.70050   0.97035   0.12575   0.00000  Uiso   1.00
H428   H     0.93874   0.73515   0.16775   0.00000  Uiso   1.00
H429   H     0.92492   0.73503   0.22586   0.00000  Uiso   1.00
H430   H     0.96617   0.69632   0.20756   0.00000  Uiso   1.00
H431   H     0.67533   0.83290   0.21996   0.00000  Uiso   1.00
H432   H     0.89364   0.87924   0.04983   0.00000  Uiso   1.00
H433   H     0.77302   0.78743   0.28350   0.00000  Uiso   1.00
H434   H     0.89360   0.87923   0.29903   0.00000  Uiso   1.00
H435   H     0.77307   0.78744   0.03430   0.00000  Uiso   1.00
H436   H     0.73765   0.74578   0.14037   0.00000  Uiso   1.00
H437   H     0.71863   0.70405   0.10148   0.00000  Uiso   1.00
H438   H     0.70491   0.70183   0.15987   0.00000  Uiso   1.00
N439   N     0.83332   0.83332   0.28573   0.00000  Uiso   1.00
N440   N     0.83335   0.83334   0.04760   0.00000  Uiso   1.00
O441   O     0.83333   0.77225   0.20487   0.00000  Uiso   1.00
O442   O     0.83334   0.89442   0.12846   0.00000  Uiso   1.00
O443   O     0.83333   0.77226   0.12843   0.00000  Uiso   1.00
O444   O     0.83334   0.89441   0.20490   0.00000  Uiso   1.00
O445   O     0.75725   0.83333   0.19595   0.00000  Uiso   1.00
O446   O     0.90942   0.83334   0.13739   0.00000  Uiso   1.00
O447   O     0.75725   0.83334   0.11950   0.00000  Uiso   1.00
O448   O     0.90942   0.83333   0.21383   0.00000  Uiso   1.00
Zn449  Zn    0.83333   0.83333   0.21771   0.00000  Uiso   1.00
Zn450  Zn    0.83333   0.83334   0.11563   0.00000  Uiso   1.00
C451   C     0.16643   0.08687   0.50001   0.00000  Uiso   1.00
C452   C     0.21421   0.02238   0.51477   0.00000  Uiso   1.00
C453   C     0.16711   0.29066   0.49985   0.00000  Uiso   1.00
C454   C     0.16622   0.04267   0.50015   0.00000  Uiso   1.00
C455   C     0.20016   0.19217   0.36161   0.00000  Uiso   1.00
C456   C     0.13317   0.14117   0.63839   0.00000  Uiso   1.00
C457   C     0.20015   0.19216   0.64702   0.00000  Uiso   1.00
C458   C     0.13319   0.14118   0.35298   0.00000  Uiso   1.00
C459   C     0.06741   0.04465   0.47104   0.00000  Uiso   1.00
C460   C     0.26592   0.28869   0.52896   0.00000  Uiso   1.00
C461   C     0.06952   0.28510   0.47021   0.00000  Uiso   1.00
C462   C     0.16690   0.24647   0.49999   0.00000  Uiso   1.00
C463   C     0.26382   0.04824   0.52979   0.00000  Uiso   1.00
C464   C     0.06705   0.16686   0.48803   0.00000  Uiso   1.00
C465   C     0.26628   0.16647   0.51197   0.00000  Uiso   1.00
C466   C     0.01199   0.16685   0.48160   0.00000  Uiso   1.00
C467   C     0.32135   0.16649   0.51840   0.00000  Uiso   1.00
C468   C     0.11855   0.02133   0.48553   0.00000  Uiso   1.00
C469   C     0.21478   0.31201   0.51447   0.00000  Uiso   1.00
C470   C     0.11913   0.31096   0.48523   0.00000  Uiso   1.00
H471   H     0.32467   0.16710   0.44671   0.00000  Uiso   1.00
H472   H     0.26234   0.25422   0.52633   0.00000  Uiso   1.00
H473   H     0.29508   0.29816   0.50678   0.00000  Uiso   1.00
H474   H     0.28139   0.29597   0.56519   0.00000  Uiso   1.00
H475   H     0.07509   0.26496   0.44081   0.00000  Uiso   1.00
H476   H     0.06126   0.26486   0.49891   0.00000  Uiso   1.00
H477   H     0.03383   0.30369   0.45909   0.00000  Uiso   1.00
H478   H     0.27207   0.06848   0.50109   0.00000  Uiso   1.00
H479   H     0.25825   0.06837   0.55919   0.00000  Uiso   1.00
H480   H     0.29951   0.02965   0.54089   0.00000  Uiso   1.00
H481   H     0.00866   0.16624   0.55329   0.00000  Uiso   1.00
H482   H     0.22698   0.21257   0.38317   0.00000  Uiso   1.00
H483   H     0.10636   0.12076   0.61683   0.00000  Uiso   1.00
H484   H     0.22693   0.21257   0.63236   0.00000  Uiso   1.00
H485   H     0.10640   0.12077   0.36764   0.00000  Uiso   1.00
H486   H     0.07099   0.07911   0.47370   0.00000  Uiso   1.00
H487   H     0.05196   0.03738   0.43481   0.00000  Uiso   1.00
H488   H     0.03824   0.03516   0.49321   0.00000  Uiso   1.00
N489   N     0.16665   0.16666   0.61907   0.00000  Uiso   1.00
N490   N     0.16668   0.16668   0.38093   0.00000  Uiso   1.00
O491   O     0.16666   0.10558   0.53821   0.00000  Uiso   1.00
O492   O     0.16667   0.22775   0.46179   0.00000  Uiso   1.00
O493   O     0.16666   0.10559   0.46176   0.00000  Uiso   1.00
O494   O     0.16667   0.22774   0.53824   0.00000  Uiso   1.00
O495   O     0.09058   0.16666   0.52928   0.00000  Uiso   1.00
O496   O     0.24275   0.16667   0.47072   0.00000  Uiso   1.00
O497   O     0.09058   0.16667   0.45284   0.00000  Uiso   1.00
O498   O     0.24275   0.16666   0.54716   0.00000  Uiso   1.00
Zn499  Zn    0.16667   0.16666   0.55104   0.00000  Uiso   1.00
Zn500  Zn    0.16667   0.16667   0.44896   0.00000  Uiso   1.00
C501   C     0.49977   0.08687   0.50001   0.00000  Uiso   1.00
C502   C     0.54754   0.02238   0.51477   0.00000  Uiso   1.00
C503   C     0.50044   0.29066   0.49985   0.00000  Uiso   1.00
C504   C     0.49956   0.04267   0.50015   0.00000  Uiso   1.00
C505   C     0.53350   0.19217   0.36161   0.00000  Uiso   1.00
C506   C     0.46650   0.14117   0.63839   0.00000  Uiso   1.00
C507   C     0.53348   0.19216   0.64702   0.00000  Uiso   1.00
C508   C     0.46652   0.14118   0.35298   0.00000  Uiso   1.00
C509   C     0.40074   0.04465   0.47104   0.00000  Uiso   1.00
C510   C     0.59926   0.28869   0.52896   0.00000  Uiso   1.00
C511   C     0.40285   0.28510   0.47021   0.00000  Uiso   1.00
C512   C     0.50023   0.24647   0.49999   0.00000  Uiso   1.00
C513   C     0.59715   0.04824   0.52979   0.00000  Uiso   1.00
C514   C     0.40038   0.16686   0.48803   0.00000  Uiso   1.00
C515   C     0.59962   0.16647   0.51197   0.00000  Uiso   1.00
C516   C     0.34532   0.16685   0.48160   0.00000  Uiso   1.00
C517   C     0.65468   0.16649   0.51840   0.00000  Uiso   1.00
C518   C     0.45189   0.02133   0.48553   0.00000  Uiso   1.00
C519   C     0.54811   0.31201   0.51447   0.00000  Uiso   1.00
C520   C     0.45246   0.31096   0.48523   0.00000  Uiso   1.00
H521   H     0.65801   0.16710   0.44671   0.00000  Uiso   1.00
H522   H     0.59567   0.25422   0.52633   0.00000  Uiso   1.00
H523   H     0.62842   0.29816   0.50678   0.00000  Uiso   1.00
H524   H     0.61472   0.29597   0.56519   0.00000  Uiso   1.00
H525   H     0.40842   0.26496   0.44081   0.00000  Uiso   1.00
H526   H     0.39459   0.26486   0.49891   0.00000  Uiso   1.00
H527   H     0.36717   0.30369   0.45909   0.00000  Uiso   1.00
H528   H     0.60540   0.06848   0.50109   0.00000  Uiso   1.00
H529   H     0.59159   0.06837   0.55919   0.00000  Uiso   1.00
H530   H     0.63284   0.02965   0.54089   0.00000  Uiso   1.00
H531   H     0.34199   0.16624   0.55329   0.00000  Uiso   1.00
H532   H     0.56031   0.21257   0.38317   0.00000  Uiso   1.00
H533   H     0.43969   0.12076   0.61683   0.00000  Uiso   1.00
H534   H     0.56027   0.21257   0.63236   0.00000  Uiso   1.00
H535   H     0.43973   0.12077   0.36764   0.00000  Uiso   1.00
H536   H     0.40432   0.07911   0.47370   0.00000  Uiso   1.00
H537   H     0.38529   0.03738   0.43481   0.00000  Uiso   1.00
H538   H     0.37157   0.03516   0.49321   0.00000  Uiso   1.00
N539   N     0.49999   0.16666   0.61907   0.00000  Uiso   1.00
N540   N     0.50001   0.16668   0.38093   0.00000  Uiso   1.00
O541   O     0.50000   0.10558   0.53821   0.00000  Uiso   1.00
O542   O     0.50000   0.22775   0.46179   0.00000  Uiso   1.00
O543   O     0.50000   0.10559   0.46176   0.00000  Uiso   1.00
O544   O     0.50000   0.22774   0.53824   0.00000  Uiso   1.00
O545   O     0.42392   0.16666   0.52928   0.00000  Uiso   1.00
O546   O     0.57608   0.16667   0.47072   0.00000  Uiso   1.00
O547   O     0.42392   0.16667   0.45284   0.00000  Uiso   1.00
O548   O     0.57608   0.16666   0.54716   0.00000  Uiso   1.00
Zn549  Zn    0.50000   0.16666   0.55104   0.00000  Uiso   1.00
Zn550  Zn    0.50000   0.16667   0.44896   0.00000  Uiso   1.00
C551   C     0.83310   0.08687   0.50001   0.00000  Uiso   1.00
C552   C     0.88087   0.02238   0.51477   0.00000  Uiso   1.00
C553   C     0.83378   0.29066   0.49985   0.00000  Uiso   1.00
C554   C     0.83289   0.04267   0.50015   0.00000  Uiso   1.00
C555   C     0.86683   0.19217   0.36161   0.00000  Uiso   1.00
C556   C     0.79984   0.14117   0.63839   0.00000  Uiso   1.00
C557   C     0.86681   0.19216   0.64702   0.00000  Uiso   1.00
C558   C     0.79985   0.14118   0.35298   0.00000  Uiso   1.00
C559   C     0.73408   0.04465   0.47104   0.00000  Uiso   1.00
C560   C     0.93259   0.28869   0.52896   0.00000  Uiso   1.00
C561   C     0.73618   0.28510   0.47021   0.00000  Uiso   1.00
C562   C     0.83357   0.24647   0.49999   0.00000  Uiso   1.00
C563   C     0.93049   0.04824   0.52979   0.00000  Uiso   1.00
C564   C     0.73371   0.16686   0.48803   0.00000  Uiso   1.00
C565   C     0.93295   0.16647   0.51197   0.00000  Uiso   1.00
C566   C     0.67865   0.16685   0.48160   0.00000  Uiso   1.00
C567   C     0.98801   0.16649   0.51840   0.00000  Uiso   1.00
C568   C     0.78522   0.02133   0.48553   0.00000  Uiso   1.00
C569   C     0.88145   0.31201   0.51447   0.00000  Uiso   1.00
C570   C     0.78580   0.31096   0.48523   0.00000  Uiso   1.00
H571   H     0.99134   0.16710   0.44671   0.00000  Uiso   1.00
H572   H     0.92901   0.25422   0.52633   0.00000  Uiso   1.00
H573   H     0.96175   0.29816   0.50678   0.00000  Uiso   1.00
H574   H     0.94805   0.29597   0.56519   0.00000  Uiso   1.00
H575   H     0.74176   0.26496   0.44081   0.00000  Uiso   1.00
H576   H     0.72793   0.26486   0.49891   0.00000  Uiso   1.00
H577   H     0.70050   0.30369   0.45909   0.00000  Uiso   1.00
H578   H     0.93874   0.06848   0.50109   0.00000  Uiso   1.00
H579   H     0.92492   0.06837   0.55919   0.00000  Uiso   1.00
H580   H     0.96617   0.02965   0.54089   0.00000  Uiso   1.00
H581   H     0.67533   0.16624   0.55329   0.00000  Uiso   1.00
H582   H     0.89364   0.21257   0.38317   0.00000  Uiso   1.00
H583   H     0.77302   0.12076   0.61683   0.00000  Uiso   1.00
H584   H     0.89360   0.21257   0.63236   0.00000  Uiso   1.00
H585   H     0.77307   0.12077   0.36764   0.00000  Uiso   1.00
H586   H     0.73765   0.07911   0.47370   0.00000  Uiso   1.00
H587   H     0.71863   0.03738   0.43481   0.00000  Uiso   1.00
H588   H     0.70491   0.03516   0.49321   0.00000  Uiso   1.00
N589   N     0.83332   0.16666   0.61907   0.00000  Uiso   1.00
N590   N     0.83335   0.16668   0.38093   0.00000  Uiso   1.00
O591   O     0.83333   0.10558   0.53821   0.00000  Uiso   1.00
O592   O     0.83334   0.22775   0.46179   0.00000  Uiso   1.00
O593   O     0.83333   0.10559   0.46176   0.00000  Uiso   1.00
O594   O     0.83334   0.22774   0.53824   0.00000  Uiso   1.00
O595   O     0.75725   0.16666   0.52928   0.00000  Uiso   1.00
O596   O     0.90942   0.16667   0.47072   0.00000  Uiso   1.00
O597   O     0.75725   0.16667   0.45284   0.00000  Uiso   1.00
O598   O     0.90942   0.16666   0.54716   0.00000  Uiso   1.00
Zn599  Zn    0.83333   0.16666   0.55104   0.00000  Uiso   1.00
Zn600  Zn    0.83333   0.16667   0.44896   0.00000  Uiso   1.00
C601   C     0.16643   0.42020   0.50001   0.00000  Uiso   1.00
C602   C     0.21421   0.35571   0.51477   0.00000  Uiso   1.00
C603   C     0.16711   0.62400   0.49985   0.00000  Uiso   1.00
C604   C     0.16622   0.37601   0.50015   0.00000  Uiso   1.00
C605   C     0.20016   0.52550   0.36161   0.00000  Uiso   1.00
C606   C     0.13317   0.47450   0.63839   0.00000  Uiso   1.00
C607   C     0.20015   0.52549   0.64702   0.00000  Uiso   1.00
C608   C     0.13319   0.47451   0.35298   0.00000  Uiso   1.00
C609   C     0.06741   0.37798   0.47104   0.00000  Uiso   1.00
C610   C     0.26592   0.62202   0.52896   0.00000  Uiso   1.00
C611   C     0.06952   0.61843   0.47021   0.00000  Uiso   1.00
C612   C     0.16690   0.57980   0.49999   0.00000  Uiso   1.00
C613   C     0.26382   0.38157   0.52979   0.00000  Uiso   1.00
C614   C     0.06705   0.50020   0.48803   0.00000  Uiso   1.00
C615   C     0.26628   0.49980   0.51197   0.00000  Uiso   1.00
C616   C     0.01199   0.50018   0.48160   0.00000  Uiso   1.00
C617   C     0.32135   0.49982   0.51840   0.00000  Uiso   1.00
C618   C     0.11855   0.35466   0.48553   0.00000  Uiso   1.00
C619   C     0.21478   0.64534   0.51447   0.00000  Uiso   1.00
C620   C     0.11913   0.64429   0.48523   0.00000  Uiso   1.00
H621   H     0.32467   0.50043   0.44671   0.00000  Uiso   1.00
H622   H     0.26234   0.58755   0.52633   0.00000  Uiso   1.00
H623   H     0.29508   0.63149   0.50678   0.00000  Uiso   1.00
H624   H     0.28139   0.62930   0.56519   0.00000  Uiso   1.00
H625   H     0.07509   0.59830   0.44081   0.00000  Uiso   1.00
H626   H     0.06126   0.59819   0.49891   0.00000  Uiso   1.00
H627   H     0.03383   0.63702   0.45909   0.00000  Uiso   1.00
H628   H     0.27207   0.40181   0.50109   0.00000  Uiso   1.00
H629   H     0.25825   0.40170   0.55919   0.00000  Uiso   1.00
H630   H     0.29951   0.36298   0.54089   0.00000  Uiso   1.00
H631   H     0.00866   0.49957   0.55329   0.00000  Uiso   1.00
H632   H     0.22698   0.54590   0.38317   0.00000  Uiso   1.00
H633   H     0.10636   0.45410   0.61683   0.00000  Uiso   1.00
H634   H     0.22693   0.54590   0.63236   0.00000  Uiso   1.00
H635   H     0.10640   0.45410   0.36764   0.00000  Uiso   1.00
H636   H     0.07099   0.41245   0.47370   0.00000  Uiso   1.00
H637   H     0.05196   0.37071   0.43481   0.00000  Uiso   1.00
H638   H     0.03824   0.36849   0.49321   0.00000  Uiso   1.00
N639   N     0.16665   0.49999   0.61907   0.00000  Uiso   1.00
N640   N     0.16668   0.50001   0.38093   0.00000  Uiso   1.00
O641   O     0.16666   0.43892   0.53821   0.00000  Uiso   1.00
O642   O     0.16667   0.56108   0.46179   0.00000  Uiso   1.00
O643   O     0.16666   0.43893   0.46176   0.00000  Uiso   1.00
O644   O     0.16667   0.56107   0.53824   0.00000  Uiso   1.00
O645   O     0.09058   0.50000   0.52928   0.00000  Uiso   1.00
O646   O     0.24275   0.50000   0.47072   0.00000  Uiso   1.00
O647   O     0.09058   0.50000   0.45284   0.00000  Uiso   1.00
O648   O     0.24275   0.50000   0.54716   0.00000  Uiso   1.00
Zn649  Zn    0.16667   0.49999   0.55104   0.00000  Uiso   1.00
Zn650  Zn    0.16667   0.50001   0.44896   0.00000  Uiso   1.00
C651   C     0.49977   0.42020   0.50001   0.00000  Uiso   1.00
C652   C     0.54754   0.35571   0.51477   0.00000  Uiso   1.00
C653   C     0.50044   0.62400   0.49985   0.00000  Uiso   1.00
C654   C     0.49956   0.37601   0.50015   0.00000  Uiso   1.00
C655   C     0.53350   0.52550   0.36161   0.00000  Uiso   1.00
C656   C     0.46650   0.47450   0.63839   0.00000  Uiso   1.00
C657   C     0.53348   0.52549   0.64702   0.00000  Uiso   1.00
C658   C     0.46652   0.47451   0.35298   0.00000  Uiso   1.00
C659   C     0.40074   0.37798   0.47104   0.00000  Uiso   1.00
C660   C     0.59926   0.62202   0.52896   0.00000  Uiso   1.00
C661   C     0.40285   0.61843   0.47021   0.00000  Uiso   1.00
C662   C     0.50023   0.57980   0.49999   0.00000  Uiso   1.00
C663   C     0.59715   0.38157   0.52979   0.00000  Uiso   1.00
C664   C     0.40038   0.50020   0.48803   0.00000  Uiso   1.00
C665   C     0.59962   0.49980   0.51197   0.00000  Uiso   1.00
C666   C     0.34532   0.50018   0.48160   0.00000  Uiso   1.00
C667   C     0.65468   0.49982   0.51840   0.00000  Uiso   1.00
C668   C     0.45189   0.35466   0.48553   0.00000  Uiso   1.00
C669   C     0.54811   0.64534   0.51447   0.00000  Uiso   1.00
C670   C     0.45246   0.64429   0.48523   0.00000  Uiso   1.00
H671   H     0.65801   0.50043   0.44671   0.00000  Uiso   1.00
H672   H     0.59567   0.58755   0.52633   0.00000  Uiso   1.00
H673   H     0.62842   0.63149   0.50678   0.00000  Uiso   1.00
H674   H     0.61472   0.62930   0.56519   0.00000  Uiso   1.00
H675   H     0.40842   0.59830   0.44081   0.00000  Uiso   1.00
H676   H     0.39459   0.59819   0.49891   0.00000  Uiso   1.00
H677   H     0.36717   0.63702   0.45909   0.00000  Uiso   1.00
H678   H     0.60540   0.40181   0.50109   0.00000  Uiso   1.00
H679   H     0.59159   0.40170   0.55919   0.00000  Uiso   1.00
H680   H     0.63284   0.36298   0.54089   0.00000  Uiso   1.00
H681   H     0.34199   0.49957   0.55329   0.00000  Uiso   1.00
H682   H     0.56031   0.54590   0.38317   0.00000  Uiso   1.00
H683   H     0.43969   0.45410   0.61683   0.00000  Uiso   1.00
H684   H     0.56027   0.54590   0.63236   0.00000  Uiso   1.00
H685   H     0.43973   0.45410   0.36764   0.00000  Uiso   1.00
H686   H     0.40432   0.41245   0.47370   0.00000  Uiso   1.00
H687   H     0.38529   0.37071   0.43481   0.00000  Uiso   1.00
H688   H     0.37157   0.36849   0.49321   0.00000  Uiso   1.00
N689   N     0.49999   0.49999   0.61907   0.00000  Uiso   1.00
N690   N     0.50001   0.50001   0.38093   0.00000  Uiso   1.00
O691   O     0.50000   0.43892   0.53821   0.00000  Uiso   1.00
O692   O     0.50000   0.56108   0.46179   0.00000  Uiso   1.00
O693   O     0.50000   0.43893   0.46176   0.00000  Uiso   1.00
O694   O     0.50000   0.56107   0.53824   0.00000  Uiso   1.00
O695   O     0.42392   0.50000   0.52928   0.00000  Uiso   1.00
O696   O     0.57608   0.50000   0.47072   0.00000  Uiso   1.00
O697   O     0.42392   0.50000   0.45284   0.00000  Uiso   1.00
O698   O     0.57608   0.50000   0.54716   0.00000  Uiso   1.00
Zn699  Zn    0.50000   0.49999   0.55104   0.00000  Uiso   1.00
Zn700  Zn    0.50000   0.50001   0.44896   0.00000  Uiso   1.00
C701   C     0.83310   0.42020   0.50001   0.00000  Uiso   1.00
C702   C     0.88087   0.35571   0.51477   0.00000  Uiso   1.00
C703   C     0.83378   0.62400   0.49985   0.00000  Uiso   1.00
C704   C     0.83289   0.37601   0.50015   0.00000  Uiso   1.00
C705   C     0.86683   0.52550   0.36161   0.00000  Uiso   1.00
C706   C     0.79984   0.47450   0.63839   0.00000  Uiso   1.00
C707   C     0.86681   0.52549   0.64702   0.00000  Uiso   1.00
C708   C     0.79985   0.47451   0.35298   0.00000  Uiso   1.00
C709   C     0.73408   0.37798   0.47104   0.00000  Uiso   1.00
C710   C     0.93259   0.62202   0.52896   0.00000  Uiso   1.00
C711   C     0.73618   0.61843   0.47021   0.00000  Uiso   1.00
C712   C     0.83357   0.57980   0.49999   0.00000  Uiso   1.00
C713   C     0.93049   0.38157   0.52979   0.00000  Uiso   1.00
C714   C     0.73371   0.50020   0.48803   0.00000  Uiso   1.00
C715   C     0.93295   0.49980   0.51197   0.00000  Uiso   1.00
C716   C     0.67865   0.50018   0.48160   0.00000  Uiso   1.00
C717   C     0.98801   0.49982   0.51840   0.00000  Uiso   1.00
C718   C     0.78522   0.35466   0.48553   0.00000  Uiso   1.00
C719   C     0.88145   0.64534   0.51447   0.00000  Uiso   1.00
C720   C     0.78580   0.64429   0.48523   0.00000  Uiso   1.00
H721   H     0.99134   0.50043   0.44671   0.00000  Uiso   1.00
H722   H     0.92901   0.58755   0.52633   0.00000  Uiso   1.00
H723   H     0.96175   0.63149   0.50678   0.00000  Uiso   1.00
H724   H     0.94805   0.62930   0.56519   0.00000  Uiso   1.00
H725   H     0.74176   0.59830   0.44081   0.00000  Uiso   1.00
H726   H     0.72793   0.59819   0.49891   0.00000  Uiso   1.00
H727   H     0.70050   0.63702   0.45909   0.00000  Uiso   1.00
H728   H     0.93874   0.40181   0.50109   0.00000  Uiso   1.00
H729   H     0.92492   0.40170   0.55919   0.00000  Uiso   1.00
H730   H     0.96617   0.36298   0.54089   0.00000  Uiso   1.00
H731   H     0.67533   0.49957   0.55329   0.00000  Uiso   1.00
H732   H     0.89364   0.54590   0.38317   0.00000  Uiso   1.00
H733   H     0.77302   0.45410   0.61683   0.00000  Uiso   1.00
H734   H     0.89360   0.54590   0.63236   0.00000  Uiso   1.00
H735   H     0.77307   0.45410   0.36764   0.00000  Uiso   1.00
H736   H     0.73765   0.41245   0.47370   0.00000  Uiso   1.00
H737   H     0.71863   0.37071   0.43481   0.00000  Uiso   1.00
H738   H     0.70491   0.36849   0.49321   0.00000  Uiso   1.00
N739   N     0.83332   0.49999   0.61907   0.00000  Uiso   1.00
N740   N     0.83335   0.50001   0.38093   0.00000  Uiso   1.00
O741   O     0.83333   0.43892   0.53821   0.00000  Uiso   1.00
O742   O     0.83334   0.56108   0.46179   0.00000  Uiso   1.00
O743   O     0.83333   0.43893   0.46176   0.00000  Uiso   1.00
O744   O     0.83334   0.56107   0.53824   0.00000  Uiso   1.00
O745   O     0.75725   0.50000   0.52928   0.00000  Uiso   1.00
O746   O     0.90942   0.50000   0.47072   0.00000  Uiso   1.00
O747   O     0.75725   0.50000   0.45284   0.00000  Uiso   1.00
O748   O     0.90942   0.50000   0.54716   0.00000  Uiso   1.00
Zn749  Zn    0.83333   0.49999   0.55104   0.00000  Uiso   1.00
Zn750  Zn    0.83333   0.50001   0.44896   0.00000  Uiso   1.00
C751   C     0.16643   0.75353   0.50001   0.00000  Uiso   1.00
C752   C     0.21421   0.68904   0.51477   0.00000  Uiso   1.00
C753   C     0.16711   0.95733   0.49985   0.00000  Uiso   1.00
C754   C     0.16622   0.70934   0.50015   0.00000  Uiso   1.00
C755   C     0.20016   0.85883   0.36161   0.00000  Uiso   1.00
C756   C     0.13317   0.80783   0.63839   0.00000  Uiso   1.00
C757   C     0.20015   0.85882   0.64702   0.00000  Uiso   1.00
C758   C     0.13319   0.80784   0.35298   0.00000  Uiso   1.00
C759   C     0.06741   0.71131   0.47104   0.00000  Uiso   1.00
C760   C     0.26592   0.95536   0.52896   0.00000  Uiso   1.00
C761   C     0.06952   0.95176   0.47021   0.00000  Uiso   1.00
C762   C     0.16690   0.91313   0.49999   0.00000  Uiso   1.00
C763   C     0.26382   0.71490   0.52979   0.00000  Uiso   1.00
C764   C     0.06705   0.83353   0.48803   0.00000  Uiso   1.00
C765   C     0.26628   0.83314   0.51197   0.00000  Uiso   1.00
C766   C     0.01199   0.83351   0.48160   0.00000  Uiso   1.00
C767   C     0.32135   0.83315   0.51840   0.00000  Uiso   1.00
C768   C     0.11855   0.68799   0.48553   0.00000  Uiso   1.00
C769   C     0.21478   0.97867   0.51447   0.00000  Uiso   1.00
C770   C     0.11913   0.97763   0.48523   0.00000  Uiso   1.00
H771   H     0.32467   0.83376   0.44671   0.00000  Uiso   1.00
H772   H     0.26234   0.92088   0.52633   0.00000  Uiso   1.00
H773   H     0.29508   0.96483   0.50678   0.00000  Uiso   1.00
H774   H     0.28139   0.96264   0.56519   0.00000  Uiso   1.00
H775   H     0.07509   0.93163   0.44081   0.00000  Uiso   1.00
H776   H     0.06126   0.93153   0.49891   0.00000  Uiso   1.00
H777   H     0.03383   0.97035   0.45909   0.00000  Uiso   1.00
H778   H     0.27207   0.73515   0.50109   0.00000  Uiso   1.00
H779   H     0.25825   0.73503   0.55919   0.00000  Uiso   1.00
H780   H     0.29951   0.69632   0.54089   0.00000  Uiso   1.00
H781   H     0.00866   0.83290   0.55329   0.00000  Uiso   1.00
H782   H     0.22698   0.87924   0.38317   0.00000  Uiso   1.00
H783   H     0.10636   0.78743   0.61683   0.00000  Uiso   1.00
H784   H     0.22693   0.87923   0.63236   0.00000  Uiso   1.00
H785   H     0.10640   0.78744   0.36764   0.00000  Uiso   1.00
H786   H     0.07099   0.74578   0.47370   0.00000  Uiso   1.00
H787   H     0.05196   0.70405   0.43481   0.00000  Uiso   1.00
H788   H     0.03824   0.70183   0.49321   0.00000  Uiso   1.00
N789   N     0.16665   0.83332   0.61907   0.00000  Uiso   1.00
N790   N     0.16668   0.83334   0.38093   0.00000  Uiso   1.00
O791   O     0.16666   0.77225   0.53821   0.00000  Uiso   1.00
O792   O     0.16667   0.89442   0.46179   0.00000  Uiso   1.00
O793   O     0.16666   0.77226   0.46176   0.00000  Uiso   1.00
O794   O     0.16667   0.89441   0.53824   0.00000  Uiso   1.00
O795   O     0.09058   0.83333   0.52928   0.00000  Uiso   1.00
O796   O     0.24275   0.83334   0.47072   0.00000  Uiso   1.00
O797   O     0.09058   0.83334   0.45284   0.00000  Uiso   1.00
O798   O     0.24275   0.83333   0.54716   0.00000  Uiso   1.00
Zn799  Zn    0.16667   0.83333   0.55104   0.00000  Uiso   1.00
Zn800  Zn    0.16667   0.83334   0.44896   0.00000  Uiso   1.00
C801   C     0.49977   0.75353   0.50001   0.00000  Uiso   1.00
C802   C     0.54754   0.68904   0.51477   0.00000  Uiso   1.00
C803   C     0.50044   0.95733   0.49985   0.00000  Uiso   1.00
C804   C     0.49956   0.70934   0.50015   0.00000  Uiso   1.00
C805   C     0.53350   0.85883   0.36161   0.00000  Uiso   1.00
C806   C     0.46650   0.80783   0.63839   0.00000  Uiso   1.00
C807   C     0.53348   0.85882   0.64702   0.00000  Uiso   1.00
C808   C     0.46652   0.80784   0.35298   0.00000  Uiso   1.00
C809   C     0.40074   0.71131   0.47104   0.00000  Uiso   1.00
C810   C     0.59926   0.95536   0.52896   0.00000  Uiso   1.00
C811   C     0.40285   0.95176   0.47021   0.00000  Uiso   1.00
C812   C     0.50023   0.91313   0.49999   0.00000  Uiso   1.00
C813   C     0.59715   0.71490   0.52979   0.00000  Uiso   1.00
C814   C     0.40038   0.83353   0.48803   0.00000  Uiso   1.00
C815   C     0.59962   0.83314   0.51197   0.00000  Uiso   1.00
C816   C     0.34532   0.83351   0.48160   0.00000  Uiso   1.00
C817   C     0.65468   0.83315   0.51840   0.00000  Uiso   1.00
C818   C     0.45189   0.68799   0.48553   0.00000  Uiso   1.00
C819   C     0.54811   0.97867   0.51447   0.00000  Uiso   1.00
C820   C     0.45246   0.97763   0.48523   0.00000  Uiso   1.00
H821   H     0.65801   0.83376   0.44671   0.00000  Uiso   1.00
H822   H     0.59567   0.92088   0.52633   0.00000  Uiso   1.00
H823   H     0.62842   0.96483   0.50678   0.00000  Uiso   1.00
H824   H     0.61472   0.96264   0.56519   0.00000  Uiso   1.00
H825   H     0.40842   0.93163   0.44081   0.00000  Uiso   1.00
H826   H     0.39459   0.93153   0.49891   0.00000  Uiso   1.00
H827   H     0.36717   0.97035   0.45909   0.00000  Uiso   1.00
H828   H     0.60540   0.73515   0.50109   0.00000  Uiso   1.00
H829   H     0.59159   0.73503   0.55919   0.00000  Uiso   1.00
H830   H     0.63284   0.69632   0.54089   0.00000  Uiso   1.00
H831   H     0.34199   0.83290   0.55329   0.00000  Uiso   1.00
H832   H     0.56031   0.87924   0.38317   0.00000  Uiso   1.00
H833   H     0.43969   0.78743   0.61683   0.00000  Uiso   1.00
H834   H     0.56027   0.87923   0.63236   0.00000  Uiso   1.00
H835   H     0.43973   0.78744   0.36764   0.00000  Uiso   1.00
H836   H     0.40432   0.74578   0.47370   0.00000  Uiso   1.00
H837   H     0.38529   0.70405   0.43481   0.00000  Uiso   1.00
H838   H     0.37157   0.70183   0.49321   0.00000  Uiso   1.00
N839   N     0.49999   0.83332   0.61907   0.00000  Uiso   1.00
N840   N     0.50001   0.83334   0.38093   0.00000  Uiso   1.00
O841   O     0.50000   0.77225   0.53821   0.00000  Uiso   1.00
O842   O     0.50000   0.89442   0.46179   0.00000  Uiso   1.00
O843   O     0.50000   0.77226   0.46176   0.00000  Uiso   1.00
O844   O     0.50000   0.89441   0.53824   0.00000  Uiso   1.00
O845   O     0.42392   0.83333   0.52928   0.00000  Uiso   1.00
O846   O     0.57608   0.83334   0.47072   0.00000  Uiso   1.00
O847   O     0.42392   0.83334   0.45284   0.00000  Uiso   1.00
O848   O     0.57608   0.83333   0.54716   0.00000  Uiso   1.00
Zn849  Zn    0.50000   0.83333   0.55104   0.00000  Uiso   1.00
Zn850  Zn    0.50000   0.83334   0.44896   0.00000  Uiso   1.00
C851   C     0.83310   0.75353   0.50001   0.00000  Uiso   1.00
C852   C     0.88087   0.68904   0.51477   0.00000  Uiso   1.00
C853   C     0.83378   0.95733   0.49985   0.00000  Uiso   1.00
C854   C     0.83289   0.70934   0.50015   0.00000  Uiso   1.00
C855   C     0.86683   0.85883   0.36161   0.00000  Uiso   1.00
C856   C     0.79984   0.80783   0.63839   0.00000  Uiso   1.00
C857   C     0.86681   0.85882   0.64702   0.00000  Uiso   1.00
C858   C     0.79985   0.80784   0.35298   0.00000  Uiso   1.00
C859   C     0.73408   0.71131   0.47104   0.00000  Uiso   1.00
C860   C     0.93259   0.95536   0.52896   0.00000  Uiso   1.00
C861   C     0.73618   0.95176   0.47021   0.00000  Uiso   1.00
C862   C     0.83357   0.91313   0.49999   0.00000  Uiso   1.00
C863   C     0.93049   0.71490   0.52979   0.00000  Uiso   1.00
C864   C     0.73371   0.83353   0.48803   0.00000  Uiso   1.00
C865   C     0.93295   0.83314   0.51197   0.00000  Uiso   1.00
C866   C     0.67865   0.83351   0.48160   0.00000  Uiso   1.00
C867   C     0.98801   0.83315   0.51840   0.00000  Uiso   1.00
C868   C     0.78522   0.68799   0.48553   0.00000  Uiso   1.00
C869   C     0.88145   0.97867   0.51447   0.00000  Uiso   1.00
C870   C     0.78580   0.97763   0.48523   0.00000  Uiso   1.00
H871   H     0.99134   0.83376   0.44671   0.00000  Uiso   1.00
H872   H     0.92901   0.92088   0.52633   0.00000  Uiso   1.00
H873   H     0.96175   0.96483   0.50678   0.00000  Uiso   1.00
H874   H     0.94805   0.96264   0.56519   0.00000  Uiso   1.00
H875   H     0.74176   0.93163   0.44081   0.00000  Uiso   1.00
H876   H     0.72793   0.93153   0.49891   0.00000  Uiso   1.00
H877   H     0.70050   0.97035   0.45909   0.00000  Uiso   1.00
H878   H     0.93874   0.73515   0.50109   0.00000  Uiso   1.00
H879   H     0.92492   0.73503   0.55919   0.00000  Uiso   1.00
H880   H     0.96617   0.69632   0.54089   0.00000  Uiso   1.00
H881   H     0.67533   0.83290   0.55329   0.00000  Uiso   1.00
H882   H     0.89364   0.87924   0.38317   0.00000  Uiso   1.00
H883   H     0.77302   0.78743   0.61683   0.00000  Uiso   1.00
H884   H     0.89360   0.87923   0.63236   0.00000  Uiso   1.00
H885   H     0.77307   0.78744   0.36764   0.00000  Uiso   1.00
H886   H     0.73765   0.74578   0.47370   0.00000  Uiso   1.00
H887   H     0.71863   0.70405   0.43481   0.00000  Uiso   1.00
H888   H     0.70491   0.70183   0.49321   0.00000  Uiso   1.00
N889   N     0.83332   0.83332   0.61907   0.00000  Uiso   1.00
N890   N     0.83335   0.83334   0.38093   0.00000  Uiso   1.00
O891   O     0.83333   0.77225   0.53821   0.00000  Uiso   1.00
O892   O     0.83334   0.89442   0.46179   0.00000  Uiso   1.00
O893   O     0.83333   0.77226   0.46176   0.00000  Uiso   1.00
O894   O     0.83334   0.89441   0.53824   0.00000  Uiso   1.00
O895   O     0.75725   0.83333   0.52928   0.00000  Uiso   1.00
O896   O     0.90942   0.83334   0.47072   0.00000  Uiso   1.00
O897   O     0.75725   0.83334   0.45284   0.00000  Uiso   1.00
O898   O     0.90942   0.83333   0.54716   0.00000  Uiso   1.00
Zn899  Zn    0.83333   0.83333   0.55104   0.00000  Uiso   1.00
Zn900  Zn    0.83333   0.83334   0.44896   0.00000  Uiso   1.00
C901   C     0.16643   0.08687   0.83335   0.00000  Uiso   1.00
C902   C     0.21421   0.02238   0.84810   0.00000  Uiso   1.00
C903   C     0.16711   0.29066   0.83318   0.00000  Uiso   1.00
C904   C     0.16622   0.04267   0.83349   0.00000  Uiso   1.00
C905   C     0.20016   0.19217   0.69494   0.00000  Uiso   1.00
C906   C     0.13317   0.14117   0.97173   0.00000  Uiso   1.00
C907   C     0.20015   0.19216   0.98036   0.00000  Uiso   1.00
C908   C     0.13319   0.14118   0.68631   0.00000  Uiso   1.00
C909   C     0.06741   0.04465   0.80437   0.00000  Uiso   1.00
C910   C     0.26592   0.28869   0.86230   0.00000  Uiso   1.00
C911   C     0.06952   0.28510   0.80354   0.00000  Uiso   1.00
C912   C     0.16690   0.24647   0.83332   0.00000  Uiso   1.00
C913   C     0.26382   0.04824   0.86312   0.00000  Uiso   1.00
C914   C     0.06705   0.16686   0.82136   0.00000  Uiso   1.00
C915   C     0.26628   0.16647   0.84530   0.00000  Uiso   1.00
C916   C     0.01199   0.16685   0.81494   0.00000  Uiso   1.00
C917   C     0.32135   0.16649   0.85173   0.00000  Uiso   1.00
C918   C     0.11855   0.02133   0.81887   0.00000  Uiso   1.00
C919   C     0.21478   0.31201   0.84780   0.00000  Uiso   1.00
C920   C     0.11913   0.31096   0.81856   0.00000  Uiso   1.00
H921   H     0.32467   0.16710   0.78004   0.00000  Uiso   1.00
H922   H     0.26234   0.25422   0.85966   0.00000  Uiso   1.00
H923   H     0.29508   0.29816   0.84011   0.00000  Uiso   1.00
H924   H     0.28139   0.29597   0.89852   0.00000  Uiso   1.00
H925   H     0.07509   0.26496   0.77414   0.00000  Uiso   1.00
H926   H     0.06126   0.26486   0.83224   0.00000  Uiso   1.00
H927   H     0.03383   0.30369   0.79242   0.00000  Uiso   1.00
H928   H     0.27207   0.06848   0.83442   0.00000  Uiso   1.00
H929   H     0.25825   0.06837   0.89253   0.00000  Uiso   1.00
H930   H     0.29951   0.02965   0.87423   0.00000  Uiso   1.00
H931   H     0.00866   0.16624   0.88663   0.00000  Uiso   1.00
H932   H     0.22698   0.21257   0.71650   0.00000  Uiso   1.00
H933   H     0.10636   0.12076   0.95017   0.00000  Uiso   1.00
H934   H     0.22693   0.21257   0.96570   0.00000  Uiso   1.00
H935   H     0.10640   0.12077   0.70097   0.00000  Uiso   1.00
H936   H     0.07099   0.07911   0.80703   0.00000  Uiso   1.00
H937   H     0.05196   0.03738   0.76814   0.00000  Uiso   1.00
H938   H     0.03824   0.03516   0.82654   0.00000  Uiso   1.00
N939   N     0.16665   0.16666   0.95240   0.00000  Uiso   1.00
N940   N     0.16668   0.16668   0.71427   0.00000  Uiso   1.00
O941   O     0.16666   0.10558   0.87154   0.00000  Uiso   1.00
O942   O     0.16667   0.22775   0.79513   0.00000  Uiso   1.00
O943   O     0.16666   0.10559   0.79510   0.00000  Uiso   1.00
O944   O     0.16667   0.22774   0.87157   0.00000  Uiso   1.00
O945   O     0.09058   0.16666   0.86261   0.00000  Uiso   1.00
O946   O     0.24275   0.16667   0.80405   0.00000  Uiso   1.00
O947   O     0.09058   0.16667   0.78617   0.00000  Uiso   1.00
O948   O     0.24275   0.16666   0.88050   0.00000  Uiso   1.00
Zn949  Zn    0.16667   0.16666   0.88437   0.00000  Uiso   1.00
Zn950  Zn    0.16667   0.16667   0.78229   0.00000  Uiso   1.00
C951   C     0.49977   0.08687   0.83335   0.00000  Uiso   1.00
C952   C     0.54754   0.02238   0.84810   0.00000  Uiso   1.00
C953   C     0.50044   0.29066   0.83318   0.00000  Uiso   1.00
C954   C     0.49956   0.04267   0.83349   0.00000  Uiso   1.00
C955   C     0.53350   0.19217   0.69494   0.00000  Uiso   1.00
C956   C     0.46650   0.14117   0.97173   0.00000  Uiso   1.00
C957   C     0.53348   0.19216   0.98036   0.00000  Uiso   1.00
C958   C     0.46652   0.14118   0.68631   0.00000  Uiso   1.00
C959   C     0.40074   0.04465   0.80437   0.00000  Uiso   1.00
C960   C     0.59926   0.28869   0.86230   0.00000  Uiso   1.00
C961   C     0.40285   0.28510   0.80354   0.00000  Uiso   1.00
C962   C     0.50023   0.24647   0.83332   0.00000  Uiso   1.00
C963   C     0.59715   0.04824   0.86312   0.00000  Uiso   1.00
C964   C     0.40038   0.16686   0.82136   0.00000  Uiso   1.00
C965   C     0.59962   0.16647   0.84530   0.00000  Uiso   1.00
C966   C     0.34532   0.16685   0.81494   0.00000  Uiso   1.00
C967   C     0.65468   0.16649   0.85173   0.00000  Uiso   1.00
C968   C     0.45189   0.02133   0.81887   0.00000  Uiso   1.00
C969   C     0.54811   0.31201   0.84780   0.00000  Uiso   1.00
C970   C     0.45246   0.31096   0.81856   0.00000  Uiso   1.00
H971   H     0.65801   0.16710   0.78004   0.00000  Uiso   1.00
H972   H     0.59567   0.25422   0.85966   0.00000  Uiso   1.00
H973   H     0.62842   0.29816   0.84011   0.00000  Uiso   1.00
H974   H     0.61472   0.29597   0.89852   0.00000  Uiso   1.00
H975   H     0.40842   0.26496   0.77414   0.00000  Uiso   1.00
H976   H     0.39459   0.26486   0.83224   0.00000  Uiso   1.00
H977   H     0.36717   0.30369   0.79242   0.00000  Uiso   1.00
H978   H     0.60540   0.06848   0.83442   0.00000  Uiso   1.00
H979   H     0.59159   0.06837   0.89253   0.00000  Uiso   1.00
H980   H     0.63284   0.02965   0.87423   0.00000  Uiso   1.00
H981   H     0.34199   0.16624   0.88663   0.00000  Uiso   1.00
H982   H     0.56031   0.21257   0.71650   0.00000  Uiso   1.00
H983   H     0.43969   0.12076   0.95017   0.00000  Uiso   1.00
H984   H     0.56027   0.21257   0.96570   0.00000  Uiso   1.00
H985   H     0.43973   0.12077   0.70097   0.00000  Uiso   1.00
H986   H     0.40432   0.07911   0.80703   0.00000  Uiso   1.00
H987   H     0.38529   0.03738   0.76814   0.00000  Uiso   1.00
H988   H     0.37157   0.03516   0.82654   0.00000  Uiso   1.00
N989   N     0.49999   0.16666   0.95240   0.00000  Uiso   1.00
N990   N     0.50001   0.16668   0.71427   0.00000  Uiso   1.00
O991   O     0.50000   0.10558   0.87154   0.00000  Uiso   1.00
O992   O     0.50000   0.22775   0.79513   0.00000  Uiso   1.00
O993   O     0.50000   0.10559   0.79510   0.00000  Uiso   1.00
O994   O     0.50000   0.22774   0.87157   0.00000  Uiso   1.00
O995   O     0.42392   0.16666   0.86261   0.00000  Uiso   1.00
O996   O     0.57608   0.16667   0.80405   0.00000  Uiso   1.00
O997   O     0.42392   0.16667   0.78617   0.00000  Uiso   1.00
O998   O     0.57608   0.16666   0.88050   0.00000  Uiso   1.00
Zn999  Zn    0.50000   0.16666   0.88437   0.00000  Uiso   1.00
Zn1000 Zn    0.50000   0.16667   0.78229   0.00000  Uiso   1.00
C1001  C     0.83310   0.08687   0.83335   0.00000  Uiso   1.00
C1002  C     0.88087   0.02238   0.84810   0.00000  Uiso   1.00
C1003  C     0.83378   0.29066   0.83318   0.00000  Uiso   1.00
C1004  C     0.83289   0.04267   0.83349   0.00000  Uiso   1.00
C1005  C     0.86683   0.19217   0.69494   0.00000  Uiso   1.00
C1006  C     0.79984   0.14117   0.97173   0.00000  Uiso   1.00
C1007  C     0.86681   0.19216   0.98036   0.00000  Uiso   1.00
C1008  C     0.79985   0.14118   0.68631   0.00000  Uiso   1.00
C1009  C     0.73408   0.04465   0.80437   0.00000  Uiso   1.00
C1010  C     0.93259   0.28869   0.86230   0.00000  Uiso   1.00
C1011  C     0.73618   0.28510   0.80354   0.00000  Uiso   1.00
C1012  C     0.83357   0.24647   0.83332   0.00000  Uiso   1.00
C1013  C     0.93049   0.04824   0.86312   0.00000  Uiso   1.00
C1014  C     0.73371   0.16686   0.82136   0.00000  Uiso   1.00
C1015  C     0.93295   0.16647   0.84530   0.00000  Uiso   1.00
C1016  C     0.67865   0.16685   0.81494   0.00000  Uiso   1.00
C1017  C     0.98801   0.16649   0.85173   0.00000  Uiso   1.00
C1018  C     0.78522   0.02133   0.81887   0.00000  Uiso   1.00
C1019  C     0.88145   0.31201   0.84780   0.00000  Uiso   1.00
C1020  C     0.78580   0.31096   0.81856   0.00000  Uiso   1.00
H1021  H     0.99134   0.16710   0.78004   0.00000  Uiso   1.00
H1022  H     0.92901   0.25422   0.85966   0.00000  Uiso   1.00
H1023  H     0.96175   0.29816   0.84011   0.00000  Uiso   1.00
H1024  H     0.94805   0.29597   0.89852   0.00000  Uiso   1.00
H1025  H     0.74176   0.26496   0.77414   0.00000  Uiso   1.00
H1026  H     0.72793   0.26486   0.83224   0.00000  Uiso   1.00
H1027  H     0.70050   0.30369   0.79242   0.00000  Uiso   1.00
H1028  H     0.93874   0.06848   0.83442   0.00000  Uiso   1.00
H1029  H     0.92492   0.06837   0.89253   0.00000  Uiso   1.00
H1030  H     0.96617   0.02965   0.87423   0.00000  Uiso   1.00
H1031  H     0.67533   0.16624   0.88663   0.00000  Uiso   1.00
H1032  H     0.89364   0.21257   0.71650   0.00000  Uiso   1.00
H1033  H     0.77302   0.12076   0.95017   0.00000  Uiso   1.00
H1034  H     0.89360   0.21257   0.96570   0.00000  Uiso   1.00
H1035  H     0.77307   0.12077   0.70097   0.00000  Uiso   1.00
H1036  H     0.73765   0.07911   0.80703   0.00000  Uiso   1.00
H1037  H     0.71863   0.03738   0.76814   0.00000  Uiso   1.00
H1038  H     0.70491   0.03516   0.82654   0.00000  Uiso   1.00
N1039  N     0.83332   0.16666   0.95240   0.00000  Uiso   1.00
N1040  N     0.83335   0.16668   0.71427   0.00000  Uiso   1.00
O1041  O     0.83333   0.10558   0.87154   0.00000  Uiso   1.00
O1042  O     0.83334   0.22775   0.79513   0.00000  Uiso   1.00
O1043  O     0.83333   0.10559   0.79510   0.00000  Uiso   1.00
O1044  O     0.83334   0.22774   0.87157   0.00000  Uiso   1.00
O1045  O     0.75725   0.16666   0.86261   0.00000  Uiso   1.00
O1046  O     0.90942   0.16667   0.80405   0.00000  Uiso   1.00
O1047  O     0.75725   0.16667   0.78617   0.00000  Uiso   1.00
O1048  O     0.90942   0.16666   0.88050   0.00000  Uiso   1.00
Zn1049 Zn    0.83333   0.16666   0.88437   0.00000  Uiso   1.00
Zn1050 Zn    0.83333   0.16667   0.78229   0.00000  Uiso   1.00
C1051  C     0.16643   0.42020   0.83335   0.00000  Uiso   1.00
C1052  C     0.21421   0.35571   0.84810   0.00000  Uiso   1.00
C1053  C     0.16711   0.62400   0.83318   0.00000  Uiso   1.00
C1054  C     0.16622   0.37601   0.83349   0.00000  Uiso   1.00
C1055  C     0.20016   0.52550   0.69494   0.00000  Uiso   1.00
C1056  C     0.13317   0.47450   0.97173   0.00000  Uiso   1.00
C1057  C     0.20015   0.52549   0.98036   0.00000  Uiso   1.00
C1058  C     0.13319   0.47451   0.68631   0.00000  Uiso   1.00
C1059  C     0.06741   0.37798   0.80437   0.00000  Uiso   1.00
C1060  C     0.26592   0.62202   0.86230   0.00000  Uiso   1.00
C1061  C     0.06952   0.61843   0.80354   0.00000  Uiso   1.00
C1062  C     0.16690   0.57980   0.83332   0.00000  Uiso   1.00
C1063  C     0.26382   0.38157   0.86312   0.00000  Uiso   1.00
C1064  C     0.06705   0.50020   0.82136   0.00000  Uiso   1.00
C1065  C     0.26628   0.49980   0.84530   0.00000  Uiso   1.00
C1066  C     0.01199   0.50018   0.81494   0.00000  Uiso   1.00
C1067  C     0.32135   0.49982   0.85173   0.00000  Uiso   1.00
C1068  C     0.11855   0.35466   0.81887   0.00000  Uiso   1.00
C1069  C     0.21478   0.64534   0.84780   0.00000  Uiso   1.00
C1070  C     0.11913   0.64429   0.81856   0.00000  Uiso   1.00
H1071  H     0.32467   0.50043   0.78004   0.00000  Uiso   1.00
H1072  H     0.26234   0.58755   0.85966   0.00000  Uiso   1.00
H1073  H     0.29508   0.63149   0.84011   0.00000  Uiso   1.00
H1074  H     0.28139   0.62930   0.89852   0.00000  Uiso   1.00
H1075  H     0.07509   0.59830   0.77414   0.00000  Uiso   1.00
H1076  H     0.06126   0.59819   0.83224   0.00000  Uiso   1.00
H1077  H     0.03383   0.63702   0.79242   0.00000  Uiso   1.00
H1078  H     0.27207   0.40181   0.83442   0.00000  Uiso   1.00
H1079  H     0.25825   0.40170   0.89253   0.00000  Uiso   1.00
H1080  H     0.29951   0.36298   0.87423   0.00000  Uiso   1.00
H1081  H     0.00866   0.49957   0.88663   0.00000  Uiso   1.00
H1082  H     0.22698   0.54590   0.71650   0.00000  Uiso   1.00
H1083  H     0.10636   0.45410   0.95017   0.00000  Uiso   1.00
H1084  H     0.22693   0.54590   0.96570   0.00000  Uiso   1.00
H1085  H     0.10640   0.45410   0.70097   0.00000  Uiso   1.00
H1086  H     0.07099   0.41245   0.80703   0.00000  Uiso   1.00
H1087  H     0.05196   0.37071   0.76814   0.00000  Uiso   1.00
H1088  H     0.03824   0.36849   0.82654   0.00000  Uiso   1.00
N1089  N     0.16665   0.49999   0.95240   0.00000  Uiso   1.00
N1090  N     0.16668   0.50001   0.71427   0.00000  Uiso   1.00
O1091  O     0.16666   0.43892   0.87154   0.00000  Uiso   1.00
O1092  O     0.16667   0.56108   0.79513   0.00000  Uiso   1.00
O1093  O     0.16666   0.43893   0.79510   0.00000  Uiso   1.00
O1094  O     0.16667   0.56107   0.87157   0.00000  Uiso   1.00
O1095  O     0.09058   0.50000   0.86261   0.00000  Uiso   1.00
O1096  O     0.24275   0.50000   0.80405   0.00000  Uiso   1.00
O1097  O     0.09058   0.50000   0.78617   0.00000  Uiso   1.00
O1098  O     0.24275   0.50000   0.88050   0.00000  Uiso   1.00
Zn1099 Zn    0.16667   0.49999   0.88437   0.00000  Uiso   1.00
Zn1100 Zn    0.16667   0.50001   0.78229   0.00000  Uiso   1.00
C1101  C     0.49977   0.42020   0.83335   0.00000  Uiso   1.00
C1102  C     0.54754   0.35571   0.84810   0.00000  Uiso   1.00
C1103  C     0.50044   0.62400   0.83318   0.00000  Uiso   1.00
C1104  C     0.49956   0.37601   0.83349   0.00000  Uiso   1.00
C1105  C     0.53350   0.52550   0.69494   0.00000  Uiso   1.00
C1106  C     0.46650   0.47450   0.97173   0.00000  Uiso   1.00
C1107  C     0.53348   0.52549   0.98036   0.00000  Uiso   1.00
C1108  C     0.46652   0.47451   0.68631   0.00000  Uiso   1.00
C1109  C     0.40074   0.37798   0.80437   0.00000  Uiso   1.00
C1110  C     0.59926   0.62202   0.86230   0.00000  Uiso   1.00
C1111  C     0.40285   0.61843   0.80354   0.00000  Uiso   1.00
C1112  C     0.50023   0.57980   0.83332   0.00000  Uiso   1.00
C1113  C     0.59715   0.38157   0.86312   0.00000  Uiso   1.00
C1114  C     0.40038   0.50020   0.82136   0.00000  Uiso   1.00
C1115  C     0.59962   0.49980   0.84530   0.00000  Uiso   1.00
C1116  C     0.34532   0.50018   0.81494   0.00000  Uiso   1.00
C1117  C     0.65468   0.49982   0.85173   0.00000  Uiso   1.00
C1118  C     0.45189   0.35466   0.81887   0.00000  Uiso   1.00
C1119  C     0.54811   0.64534   0.84780   0.00000  Uiso   1.00
C1120  C     0.45246   0.64429   0.81856   0.00000  Uiso   1.00
H1121  H     0.65801   0.50043   0.78004   0.00000  Uiso   1.00
H1122  H     0.59567   0.58755   0.85966   0.00000  Uiso   1.00
H1123  H     0.62842   0.63149   0.84011   0.00000  Uiso   1.00
H1124  H     0.61472   0.62930   0.89852   0.00000  Uiso   1.00
H1125  H     0.40842   0.59830   0.77414   0.00000  Uiso   1.00
H1126  H     0.39459   0.59819   0.83224   0.00000  Uiso   1.00
H1127  H     0.36717   0.63702   0.79242   0.00000  Uiso   1.00
H1128  H     0.60540   0.40181   0.83442   0.00000  Uiso   1.00
H1129  H     0.59159   0.40170   0.89253   0.00000  Uiso   1.00
H1130  H     0.63284   0.36298   0.87423   0.00000  Uiso   1.00
H1131  H     0.34199   0.49957   0.88663   0.00000  Uiso   1.00
H1132  H     0.56031   0.54590   0.71650   0.00000  Uiso   1.00
H1133  H     0.43969   0.45410   0.95017   0.00000  Uiso   1.00
H1134  H     0.56027   0.54590   0.96570   0.00000  Uiso   1.00
H1135  H     0.43973   0.45410   0.70097   0.00000  Uiso   1.00
H1136  H     0.40432   0.41245   0.80703   0.00000  Uiso   1.00
H1137  H     0.38529   0.37071   0.76814   0.00000  Uiso   1.00
H1138  H     0.37157   0.36849   0.82654   0.00000  Uiso   1.00
N1139  N     0.49999   0.49999   0.95240   0.00000  Uiso   1.00
N1140  N     0.50001   0.50001   0.71427   0.00000  Uiso   1.00
O1141  O     0.50000   0.43892   0.87154   0.00000  Uiso   1.00
O1142  O     0.50000   0.56108   0.79513   0.00000  Uiso   1.00
O1143  O     0.50000   0.43893   0.79510   0.00000  Uiso   1.00
O1144  O     0.50000   0.56107   0.87157   0.00000  Uiso   1.00
O1145  O     0.42392   0.50000   0.86261   0.00000  Uiso   1.00
O1146  O     0.57608   0.50000   0.80405   0.00000  Uiso   1.00
O1147  O     0.42392   0.50000   0.78617   0.00000  Uiso   1.00
O1148  O     0.57608   0.50000   0.88050   0.00000  Uiso   1.00
Zn1149 Zn    0.50000   0.49999   0.88437   0.00000  Uiso   1.00
Zn1150 Zn    0.50000   0.50001   0.78229   0.00000  Uiso   1.00
C1151  C     0.83310   0.42020   0.83335   0.00000  Uiso   1.00
C1152  C     0.88087   0.35571   0.84810   0.00000  Uiso   1.00
C1153  C     0.83378   0.62400   0.83318   0.00000  Uiso   1.00
C1154  C     0.83289   0.37601   0.83349   0.00000  Uiso   1.00
C1155  C     0.86683   0.52550   0.69494   0.00000  Uiso   1.00
C1156  C     0.79984   0.47450   0.97173   0.00000  Uiso   1.00
C1157  C     0.86681   0.52549   0.98036   0.00000  Uiso   1.00
C1158  C     0.79985   0.47451   0.68631   0.00000  Uiso   1.00
C1159  C     0.73408   0.37798   0.80437   0.00000  Uiso   1.00
C1160  C     0.93259   0.62202   0.86230   0.00000  Uiso   1.00
C1161  C     0.73618   0.61843   0.80354   0.00000  Uiso   1.00
C1162  C     0.83357   0.57980   0.83332   0.00000  Uiso   1.00
C1163  C     0.93049   0.38157   0.86312   0.00000  Uiso   1.00
C1164  C     0.73371   0.50020   0.82136   0.00000  Uiso   1.00
C1165  C     0.93295   0.49980   0.84530   0.00000  Uiso   1.00
C1166  C     0.67865   0.50018   0.81494   0.00000  Uiso   1.00
C1167  C     0.98801   0.49982   0.85173   0.00000  Uiso   1.00
C1168  C     0.78522   0.35466   0.81887   0.00000  Uiso   1.00
C1169  C     0.88145   0.64534   0.84780   0.00000  Uiso   1.00
C1170  C     0.78580   0.64429   0.81856   0.00000  Uiso   1.00
H1171  H     0.99134   0.50043   0.78004   0.00000  Uiso   1.00
H1172  H     0.92901   0.58755   0.85966   0.00000  Uiso   1.00
H1173  H     0.96175   0.63149   0.84011   0.00000  Uiso   1.00
H1174  H     0.94805   0.62930   0.89852   0.00000  Uiso   1.00
H1175  H     0.74176   0.59830   0.77414   0.00000  Uiso   1.00
H1176  H     0.72793   0.59819   0.83224   0.00000  Uiso   1.00
H1177  H     0.70050   0.63702   0.79242   0.00000  Uiso   1.00
H1178  H     0.93874   0.40181   0.83442   0.00000  Uiso   1.00
H1179  H     0.92492   0.40170   0.89253   0.00000  Uiso   1.00
H1180  H     0.96617   0.36298   0.87423   0.00000  Uiso   1.00
H1181  H     0.67533   0.49957   0.88663   0.00000  Uiso   1.00
H1182  H     0.89364   0.54590   0.71650   0.00000  Uiso   1.00
H1183  H     0.77302   0.45410   0.95017   0.00000  Uiso   1.00
H1184  H     0.89360   0.54590   0.96570   0.00000  Uiso   1.00
H1185  H     0.77307   0.45410   0.70097   0.00000  Uiso   1.00
H1186  H     0.73765   0.41245   0.80703   0.00000  Uiso   1.00
H1187  H     0.71863   0.37071   0.76814   0.00000  Uiso   1.00
H1188  H     0.70491   0.36849   0.82654   0.00000  Uiso   1.00
N1189  N     0.83332   0.49999   0.95240   0.00000  Uiso   1.00
N1190  N     0.83335   0.50001   0.71427   0.00000  Uiso   1.00
O1191  O     0.83333   0.43892   0.87154   0.00000  Uiso   1.00
O1192  O     0.83334   0.56108   0.79513   0.00000  Uiso   1.00
O1193  O     0.83333   0.43893   0.79510   0.00000  Uiso   1.00
O1194  O     0.83334   0.56107   0.87157   0.00000  Uiso   1.00
O1195  O     0.75725   0.50000   0.86261   0.00000  Uiso   1.00
O1196  O     0.90942   0.50000   0.80405   0.00000  Uiso   1.00
O1197  O     0.75725   0.50000   0.78617   0.00000  Uiso   1.00
O1198  O     0.90942   0.50000   0.88050   0.00000  Uiso   1.00
Zn1199 Zn    0.83333   0.49999   0.88437   0.00000  Uiso   1.00
Zn1200 Zn    0.83333   0.50001   0.78229   0.00000  Uiso   1.00
C1201  C     0.16643   0.75353   0.83335   0.00000  Uiso   1.00
C1202  C     0.21421   0.68904   0.84810   0.00000  Uiso   1.00
C1203  C     0.16711   0.95733   0.83318   0.00000  Uiso   1.00
C1204  C     0.16622   0.70934   0.83349   0.00000  Uiso   1.00
C1205  C     0.20016   0.85883   0.69494   0.00000  Uiso   1.00
C1206  C     0.13317   0.80783   0.97173   0.00000  Uiso   1.00
C1207  C     0.20015   0.85882   0.98036   0.00000  Uiso   1.00
C1208  C     0.13319   0.80784   0.68631   0.00000  Uiso   1.00
C1209  C     0.06741   0.71131   0.80437   0.00000  Uiso   1.00
C1210  C     0.26592   0.95536   0.86230   0.00000  Uiso   1.00
C1211  C     0.06952   0.95176   0.80354   0.00000  Uiso   1.00
C1212  C     0.16690   0.91313   0.83332   0.00000  Uiso   1.00
C1213  C     0.26382   0.71490   0.86312   0.00000  Uiso   1.00
C1214  C     0.06705   0.83353   0.82136   0.00000  Uiso   1.00
C1215  C     0.26628   0.83314   0.84530   0.00000  Uiso   1.00
C1216  C     0.01199   0.83351   0.81494   0.00000  Uiso   1.00
C1217  C     0.32135   0.83315   0.85173   0.00000  Uiso   1.00
C1218  C     0.11855   0.68799   0.81887   0.00000  Uiso   1.00
C1219  C     0.21478   0.97867   0.84780   0.00000  Uiso   1.00
C1220  C     0.11913   0.97763   0.81856   0.00000  Uiso   1.00
H1221  H     0.32467   0.83376   0.78004   0.00000  Uiso   1.00
H1222  H     0.26234   0.92088   0.85966   0.00000  Uiso   1.00
H1223  H     0.29508   0.96483   0.84011   0.00000  Uiso   1.00
H1224  H     0.28139   0.96264   0.89852   0.00000  Uiso   1.00
H1225  H     0.07509   0.93163   0.77414   0.00000  Uiso   1.00
H1226  H     0.06126   0.93153   0.83224   0.00000  Uiso   1.00
H1227  H     0.03383   0.97035   0.79242   0.00000  Uiso   1.00
H1228  H     0.27207   0.73515   0.83442   0.00000  Uiso   1.00
H1229  H     0.25825   0.73503   0.89253   0.00000  Uiso   1.00
H1230  H     0.29951   0.69632   0.87423   0.00000  Uiso   1.00
H1231  H     0.00866   0.83290   0.88663   0.00000  Uiso   1.00
H1232  H     0.22698   0.87924   0.71650   0.00000  Uiso   1.00
H1233  H     0.10636   0.78743   0.95017   0.00000  Uiso   1.00
H1234  H     0.22693   0.87923   0.96570   0.00000  Uiso   1.00
H1235  H     0.10640   0.78744   0.70097   0.00000  Uiso   1.00
H1236  H     0.07099   0.74578   0.80703   0.00000  Uiso   1.00
H1237  H     0.05196   0.70405   0.76814   0.00000  Uiso   1.00
H1238  H     0.03824   0.70183   0.82654   0.00000  Uiso   1.00
N1239  N     0.16665   0.83332   0.95240   0.00000  Uiso   1.00
N1240  N     0.16668   0.83334   0.71427   0.00000  Uiso   1.00
O1241  O     0.16666   0.77225   0.87154   0.00000  Uiso   1.00
O1242  O     0.16667   0.89442   0.79513   0.00000  Uiso   1.00
O1243  O     0.16666   0.77226   0.79510   0.00000  Uiso   1.00
O1244  O     0.16667   0.89441   0.87157   0.00000  Uiso   1.00
O1245  O     0.09058   0.83333   0.86261   0.00000  Uiso   1.00
O1246  O     0.24275   0.83334   0.80405   0.00000  Uiso   1.00
O1247  O     0.09058   0.83334   0.78617   0.00000  Uiso   1.00
O1248  O     0.24275   0.83333   0.88050   0.00000  Uiso   1.00
Zn1249 Zn    0.16667   0.83333   0.88437   0.00000  Uiso   1.00
Zn1250 Zn    0.16667   0.83334   0.78229   0.00000  Uiso   1.00
C1251  C     0.49977   0.75353   0.83335   0.00000  Uiso   1.00
C1252  C     0.54754   0.68904   0.84810   0.00000  Uiso   1.00
C1253  C     0.50044   0.95733   0.83318   0.00000  Uiso   1.00
C1254  C     0.49956   0.70934   0.83349   0.00000  Uiso   1.00
C1255  C     0.53350   0.85883   0.69494   0.00000  Uiso   1.00
C1256  C     0.46650   0.80783   0.97173   0.00000  Uiso   1.00
C1257  C     0.53348   0.85882   0.98036   0.00000  Uiso   1.00
C1258  C     0.46652   0.80784   0.68631   0.00000  Uiso   1.00
C1259  C     0.40074   0.71131   0.80437   0.00000  Uiso   1.00
C1260  C     0.59926   0.95536   0.86230   0.00000  Uiso   1.00
C1261  C     0.40285   0.95176   0.80354   0.00000  Uiso   1.00
C1262  C     0.50023   0.91313   0.83332   0.00000  Uiso   1.00
C1263  C     0.59715   0.71490   0.86312   0.00000  Uiso   1.00
C1264  C     0.40038   0.83353   0.82136   0.00000  Uiso   1.00
C1265  C     0.59962   0.83314   0.84530   0.00000  Uiso   1.00
C1266  C     0.34532   0.83351   0.81494   0.00000  Uiso   1.00
C1267  C     0.65468   0.83315   0.85173   0.00000  Uiso   1.00
C1268  C     0.45189   0.68799   0.81887   0.00000  Uiso   1.00
C1269  C     0.54811   0.97867   0.84780   0.00000  Uiso   1.00
C1270  C     0.45246   0.97763   0.81856   0.00000  Uiso   1.00
H1271  H     0.65801   0.83376   0.78004   0.00000  Uiso   1.00
H1272  H     0.59567   0.92088   0.85966   0.00000  Uiso   1.00
H1273  H     0.62842   0.96483   0.84011   0.00000  Uiso   1.00
H1274  H     0.61472   0.96264   0.89852   0.00000  Uiso   1.00
H1275  H     0.40842   0.93163   0.77414   0.00000  Uiso   1.00
H1276  H     0.39459   0.93153   0.83224   0.00000  Uiso   1.00
H1277  H     0.36717   0.97035   0.79242   0.00000  Uiso   1.00
H1278  H     0.60540   0.73515   0.83442   0.00000  Uiso   1.00
H1279  H     0.59159   0.73503   0.89253   0.00000  Uiso   1.00
H1280  H     0.63284   0.69632   0.87423   0.00000  Uiso   1.00
H1281  H     0.34199   0.83290   0.88663   0.00000  Uiso   1.00
H1282  H     0.56031   0.87924   0.71650   0.00000  Uiso   1.00
H1283  H     0.43969   0.78743   0.95017   0.00000  Uiso   1.00
H1284  H     0.56027   0.87923   0.96570   0.00000  Uiso   1.00
H1285  H     0.43973   0.78744   0.70097   0.00000  Uiso   1.00
H1286  H     0.40432   0.74578   0.80703   0.00000  Uiso   1.00
H1287  H     0.38529   0.70405   0.76814   0.00000  Uiso   1.00
H1288  H     0.37157   0.70183   0.82654   0.00000  Uiso   1.00
N1289  N     0.49999   0.83332   0.95240   0.00000  Uiso   1.00
N1290  N     0.50001   0.83334   0.71427   0.00000  Uiso   1.00
O1291  O     0.50000   0.77225   0.87154   0.00000  Uiso   1.00
O1292  O     0.50000   0.89442   0.79513   0.00000  Uiso   1.00
O1293  O     0.50000   0.77226   0.79510   0.00000  Uiso   1.00
O1294  O     0.50000   0.89441   0.87157   0.00000  Uiso   1.00
O1295  O     0.42392   0.83333   0.86261   0.00000  Uiso   1.00
O1296  O     0.57608   0.83334   0.80405   0.00000  Uiso   1.00
O1297  O     0.42392   0.83334   0.78617   0.00000  Uiso   1.00
O1298  O     0.57608   0.83333   0.88050   0.00000  Uiso   1.00
Zn1299 Zn    0.50000   0.83333   0.88437   0.00000  Uiso   1.00
Zn1300 Zn    0.50000   0.83334   0.78229   0.00000  Uiso   1.00
C1301  C     0.83310   0.75353   0.83335   0.00000  Uiso   1.00
C1302  C     0.88087   0.68904   0.84810   0.00000  Uiso   1.00
C1303  C     0.83378   0.95733   0.83318   0.00000  Uiso   1.00
C1304  C     0.83289   0.70934   0.83349   0.00000  Uiso   1.00
C1305  C     0.86683   0.85883   0.69494   0.00000  Uiso   1.00
C1306  C     0.79984   0.80783   0.97173   0.00000  Uiso   1.00
C1307  C     0.86681   0.85882   0.98036   0.00000  Uiso   1.00
C1308  C     0.79985   0.80784   0.68631   0.00000  Uiso   1.00
C1309  C     0.73408   0.71131   0.80437   0.00000  Uiso   1.00
C1310  C     0.93259   0.95536   0.86230   0.00000  Uiso   1.00
C1311  C     0.73618   0.95176   0.80354   0.00000  Uiso   1.00
C1312  C     0.83357   0.91313   0.83332   0.00000  Uiso   1.00
C1313  C     0.93049   0.71490   0.86312   0.00000  Uiso   1.00
C1314  C     0.73371   0.83353   0.82136   0.00000  Uiso   1.00
C1315  C     0.93295   0.83314   0.84530   0.00000  Uiso   1.00
C1316  C     0.67865   0.83351   0.81494   0.00000  Uiso   1.00
C1317  C     0.98801   0.83315   0.85173   0.00000  Uiso   1.00
C1318  C     0.78522   0.68799   0.81887   0.00000  Uiso   1.00
C1319  C     0.88145   0.97867   0.84780   0.00000  Uiso   1.00
C1320  C     0.78580   0.97763   0.81856   0.00000  Uiso   1.00
H1321  H     0.99134   0.83376   0.78004   0.00000  Uiso   1.00
H1322  H     0.92901   0.92088   0.85966   0.00000  Uiso   1.00
H1323  H     0.96175   0.96483   0.84011   0.00000  Uiso   1.00
H1324  H     0.94805   0.96264   0.89852   0.00000  Uiso   1.00
H1325  H     0.74176   0.93163   0.77414   0.00000  Uiso   1.00
H1326  H     0.72793   0.93153   0.83224   0.00000  Uiso   1.00
H1327  H     0.70050   0.97035   0.79242   0.00000  Uiso   1.00
H1328  H     0.93874   0.73515   0.83442   0.00000  Uiso   1.00
H1329  H     0.92492   0.73503   0.89253   0.00000  Uiso   1.00
H1330  H     0.96617   0.69632   0.87423   0.00000  Uiso   1.00
H1331  H     0.67533   0.83290   0.88663   0.00000  Uiso   1.00
H1332  H     0.89364   0.87924   0.71650   0.00000  Uiso   1.00
H1333  H     0.77302   0.78743   0.95017   0.00000  Uiso   1.00
H1334  H     0.89360   0.87923   0.96570   0.00000  Uiso   1.00
H1335  H     0.77307   0.78744   0.70097   0.00000  Uiso   1.00
H1336  H     0.73765   0.74578   0.80703   0.00000  Uiso   1.00
H1337  H     0.71863   0.70405   0.76814   0.00000  Uiso   1.00
H1338  H     0.70491   0.70183   0.82654   0.00000  Uiso   1.00
N1339  N     0.83332   0.83332   0.95240   0.00000  Uiso   1.00
N1340  N     0.83335   0.83334   0.71427   0.00000  Uiso   1.00
O1341  O     0.83333   0.77225   0.87154   0.00000  Uiso   1.00
O1342  O     0.83334   0.89442   0.79513   0.00000  Uiso   1.00
O1343  O     0.83333   0.77226   0.79510   0.00000  Uiso   1.00
O1344  O     0.83334   0.89441   0.87157   0.00000  Uiso   1.00
O1345  O     0.75725   0.83333   0.86261   0.00000  Uiso   1.00
O1346  O     0.90942   0.83334   0.80405   0.00000  Uiso   1.00
O1347  O     0.75725   0.83334   0.78617   0.00000  Uiso   1.00
O1348  O     0.90942   0.83333   0.88050   0.00000  Uiso   1.00
Zn1349 Zn    0.83333   0.83333   0.88437   0.00000  Uiso   1.00
Zn1350 Zn    0.83333   0.83334   0.78229   0.00000  Uiso   1.00
loop_
_geom_bond_atom_site_label_1
_geom_bond_atom_site_label_2
_geom_bond_distance
_geom_bond_site_symmetry_2
_ccdc_geom_bond_type
C1     C4      1.410   .     S
C1     O43     1.279   .     A
C1     O41     1.279   .     A
C2     C4      1.408   .     A
C2     C13     1.525   .     S
C2     C319    1.395   1_545 S
C3     C19     1.410   .     A
C3     C20     1.408   .     A
C3     C12     1.410   .     S
C4     C18     1.410   .     A
C5     H32     1.082   .     S
C5     N40     1.367   .     A
C5     C907    1.418   1_554 S
C6     H33     1.082   .     S
C6     N39     1.367   .     A
C6     C458    1.418   .     S
C7     H34     1.082   .     S
C7     N39     1.367   .     A
C7     C455    1.418   .     S
C8     N40     1.367   .     A
C8     H35     1.082   .     S
C8     C906    1.418   1_554 S
C9     H36     1.105   .     S
C9     H37     1.110   .     S
C9     H38     1.109   .     S
C9     C18     1.522   .     S
C10    H23     1.109   .     S
C10    C19     1.522   .     S
C10    H22     1.105   .     S
C10    H24     1.110   .     S
C11    H27     1.105   .     S
C11    C20     1.525   .     S
C11    H25     1.110   .     S
C11    H26     1.111   .     S
C12    O44     1.279   .     A
C12    O42     1.279   .     A
C13    H28     1.111   .     S
C13    H29     1.110   .     S
C13    H30     1.105   .     S
C14    O47     1.282   .     A
C14    O45     1.278   .     A
C14    C16     1.402   .     S
C15    O46     1.278   .     A
C15    O48     1.282   .     A
C15    C17     1.402   .     S
C16    C117    1.330   1_455 S
C16    H121    1.088   1_455 S
C17    C66     1.330   .     S
C17    H81     1.088   .     S
C18    C320    1.395   1_545 S
C19    C152    1.395   .     S
C20    C168    1.395   .     S
H21    C66     1.088   .     S
H31    C117    1.088   1_455 S
N39    Zn49    2.013   .     S
N40    Zn50    2.013   .     S
O41    Zn49    1.986   .     S
O42    Zn50    1.986   .     S
O43    Zn50    1.984   .     S
O44    Zn49    1.984   .     S
O45    Zn49    1.968   .     S
O46    Zn50    1.968   .     S
O47    Zn50    1.980   .     S
O48    Zn49    1.980   .     S
C51    C54     1.410   .     S
C51    O93     1.279   .     A
C51    O91     1.279   .     A
C52    C54     1.408   .     A
C52    C63     1.525   .     S
C52    C369    1.395   1_545 S
C53    C69     1.410   .     A
C53    C70     1.408   .     A
C53    C62     1.410   .     S
C54    C68     1.410   .     A
C55    H82     1.082   .     S
C55    N90     1.367   .     A
C55    C957    1.418   1_554 S
C56    H83     1.082   .     S
C56    N89     1.367   .     A
C56    C508    1.418   .     S
C57    H84     1.082   .     S
C57    N89     1.367   .     A
C57    C505    1.418   .     S
C58    N90     1.367   .     A
C58    H85     1.082   .     S
C58    C956    1.418   1_554 S
C59    H86     1.105   .     S
C59    H87     1.110   .     S
C59    H88     1.109   .     S
C59    C68     1.522   .     S
C60    H73     1.109   .     S
C60    C69     1.522   .     S
C60    H72     1.105   .     S
C60    H74     1.110   .     S
C61    H77     1.105   .     S
C61    C70     1.525   .     S
C61    H75     1.110   .     S
C61    H76     1.111   .     S
C62    O94     1.279   .     A
C62    O92     1.279   .     A
C63    H78     1.111   .     S
C63    H79     1.110   .     S
C63    H80     1.105   .     S
C64    O97     1.282   .     A
C64    O95     1.278   .     A
C64    C66     1.402   .     S
C65    O96     1.278   .     A
C65    O98     1.282   .     A
C65    C67     1.402   .     S
C67    C116    1.330   .     S
C67    H131    1.088   .     S
C68    C370    1.395   1_545 S
C69    C202    1.395   .     S
C70    C218    1.395   .     S
H71    C116    1.088   .     S
N89    Zn99    2.013   .     S
N90    Zn100   2.013   .     S
O91    Zn99    1.986   .     S
O92    Zn100   1.986   .     S
O93    Zn100   1.984   .     S
O94    Zn99    1.984   .     S
O95    Zn99    1.968   .     S
O96    Zn100   1.968   .     S
O97    Zn100   1.980   .     S
O98    Zn99    1.980   .     S
C101   C104    1.410   .     S
C101   O143    1.279   .     A
C101   O141    1.279   .     A
C102   C104    1.408   .     A
C102   C113    1.525   .     S
C102   C419    1.395   1_545 S
C103   C119    1.410   .     A
C103   C120    1.408   .     A
C103   C112    1.410   .     S
C104   C118    1.410   .     A
C105   H132    1.082   .     S
C105   N140    1.367   .     A
C105   C1007   1.418   1_554 S
C106   H133    1.082   .     S
C106   N139    1.367   .     A
C106   C558    1.418   .     S
C107   H134    1.082   .     S
C107   N139    1.367   .     A
C107   C555    1.418   .     S
C108   N140    1.367   .     A
C108   H135    1.082   .     S
C108   C1006   1.418   1_554 S
C109   H136    1.105   .     S
C109   H137    1.110   .     S
C109   H138    1.109   .     S
C109   C118    1.522   .     S
C110   H123    1.109   .     S
C110   C119    1.522   .     S
C110   H122    1.105   .     S
C110   H124    1.110   .     S
C111   H127    1.105   .     S
C111   C120    1.525   .     S
C111   H125    1.110   .     S
C111   H126    1.111   .     S
C112   O144    1.279   .     A
C112   O142    1.279   .     A
C113   H128    1.111   .     S
C113   H129    1.110   .     S
C113   H130    1.105   .     S
C114   O147    1.282   .     A
C114   O145    1.278   .     A
C114   C116    1.402   .     S
C115   O146    1.278   .     A
C115   O148    1.282   .     A
C115   C117    1.402   .     S
C117   C16     1.330   1_655 S
C117   H31     1.088   1_655 S
C118   C420    1.395   1_545 S
C119   C252    1.395   .     S
C120   C268    1.395   .     S
H121   C16     1.088   1_655 S
N139   Zn149   2.013   .     S
N140   Zn150   2.013   .     S
O141   Zn149   1.986   .     S
O142   Zn150   1.986   .     S
O143   Zn150   1.984   .     S
O144   Zn149   1.984   .     S
O145   Zn149   1.968   .     S
O146   Zn150   1.968   .     S
O147   Zn150   1.980   .     S
O148   Zn149   1.980   .     S
C151   C154    1.410   .     S
C151   O193    1.279   .     A
C151   O191    1.279   .     A
C152   C154    1.408   .     A
C152   C163    1.525   .     S
C153   C169    1.410   .     A
C153   C170    1.408   .     A
C153   C162    1.410   .     S
C154   C168    1.410   .     A
C155   H182    1.082   .     S
C155   N190    1.367   .     A
C155   C1057   1.418   1_554 S
C156   H183    1.082   .     S
C156   N189    1.367   .     A
C156   C608    1.418   .     S
C157   H184    1.082   .     S
C157   N189    1.367   .     A
C157   C605    1.418   .     S
C158   N190    1.367   .     A
C158   H185    1.082   .     S
C158   C1056   1.418   1_554 S
C159   H186    1.105   .     S
C159   H187    1.110   .     S
C159   H188    1.109   .     S
C159   C168    1.522   .     S
C160   H173    1.109   .     S
C160   C169    1.522   .     S
C160   H172    1.105   .     S
C160   H174    1.110   .     S
C161   H177    1.105   .     S
C161   C170    1.525   .     S
C161   H175    1.110   .     S
C161   H176    1.111   .     S
C162   O194    1.279   .     A
C162   O192    1.279   .     A
C163   H178    1.111   .     S
C163   H179    1.110   .     S
C163   H180    1.105   .     S
C164   O197    1.282   .     A
C164   O195    1.278   .     A
C164   C166    1.402   .     S
C165   O196    1.278   .     A
C165   O198    1.282   .     A
C165   C167    1.402   .     S
C166   C267    1.330   1_455 S
C166   H271    1.088   1_455 S
C167   C216    1.330   .     S
C167   H231    1.088   .     S
C169   C302    1.395   .     S
C170   C318    1.395   .     S
H171   C216    1.088   .     S
H181   C267    1.088   1_455 S
N189   Zn199   2.013   .     S
N190   Zn200   2.013   .     S
O191   Zn199   1.986   .     S
O192   Zn200   1.986   .     S
O193   Zn200   1.984   .     S
O194   Zn199   1.984   .     S
O195   Zn199   1.968   .     S
O196   Zn200   1.968   .     S
O197   Zn200   1.980   .     S
O198   Zn199   1.980   .     S
C201   C204    1.410   .     S
C201   O243    1.279   .     A
C201   O241    1.279   .     A
C202   C204    1.408   .     A
C202   C213    1.525   .     S
C203   C219    1.410   .     A
C203   C220    1.408   .     A
C203   C212    1.410   .     S
C204   C218    1.410   .     A
C205   H232    1.082   .     S
C205   N240    1.367   .     A
C205   C1107   1.418   1_554 S
C206   H233    1.082   .     S
C206   N239    1.367   .     A
C206   C658    1.418   .     S
C207   H234    1.082   .     S
C207   N239    1.367   .     A
C207   C655    1.418   .     S
C208   N240    1.367   .     A
C208   H235    1.082   .     S
C208   C1106   1.418   1_554 S
C209   H236    1.105   .     S
C209   H237    1.110   .     S
C209   H238    1.109   .     S
C209   C218    1.522   .     S
C210   H223    1.109   .     S
C210   C219    1.522   .     S
C210   H222    1.105   .     S
C210   H224    1.110   .     S
C211   H227    1.105   .     S
C211   C220    1.525   .     S
C211   H225    1.110   .     S
C211   H226    1.111   .     S
C212   O244    1.279   .     A
C212   O242    1.279   .     A
C213   H228    1.111   .     S
C213   H229    1.110   .     S
C213   H230    1.105   .     S
C214   O247    1.282   .     A
C214   O245    1.278   .     A
C214   C216    1.402   .     S
C215   O246    1.278   .     A
C215   O248    1.282   .     A
C215   C217    1.402   .     S
C217   C266    1.330   .     S
C217   H281    1.088   .     S
C219   C352    1.395   .     S
C220   C368    1.395   .     S
H221   C266    1.088   .     S
N239   Zn249   2.013   .     S
N240   Zn250   2.013   .     S
O241   Zn249   1.986   .     S
O242   Zn250   1.986   .     S
O243   Zn250   1.984   .     S
O244   Zn249   1.984   .     S
O245   Zn249   1.968   .     S
O246   Zn250   1.968   .     S
O247   Zn250   1.980   .     S
O248   Zn249   1.980   .     S
C251   C254    1.410   .     S
C251   O293    1.279   .     A
C251   O291    1.279   .     A
C252   C254    1.408   .     A
C252   C263    1.525   .     S
C253   C269    1.410   .     A
C253   C270    1.408   .     A
C253   C262    1.410   .     S
C254   C268    1.410   .     A
C255   H282    1.082   .     S
C255   N290    1.367   .     A
C255   C1157   1.418   1_554 S
C256   H283    1.082   .     S
C256   N289    1.367   .     A
C256   C708    1.418   .     S
C257   H284    1.082   .     S
C257   N289    1.367   .     A
C257   C705    1.418   .     S
C258   N290    1.367   .     A
C258   H285    1.082   .     S
C258   C1156   1.418   1_554 S
C259   H286    1.105   .     S
C259   H287    1.110   .     S
C259   H288    1.109   .     S
C259   C268    1.522   .     S
C260   H273    1.109   .     S
C260   C269    1.522   .     S
C260   H272    1.105   .     S
C260   H274    1.110   .     S
C261   H277    1.105   .     S
C261   C270    1.525   .     S
C261   H275    1.110   .     S
C261   H276    1.111   .     S
C262   O294    1.279   .     A
C262   O292    1.279   .     A
C263   H278    1.111   .     S
C263   H279    1.110   .     S
C263   H280    1.105   .     S
C264   O297    1.282   .     A
C264   O295    1.278   .     A
C264   C266    1.402   .     S
C265   O296    1.278   .     A
C265   O298    1.282   .     A
C265   C267    1.402   .     S
C267   C166    1.330   1_655 S
C267   H181    1.088   1_655 S
C269   C402    1.395   .     S
C270   C418    1.395   .     S
H271   C166    1.088   1_655 S
N289   Zn299   2.013   .     S
N290   Zn300   2.013   .     S
O291   Zn299   1.986   .     S
O292   Zn300   1.986   .     S
O293   Zn300   1.984   .     S
O294   Zn299   1.984   .     S
O295   Zn299   1.968   .     S
O296   Zn300   1.968   .     S
O297   Zn300   1.980   .     S
O298   Zn299   1.980   .     S
C301   C304    1.410   .     S
C301   O343    1.279   .     A
C301   O341    1.279   .     A
C302   C304    1.408   .     A
C302   C313    1.525   .     S
C303   C319    1.410   .     A
C303   C320    1.408   .     A
C303   C312    1.410   .     S
C304   C318    1.410   .     A
C305   H332    1.082   .     S
C305   N340    1.367   .     A
C305   C1207   1.418   1_554 S
C306   H333    1.082   .     S
C306   N339    1.367   .     A
C306   C758    1.418   .     S
C307   H334    1.082   .     S
C307   N339    1.367   .     A
C307   C755    1.418   .     S
C308   N340    1.367   .     A
C308   H335    1.082   .     S
C308   C1206   1.418   1_554 S
C309   H336    1.105   .     S
C309   H337    1.110   .     S
C309   H338    1.109   .     S
C309   C318    1.522   .     S
C310   H323    1.109   .     S
C310   C319    1.522   .     S
C310   H322    1.105   .     S
C310   H324    1.110   .     S
C311   H327    1.105   .     S
C311   C320    1.525   .     S
C311   H325    1.110   .     S
C311   H326    1.111   .     S
C312   O344    1.279   .     A
C312   O342    1.279   .     A
C313   H328    1.111   .     S
C313   H329    1.110   .     S
C313   H330    1.105   .     S
C314   O347    1.282   .     A
C314   O345    1.278   .     A
C314   C316    1.402   .     S
C315   O346    1.278   .     A
C315   O348    1.282   .     A
C315   C317    1.402   .     S
C316   C417    1.330   1_455 S
C316   H421    1.088   1_455 S
C317   C366    1.330   .     S
C317   H381    1.088   .     S
C319   C2      1.395   1_565 S
C320   C18     1.395   1_565 S
H321   C366    1.088   .     S
H331   C417    1.088   1_455 S
N339   Zn349   2.013   .     S
N340   Zn350   2.013   .     S
O341   Zn349   1.986   .     S
O342   Zn350   1.986   .     S
O343   Zn350   1.984   .     S
O344   Zn349   1.984   .     S
O345   Zn349   1.968   .     S
O346   Zn350   1.968   .     S
O347   Zn350   1.980   .     S
O348   Zn349   1.980   .     S
C351   C354    1.410   .     S
C351   O393    1.279   .     A
C351   O391    1.279   .     A
C352   C354    1.408   .     A
C352   C363    1.525   .     S
C353   C369    1.410   .     A
C353   C370    1.408   .     A
C353   C362    1.410   .     S
C354   C368    1.410   .     A
C355   H382    1.082   .     S
C355   N390    1.367   .     A
C355   C1257   1.418   1_554 S
C356   H383    1.082   .     S
C356   N389    1.367   .     A
C356   C808    1.418   .     S
C357   H384    1.082   .     S
C357   N389    1.367   .     A
C357   C805    1.418   .     S
C358   N390    1.367   .     A
C358   H385    1.082   .     S
C358   C1256   1.418   1_554 S
C359   H386    1.105   .     S
C359   H387    1.110   .     S
C359   H388    1.109   .     S
C359   C368    1.522   .     S
C360   H373    1.109   .     S
C360   C369    1.522   .     S
C360   H372    1.105   .     S
C360   H374    1.110   .     S
C361   H377    1.105   .     S
C361   C370    1.525   .     S
C361   H375    1.110   .     S
C361   H376    1.111   .     S
C362   O394    1.279   .     A
C362   O392    1.279   .     A
C363   H378    1.111   .     S
C363   H379    1.110   .     S
C363   H380    1.105   .     S
C364   O397    1.282   .     A
C364   O395    1.278   .     A
C364   C366    1.402   .     S
C365   O396    1.278   .     A
C365   O398    1.282   .     A
C365   C367    1.402   .     S
C367   C416    1.330   .     S
C367   H431    1.088   .     S
C369   C52     1.395   1_565 S
C370   C68     1.395   1_565 S
H371   C416    1.088   .     S
N389   Zn399   2.013   .     S
N390   Zn400   2.013   .     S
O391   Zn399   1.986   .     S
O392   Zn400   1.986   .     S
O393   Zn400   1.984   .     S
O394   Zn399   1.984   .     S
O395   Zn399   1.968   .     S
O396   Zn400   1.968   .     S
O397   Zn400   1.980   .     S
O398   Zn399   1.980   .     S
C401   C404    1.410   .     S
C401   O443    1.279   .     A
C401   O441    1.279   .     A
C402   C404    1.408   .     A
C402   C413    1.525   .     S
C403   C419    1.410   .     A
C403   C420    1.408   .     A
C403   C412    1.410   .     S
C404   C418    1.410   .     A
C405   H432    1.082   .     S
C405   N440    1.367   .     A
C405   C1307   1.418   1_554 S
C406   H433    1.082   .     S
C406   N439    1.367   .     A
C406   C858    1.418   .     S
C407   H434    1.082   .     S
C407   N439    1.367   .     A
C407   C855    1.418   .     S
C408   N440    1.367   .     A
C408   H435    1.082   .     S
C408   C1306   1.418   1_554 S
C409   H436    1.105   .     S
C409   H437    1.110   .     S
C409   H438    1.109   .     S
C409   C418    1.522   .     S
C410   H423    1.109   .     S
C410   C419    1.522   .     S
C410   H422    1.105   .     S
C410   H424    1.110   .     S
C411   H427    1.105   .     S
C411   C420    1.525   .     S
C411   H425    1.110   .     S
C411   H426    1.111   .     S
C412   O444    1.279   .     A
C412   O442    1.279   .     A
C413   H428    1.111   .     S
C413   H429    1.110   .     S
C413   H430    1.105   .     S
C414   O447    1.282   .     A
C414   O445    1.278   .     A
C414   C416    1.402   .     S
C415   O446    1.278   .     A
C415   O448    1.282   .     A
C415   C417    1.402   .     S
C417   C316    1.330   1_655 S
C417   H331    1.088   1_655 S
C419   C102    1.395   1_565 S
C420   C118    1.395   1_565 S
H421   C316    1.088   1_655 S
N439   Zn449   2.013   .     S
N440   Zn450   2.013   .     S
O441   Zn449   1.986   .     S
O442   Zn450   1.986   .     S
O443   Zn450   1.984   .     S
O444   Zn449   1.984   .     S
O445   Zn449   1.968   .     S
O446   Zn450   1.968   .     S
O447   Zn450   1.980   .     S
O448   Zn449   1.980   .     S
C451   C454    1.410   .     S
C451   O493    1.279   .     A
C451   O491    1.279   .     A
C452   C454    1.408   .     A
C452   C463    1.525   .     S
C452   C769    1.395   1_545 S
C453   C469    1.410   .     A
C453   C470    1.408   .     A
C453   C462    1.410   .     S
C454   C468    1.410   .     A
C455   H482    1.082   .     S
C455   N490    1.367   .     A
C456   H483    1.082   .     S
C456   N489    1.367   .     A
C456   C908    1.418   .     S
C457   H484    1.082   .     S
C457   N489    1.367   .     A
C457   C905    1.418   .     S
C458   N490    1.367   .     A
C458   H485    1.082   .     S
C459   H486    1.105   .     S
C459   H487    1.110   .     S
C459   H488    1.109   .     S
C459   C468    1.522   .     S
C460   H473    1.109   .     S
C460   C469    1.522   .     S
C460   H472    1.105   .     S
C460   H474    1.110   .     S
C461   H477    1.105   .     S
C461   C470    1.525   .     S
C461   H475    1.110   .     S
C461   H476    1.111   .     S
C462   O494    1.279   .     A
C462   O492    1.279   .     A
C463   H478    1.111   .     S
C463   H479    1.110   .     S
C463   H480    1.105   .     S
C464   O497    1.282   .     A
C464   O495    1.278   .     A
C464   C466    1.402   .     S
C465   O496    1.278   .     A
C465   O498    1.282   .     A
C465   C467    1.402   .     S
C466   C567    1.330   1_455 S
C466   H571    1.088   1_455 S
C467   C516    1.330   .     S
C467   H531    1.088   .     S
C468   C770    1.395   1_545 S
C469   C602    1.395   .     S
C470   C618    1.395   .     S
H471   C516    1.088   .     S
H481   C567    1.088   1_455 S
N489   Zn499   2.013   .     S
N490   Zn500   2.013   .     S
O491   Zn499   1.986   .     S
O492   Zn500   1.986   .     S
O493   Zn500   1.984   .     S
O494   Zn499   1.984   .     S
O495   Zn499   1.968   .     S
O496   Zn500   1.968   .     S
O497   Zn500   1.980   .     S
O498   Zn499   1.980   .     S
C501   C504    1.410   .     S
C501   O543    1.279   .     A
C501   O541    1.279   .     A
C502   C504    1.408   .     A
C502   C513    1.525   .     S
C502   C819    1.395   1_545 S
C503   C519    1.410   .     A
C503   C520    1.408   .     A
C503   C512    1.410   .     S
C504   C518    1.410   .     A
C505   H532    1.082   .     S
C505   N540    1.367   .     A
C506   H533    1.082   .     S
C506   N539    1.367   .     A
C506   C958    1.418   .     S
C507   H534    1.082   .     S
C507   N539    1.367   .     A
C507   C955    1.418   .     S
C508   N540    1.367   .     A
C508   H535    1.082   .     S
C509   H536    1.105   .     S
C509   H537    1.110   .     S
C509   H538    1.109   .     S
C509   C518    1.522   .     S
C510   H523    1.109   .     S
C510   C519    1.522   .     S
C510   H522    1.105   .     S
C510   H524    1.110   .     S
C511   H527    1.105   .     S
C511   C520    1.525   .     S
C511   H525    1.110   .     S
C511   H526    1.111   .     S
C512   O544    1.279   .     A
C512   O542    1.279   .     A
C513   H528    1.111   .     S
C513   H529    1.110   .     S
C513   H530    1.105   .     S
C514   O547    1.282   .     A
C514   O545    1.278   .     A
C514   C516    1.402   .     S
C515   O546    1.278   .     A
C515   O548    1.282   .     A
C515   C517    1.402   .     S
C517   C566    1.330   .     S
C517   H581    1.088   .     S
C518   C820    1.395   1_545 S
C519   C652    1.395   .     S
C520   C668    1.395   .     S
H521   C566    1.088   .     S
N539   Zn549   2.013   .     S
N540   Zn550   2.013   .     S
O541   Zn549   1.986   .     S
O542   Zn550   1.986   .     S
O543   Zn550   1.984   .     S
O544   Zn549   1.984   .     S
O545   Zn549   1.968   .     S
O546   Zn550   1.968   .     S
O547   Zn550   1.980   .     S
O548   Zn549   1.980   .     S
C551   C554    1.410   .     S
C551   O593    1.279   .     A
C551   O591    1.279   .     A
C552   C554    1.408   .     A
C552   C563    1.525   .     S
C552   C869    1.395   1_545 S
C553   C569    1.410   .     A
C553   C570    1.408   .     A
C553   C562    1.410   .     S
C554   C568    1.410   .     A
C555   H582    1.082   .     S
C555   N590    1.367   .     A
C556   H583    1.082   .     S
C556   N589    1.367   .     A
C556   C1008   1.418   .     S
C557   H584    1.082   .     S
C557   N589    1.367   .     A
C557   C1005   1.418   .     S
C558   N590    1.367   .     A
C558   H585    1.082   .     S
C559   H586    1.105   .     S
C559   H587    1.110   .     S
C559   H588    1.109   .     S
C559   C568    1.522   .     S
C560   H573    1.109   .     S
C560   C569    1.522   .     S
C560   H572    1.105   .     S
C560   H574    1.110   .     S
C561   H577    1.105   .     S
C561   C570    1.525   .     S
C561   H575    1.110   .     S
C561   H576    1.111   .     S
C562   O594    1.279   .     A
C562   O592    1.279   .     A
C563   H578    1.111   .     S
C563   H579    1.110   .     S
C563   H580    1.105   .     S
C564   O597    1.282   .     A
C564   O595    1.278   .     A
C564   C566    1.402   .     S
C565   O596    1.278   .     A
C565   O598    1.282   .     A
C565   C567    1.402   .     S
C567   C466    1.330   1_655 S
C567   H481    1.088   1_655 S
C568   C870    1.395   1_545 S
C569   C702    1.395   .     S
C570   C718    1.395   .     S
H571   C466    1.088   1_655 S
N589   Zn599   2.013   .     S
N590   Zn600   2.013   .     S
O591   Zn599   1.986   .     S
O592   Zn600   1.986   .     S
O593   Zn600   1.984   .     S
O594   Zn599   1.984   .     S
O595   Zn599   1.968   .     S
O596   Zn600   1.968   .     S
O597   Zn600   1.980   .     S
O598   Zn599   1.980   .     S
C601   C604    1.410   .     S
C601   O643    1.279   .     A
C601   O641    1.279   .     A
C602   C604    1.408   .     A
C602   C613    1.525   .     S
C603   C619    1.410   .     A
C603   C620    1.408   .     A
C603   C612    1.410   .     S
C604   C618    1.410   .     A
C605   H632    1.082   .     S
C605   N640    1.367   .     A
C606   H633    1.082   .     S
C606   N639    1.367   .     A
C606   C1058   1.418   .     S
C607   H634    1.082   .     S
C607   N639    1.367   .     A
C607   C1055   1.418   .     S
C608   N640    1.367   .     A
C608   H635    1.082   .     S
C609   H636    1.105   .     S
C609   H637    1.110   .     S
C609   H638    1.109   .     S
C609   C618    1.522   .     S
C610   H623    1.109   .     S
C610   C619    1.522   .     S
C610   H622    1.105   .     S
C610   H624    1.110   .     S
C611   H627    1.105   .     S
C611   C620    1.525   .     S
C611   H625    1.110   .     S
C611   H626    1.111   .     S
C612   O644    1.279   .     A
C612   O642    1.279   .     A
C613   H628    1.111   .     S
C613   H629    1.110   .     S
C613   H630    1.105   .     S
C614   O647    1.282   .     A
C614   O645    1.278   .     A
C614   C616    1.402   .     S
C615   O646    1.278   .     A
C615   O648    1.282   .     A
C615   C617    1.402   .     S
C616   C717    1.330   1_455 S
C616   H721    1.088   1_455 S
C617   C666    1.330   .     S
C617   H681    1.088   .     S
C619   C752    1.395   .     S
C620   C768    1.395   .     S
H621   C666    1.088   .     S
H631   C717    1.088   1_455 S
N639   Zn649   2.013   .     S
N640   Zn650   2.013   .     S
O641   Zn649   1.986   .     S
O642   Zn650   1.986   .     S
O643   Zn650   1.984   .     S
O644   Zn649   1.984   .     S
O645   Zn649   1.968   .     S
O646   Zn650   1.968   .     S
O647   Zn650   1.980   .     S
O648   Zn649   1.980   .     S
C651   C654    1.410   .     S
C651   O693    1.279   .     A
C651   O691    1.279   .     A
C652   C654    1.408   .     A
C652   C663    1.525   .     S
C653   C669    1.410   .     A
C653   C670    1.408   .     A
C653   C662    1.410   .     S
C654   C668    1.410   .     A
C655   H682    1.082   .     S
C655   N690    1.367   .     A
C656   H683    1.082   .     S
C656   N689    1.367   .     A
C656   C1108   1.418   .     S
C657   H684    1.082   .     S
C657   N689    1.367   .     A
C657   C1105   1.418   .     S
C658   N690    1.367   .     A
C658   H685    1.082   .     S
C659   H686    1.105   .     S
C659   H687    1.110   .     S
C659   H688    1.109   .     S
C659   C668    1.522   .     S
C660   H673    1.109   .     S
C660   C669    1.522   .     S
C660   H672    1.105   .     S
C660   H674    1.110   .     S
C661   H677    1.105   .     S
C661   C670    1.525   .     S
C661   H675    1.110   .     S
C661   H676    1.111   .     S
C662   O694    1.279   .     A
C662   O692    1.279   .     A
C663   H678    1.111   .     S
C663   H679    1.110   .     S
C663   H680    1.105   .     S
C664   O697    1.282   .     A
C664   O695    1.278   .     A
C664   C666    1.402   .     S
C665   O696    1.278   .     A
C665   O698    1.282   .     A
C665   C667    1.402   .     S
C667   C716    1.330   .     S
C667   H731    1.088   .     S
C669   C802    1.395   .     S
C670   C818    1.395   .     S
H671   C716    1.088   .     S
N689   Zn699   2.013   .     S
N690   Zn700   2.013   .     S
O691   Zn699   1.986   .     S
O692   Zn700   1.986   .     S
O693   Zn700   1.984   .     S
O694   Zn699   1.984   .     S
O695   Zn699   1.968   .     S
O696   Zn700   1.968   .     S
O697   Zn700   1.980   .     S
O698   Zn699   1.980   .     S
C701   C704    1.410   .     S
C701   O743    1.279   .     A
C701   O741    1.279   .     A
C702   C704    1.408   .     A
C702   C713    1.525   .     S
C703   C719    1.410   .     A
C703   C720    1.408   .     A
C703   C712    1.410   .     S
C704   C718    1.410   .     A
C705   H732    1.082   .     S
C705   N740    1.367   .     A
C706   H733    1.082   .     S
C706   N739    1.367   .     A
C706   C1158   1.418   .     S
C707   H734    1.082   .     S
C707   N739    1.367   .     A
C707   C1155   1.418   .     S
C708   N740    1.367   .     A
C708   H735    1.082   .     S
C709   H736    1.105   .     S
C709   H737    1.110   .     S
C709   H738    1.109   .     S
C709   C718    1.522   .     S
C710   H723    1.109   .     S
C710   C719    1.522   .     S
C710   H722    1.105   .     S
C710   H724    1.110   .     S
C711   H727    1.105   .     S
C711   C720    1.525   .     S
C711   H725    1.110   .     S
C711   H726    1.111   .     S
C712   O744    1.279   .     A
C712   O742    1.279   .     A
C713   H728    1.111   .     S
C713   H729    1.110   .     S
C713   H730    1.105   .     S
C714   O747    1.282   .     A
C714   O745    1.278   .     A
C714   C716    1.402   .     S
C715   O746    1.278   .     A
C715   O748    1.282   .     A
C715   C717    1.402   .     S
C717   C616    1.330   1_655 S
C717   H631    1.088   1_655 S
C719   C852    1.395   .     S
C720   C868    1.395   .     S
H721   C616    1.088   1_655 S
N739   Zn749   2.013   .     S
N740   Zn750   2.013   .     S
O741   Zn749   1.986   .     S
O742   Zn750   1.986   .     S
O743   Zn750   1.984   .     S
O744   Zn749   1.984   .     S
O745   Zn749   1.968   .     S
O746   Zn750   1.968   .     S
O747   Zn750   1.980   .     S
O748   Zn749   1.980   .     S
C751   C754    1.410   .     S
C751   O793    1.279   .     A
C751   O791    1.279   .     A
C752   C754    1.408   .     A
C752   C763    1.525   .     S
C753   C769    1.410   .     A
C753   C770    1.408   .     A
C753   C762    1.410   .     S
C754   C768    1.410   .     A
C755   H782    1.082   .     S
C755   N790    1.367   .     A
C756   H783    1.082   .     S
C756   N789    1.367   .     A
C756   C1208   1.418   .     S
C757   H784    1.082   .     S
C757   N789    1.367   .     A
C757   C1205   1.418   .     S
C758   N790    1.367   .     A
C758   H785    1.082   .     S
C759   H786    1.105   .     S
C759   H787    1.110   .     S
C759   H788    1.109   .     S
C759   C768    1.522   .     S
C760   H773    1.109   .     S
C760   C769    1.522   .     S
C760   H772    1.105   .     S
C760   H774    1.110   .     S
C761   H777    1.105   .     S
C761   C770    1.525   .     S
C761   H775    1.110   .     S
C761   H776    1.111   .     S
C762   O794    1.279   .     A
C762   O792    1.279   .     A
C763   H778    1.111   .     S
C763   H779    1.110   .     S
C763   H780    1.105   .     S
C764   O797    1.282   .     A
C764   O795    1.278   .     A
C764   C766    1.402   .     S
C765   O796    1.278   .     A
C765   O798    1.282   .     A
C765   C767    1.402   .     S
C766   C867    1.330   1_455 S
C766   H871    1.088   1_455 S
C767   C816    1.330   .     S
C767   H831    1.088   .     S
C769   C452    1.395   1_565 S
C770   C468    1.395   1_565 S
H771   C816    1.088   .     S
H781   C867    1.088   1_455 S
N789   Zn799   2.013   .     S
N790   Zn800   2.013   .     S
O791   Zn799   1.986   .     S
O792   Zn800   1.986   .     S
O793   Zn800   1.984   .     S
O794   Zn799   1.984   .     S
O795   Zn799   1.968   .     S
O796   Zn800   1.968   .     S
O797   Zn800   1.980   .     S
O798   Zn799   1.980   .     S
C801   C804    1.410   .     S
C801   O843    1.279   .     A
C801   O841    1.279   .     A
C802   C804    1.408   .     A
C802   C813    1.525   .     S
C803   C819    1.410   .     A
C803   C820    1.408   .     A
C803   C812    1.410   .     S
C804   C818    1.410   .     A
C805   H832    1.082   .     S
C805   N840    1.367   .     A
C806   H833    1.082   .     S
C806   N839    1.367   .     A
C806   C1258   1.418   .     S
C807   H834    1.082   .     S
C807   N839    1.367   .     A
C807   C1255   1.418   .     S
C808   N840    1.367   .     A
C808   H835    1.082   .     S
C809   H836    1.105   .     S
C809   H837    1.110   .     S
C809   H838    1.109   .     S
C809   C818    1.522   .     S
C810   H823    1.109   .     S
C810   C819    1.522   .     S
C810   H822    1.105   .     S
C810   H824    1.110   .     S
C811   H827    1.105   .     S
C811   C820    1.525   .     S
C811   H825    1.110   .     S
C811   H826    1.111   .     S
C812   O844    1.279   .     A
C812   O842    1.279   .     A
C813   H828    1.111   .     S
C813   H829    1.110   .     S
C813   H830    1.105   .     S
C814   O847    1.282   .     A
C814   O845    1.278   .     A
C814   C816    1.402   .     S
C815   O846    1.278   .     A
C815   O848    1.282   .     A
C815   C817    1.402   .     S
C817   C866    1.330   .     S
C817   H881    1.088   .     S
C819   C502    1.395   1_565 S
C820   C518    1.395   1_565 S
H821   C866    1.088   .     S
N839   Zn849   2.013   .     S
N840   Zn850   2.013   .     S
O841   Zn849   1.986   .     S
O842   Zn850   1.986   .     S
O843   Zn850   1.984   .     S
O844   Zn849   1.984   .     S
O845   Zn849   1.968   .     S
O846   Zn850   1.968   .     S
O847   Zn850   1.980   .     S
O848   Zn849   1.980   .     S
C851   C854    1.410   .     S
C851   O893    1.279   .     A
C851   O891    1.279   .     A
C852   C854    1.408   .     A
C852   C863    1.525   .     S
C853   C869    1.410   .     A
C853   C870    1.408   .     A
C853   C862    1.410   .     S
C854   C868    1.410   .     A
C855   H882    1.082   .     S
C855   N890    1.367   .     A
C856   H883    1.082   .     S
C856   N889    1.367   .     A
C856   C1308   1.418   .     S
C857   H884    1.082   .     S
C857   N889    1.367   .     A
C857   C1305   1.418   .     S
C858   N890    1.367   .     A
C858   H885    1.082   .     S
C859   H886    1.105   .     S
C859   H887    1.110   .     S
C859   H888    1.109   .     S
C859   C868    1.522   .     S
C860   H873    1.109   .     S
C860   C869    1.522   .     S
C860   H872    1.105   .     S
C860   H874    1.110   .     S
C861   H877    1.105   .     S
C861   C870    1.525   .     S
C861   H875    1.110   .     S
C861   H876    1.111   .     S
C862   O894    1.279   .     A
C862   O892    1.279   .     A
C863   H878    1.111   .     S
C863   H879    1.110   .     S
C863   H880    1.105   .     S
C864   O897    1.282   .     A
C864   O895    1.278   .     A
C864   C866    1.402   .     S
C865   O896    1.278   .     A
C865   O898    1.282   .     A
C865   C867    1.402   .     S
C867   C766    1.330   1_655 S
C867   H781    1.088   1_655 S
C869   C552    1.395   1_565 S
C870   C568    1.395   1_565 S
H871   C766    1.088   1_655 S
N889   Zn899   2.013   .     S
N890   Zn900   2.013   .     S
O891   Zn899   1.986   .     S
O892   Zn900   1.986   .     S
O893   Zn900   1.984   .     S
O894   Zn899   1.984   .     S
O895   Zn899   1.968   .     S
O896   Zn900   1.968   .     S
O897   Zn900   1.980   .     S
O898   Zn899   1.980   .     S
C901   C904    1.410   .     S
C901   O943    1.279   .     A
C901   O941    1.279   .     A
C902   C904    1.408   .     A
C902   C913    1.525   .     S
C902   C1219   1.395   1_545 S
C903   C919    1.410   .     A
C903   C920    1.408   .     A
C903   C912    1.410   .     S
C904   C918    1.410   .     A
C905   H932    1.082   .     S
C905   N940    1.367   .     A
C906   H933    1.082   .     S
C906   N939    1.367   .     A
C906   C8      1.418   1_556 S
C907   H934    1.082   .     S
C907   N939    1.367   .     A
C907   C5      1.418   1_556 S
C908   N940    1.367   .     A
C908   H935    1.082   .     S
C909   H936    1.105   .     S
C909   H937    1.110   .     S
C909   H938    1.109   .     S
C909   C918    1.522   .     S
C910   H923    1.109   .     S
C910   C919    1.522   .     S
C910   H922    1.105   .     S
C910   H924    1.110   .     S
C911   H927    1.105   .     S
C911   C920    1.525   .     S
C911   H925    1.110   .     S
C911   H926    1.111   .     S
C912   O944    1.279   .     A
C912   O942    1.279   .     A
C913   H928    1.111   .     S
C913   H929    1.110   .     S
C913   H930    1.105   .     S
C914   O947    1.282   .     A
C914   O945    1.278   .     A
C914   C916    1.402   .     S
C915   O946    1.278   .     A
C915   O948    1.282   .     A
C915   C917    1.402   .     S
C916   C1017   1.330   1_455 S
C916   H1021   1.088   1_455 S
C917   C966    1.330   .     S
C917   H981    1.088   .     S
C918   C1220   1.395   1_545 S
C919   C1052   1.395   .     S
C920   C1068   1.395   .     S
H921   C966    1.088   .     S
H931   C1017   1.088   1_455 S
N939   Zn949   2.013   .     S
N940   Zn950   2.013   .     S
O941   Zn949   1.986   .     S
O942   Zn950   1.986   .     S
O943   Zn950   1.984   .     S
O944   Zn949   1.984   .     S
O945   Zn949   1.968   .     S
O946   Zn950   1.968   .     S
O947   Zn950   1.980   .     S
O948   Zn949   1.980   .     S
C951   C954    1.410   .     S
C951   O993    1.279   .     A
C951   O991    1.279   .     A
C952   C954    1.408   .     A
C952   C963    1.525   .     S
C952   C1269   1.395   1_545 S
C953   C969    1.410   .     A
C953   C970    1.408   .     A
C953   C962    1.410   .     S
C954   C968    1.410   .     A
C955   H982    1.082   .     S
C955   N990    1.367   .     A
C956   H983    1.082   .     S
C956   N989    1.367   .     A
C956   C58     1.418   1_556 S
C957   H984    1.082   .     S
C957   N989    1.367   .     A
C957   C55     1.418   1_556 S
C958   N990    1.367   .     A
C958   H985    1.082   .     S
C959   H986    1.105   .     S
C959   H987    1.110   .     S
C959   H988    1.109   .     S
C959   C968    1.522   .     S
C960   H973    1.109   .     S
C960   C969    1.522   .     S
C960   H972    1.105   .     S
C960   H974    1.110   .     S
C961   H977    1.105   .     S
C961   C970    1.525   .     S
C961   H975    1.110   .     S
C961   H976    1.111   .     S
C962   O994    1.279   .     A
C962   O992    1.279   .     A
C963   H978    1.111   .     S
C963   H979    1.110   .     S
C963   H980    1.105   .     S
C964   O997    1.282   .     A
C964   O995    1.278   .     A
C964   C966    1.402   .     S
C965   O996    1.278   .     A
C965   O998    1.282   .     A
C965   C967    1.402   .     S
C967   C1016   1.330   .     S
C967   H1031   1.088   .     S
C968   C1270   1.395   1_545 S
C969   C1102   1.395   .     S
C970   C1118   1.395   .     S
H971   C1016   1.088   .     S
N989   Zn999   2.013   .     S
N990   Zn1000  2.013   .     S
O991   Zn999   1.986   .     S
O992   Zn1000  1.986   .     S
O993   Zn1000  1.984   .     S
O994   Zn999   1.984   .     S
O995   Zn999   1.968   .     S
O996   Zn1000  1.968   .     S
O997   Zn1000  1.980   .     S
O998   Zn999   1.980   .     S
C1001  C1004   1.410   .     S
C1001  O1043   1.279   .     A
C1001  O1041   1.279   .     A
C1002  C1004   1.408   .     A
C1002  C1013   1.525   .     S
C1002  C1319   1.395   1_545 S
C1003  C1019   1.410   .     A
C1003  C1020   1.408   .     A
C1003  C1012   1.410   .     S
C1004  C1018   1.410   .     A
C1005  H1032   1.082   .     S
C1005  N1040   1.367   .     A
C1006  H1033   1.082   .     S
C1006  N1039   1.367   .     A
C1006  C108    1.418   1_556 S
C1007  H1034   1.082   .     S
C1007  N1039   1.367   .     A
C1007  C105    1.418   1_556 S
C1008  N1040   1.367   .     A
C1008  H1035   1.082   .     S
C1009  H1036   1.105   .     S
C1009  H1037   1.110   .     S
C1009  H1038   1.109   .     S
C1009  C1018   1.522   .     S
C1010  H1023   1.109   .     S
C1010  C1019   1.522   .     S
C1010  H1022   1.105   .     S
C1010  H1024   1.110   .     S
C1011  H1027   1.105   .     S
C1011  C1020   1.525   .     S
C1011  H1025   1.110   .     S
C1011  H1026   1.111   .     S
C1012  O1044   1.279   .     A
C1012  O1042   1.279   .     A
C1013  H1028   1.111   .     S
C1013  H1029   1.110   .     S
C1013  H1030   1.105   .     S
C1014  O1047   1.282   .     A
C1014  O1045   1.278   .     A
C1014  C1016   1.402   .     S
C1015  O1046   1.278   .     A
C1015  O1048   1.282   .     A
C1015  C1017   1.402   .     S
C1017  C916    1.330   1_655 S
C1017  H931    1.088   1_655 S
C1018  C1320   1.395   1_545 S
C1019  C1152   1.395   .     S
C1020  C1168   1.395   .     S
H1021  C916    1.088   1_655 S
N1039  Zn1049  2.013   .     S
N1040  Zn1050  2.013   .     S
O1041  Zn1049  1.986   .     S
O1042  Zn1050  1.986   .     S
O1043  Zn1050  1.984   .     S
O1044  Zn1049  1.984   .     S
O1045  Zn1049  1.968   .     S
O1046  Zn1050  1.968   .     S
O1047  Zn1050  1.980   .     S
O1048  Zn1049  1.980   .     S
C1051  C1054   1.410   .     S
C1051  O1093   1.279   .     A
C1051  O1091   1.279   .     A
C1052  C1054   1.408   .     A
C1052  C1063   1.525   .     S
C1053  C1069   1.410   .     A
C1053  C1070   1.408   .     A
C1053  C1062   1.410   .     S
C1054  C1068   1.410   .     A
C1055  H1082   1.082   .     S
C1055  N1090   1.367   .     A
C1056  H1083   1.082   .     S
C1056  N1089   1.367   .     A
C1056  C158    1.418   1_556 S
C1057  H1084   1.082   .     S
C1057  N1089   1.367   .     A
C1057  C155    1.418   1_556 S
C1058  N1090   1.367   .     A
C1058  H1085   1.082   .     S
C1059  H1086   1.105   .     S
C1059  H1087   1.110   .     S
C1059  H1088   1.109   .     S
C1059  C1068   1.522   .     S
C1060  H1073   1.109   .     S
C1060  C1069   1.522   .     S
C1060  H1072   1.105   .     S
C1060  H1074   1.110   .     S
C1061  H1077   1.105   .     S
C1061  C1070   1.525   .     S
C1061  H1075   1.110   .     S
C1061  H1076   1.111   .     S
C1062  O1094   1.279   .     A
C1062  O1092   1.279   .     A
C1063  H1078   1.111   .     S
C1063  H1079   1.110   .     S
C1063  H1080   1.105   .     S
C1064  O1097   1.282   .     A
C1064  O1095   1.278   .     A
C1064  C1066   1.402   .     S
C1065  O1096   1.278   .     A
C1065  O1098   1.282   .     A
C1065  C1067   1.402   .     S
C1066  C1167   1.330   1_455 S
C1066  H1171   1.088   1_455 S
C1067  C1116   1.330   .     S
C1067  H1131   1.088   .     S
C1069  C1202   1.395   .     S
C1070  C1218   1.395   .     S
H1071  C1116   1.088   .     S
H1081  C1167   1.088   1_455 S
N1089  Zn1099  2.013   .     S
N1090  Zn1100  2.013   .     S
O1091  Zn1099  1.986   .     S
O1092  Zn1100  1.986   .     S
O1093  Zn1100  1.984   .     S
O1094  Zn1099  1.984   .     S
O1095  Zn1099  1.968   .     S
O1096  Zn1100  1.968   .     S
O1097  Zn1100  1.980   .     S
O1098  Zn1099  1.980   .     S
C1101  C1104   1.410   .     S
C1101  O1143   1.279   .     A
C1101  O1141   1.279   .     A
C1102  C1104   1.408   .     A
C1102  C1113   1.525   .     S
C1103  C1119   1.410   .     A
C1103  C1120   1.408   .     A
C1103  C1112   1.410   .     S
C1104  C1118   1.410   .     A
C1105  H1132   1.082   .     S
C1105  N1140   1.367   .     A
C1106  H1133   1.082   .     S
C1106  N1139   1.367   .     A
C1106  C208    1.418   1_556 S
C1107  H1134   1.082   .     S
C1107  N1139   1.367   .     A
C1107  C205    1.418   1_556 S
C1108  N1140   1.367   .     A
C1108  H1135   1.082   .     S
C1109  H1136   1.105   .     S
C1109  H1137   1.110   .     S
C1109  H1138   1.109   .     S
C1109  C1118   1.522   .     S
C1110  H1123   1.109   .     S
C1110  C1119   1.522   .     S
C1110  H1122   1.105   .     S
C1110  H1124   1.110   .     S
C1111  H1127   1.105   .     S
C1111  C1120   1.525   .     S
C1111  H1125   1.110   .     S
C1111  H1126   1.111   .     S
C1112  O1144   1.279   .     A
C1112  O1142   1.279   .     A
C1113  H1128   1.111   .     S
C1113  H1129   1.110   .     S
C1113  H1130   1.105   .     S
C1114  O1147   1.282   .     A
C1114  O1145   1.278   .     A
C1114  C1116   1.402   .     S
C1115  O1146   1.278   .     A
C1115  O1148   1.282   .     A
C1115  C1117   1.402   .     S
C1117  C1166   1.330   .     S
C1117  H1181   1.088   .     S
C1119  C1252   1.395   .     S
C1120  C1268   1.395   .     S
H1121  C1166   1.088   .     S
N1139  Zn1149  2.013   .     S
N1140  Zn1150  2.013   .     S
O1141  Zn1149  1.986   .     S
O1142  Zn1150  1.986   .     S
O1143  Zn1150  1.984   .     S
O1144  Zn1149  1.984   .     S
O1145  Zn1149  1.968   .     S
O1146  Zn1150  1.968   .     S
O1147  Zn1150  1.980   .     S
O1148  Zn1149  1.980   .     S
C1151  C1154   1.410   .     S
C1151  O1193   1.279   .     A
C1151  O1191   1.279   .     A
C1152  C1154   1.408   .     A
C1152  C1163   1.525   .     S
C1153  C1169   1.410   .     A
C1153  C1170   1.408   .     A
C1153  C1162   1.410   .     S
C1154  C1168   1.410   .     A
C1155  H1182   1.082   .     S
C1155  N1190   1.367   .     A
C1156  H1183   1.082   .     S
C1156  N1189   1.367   .     A
C1156  C258    1.418   1_556 S
C1157  H1184   1.082   .     S
C1157  N1189   1.367   .     A
C1157  C255    1.418   1_556 S
C1158  N1190   1.367   .     A
C1158  H1185   1.082   .     S
C1159  H1186   1.105   .     S
C1159  H1187   1.110   .     S
C1159  H1188   1.109   .     S
C1159  C1168   1.522   .     S
C1160  H1173   1.109   .     S
C1160  C1169   1.522   .     S
C1160  H1172   1.105   .     S
C1160  H1174   1.110   .     S
C1161  H1177   1.105   .     S
C1161  C1170   1.525   .     S
C1161  H1175   1.110   .     S
C1161  H1176   1.111   .     S
C1162  O1194   1.279   .     A
C1162  O1192   1.279   .     A
C1163  H1178   1.111   .     S
C1163  H1179   1.110   .     S
C1163  H1180   1.105   .     S
C1164  O1197   1.282   .     A
C1164  O1195   1.278   .     A
C1164  C1166   1.402   .     S
C1165  O1196   1.278   .     A
C1165  O1198   1.282   .     A
C1165  C1167   1.402   .     S
C1167  C1066   1.330   1_655 S
C1167  H1081   1.088   1_655 S
C1169  C1302   1.395   .     S
C1170  C1318   1.395   .     S
H1171  C1066   1.088   1_655 S
N1189  Zn1199  2.013   .     S
N1190  Zn1200  2.013   .     S
O1191  Zn1199  1.986   .     S
O1192  Zn1200  1.986   .     S
O1193  Zn1200  1.984   .     S
O1194  Zn1199  1.984   .     S
O1195  Zn1199  1.968   .     S
O1196  Zn1200  1.968   .     S
O1197  Zn1200  1.980   .     S
O1198  Zn1199  1.980   .     S
C1201  C1204   1.410   .     S
C1201  O1243   1.279   .     A
C1201  O1241   1.279   .     A
C1202  C1204   1.408   .     A
C1202  C1213   1.525   .     S
C1203  C1219   1.410   .     A
C1203  C1220   1.408   .     A
C1203  C1212   1.410   .     S
C1204  C1218   1.410   .     A
C1205  H1232   1.082   .     S
C1205  N1240   1.367   .     A
C1206  H1233   1.082   .     S
C1206  N1239   1.367   .     A
C1206  C308    1.418   1_556 S
C1207  H1234   1.082   .     S
C1207  N1239   1.367   .     A
C1207  C305    1.418   1_556 S
C1208  N1240   1.367   .     A
C1208  H1235   1.082   .     S
C1209  H1236   1.105   .     S
C1209  H1237   1.110   .     S
C1209  H1238   1.109   .     S
C1209  C1218   1.522   .     S
C1210  H1223   1.109   .     S
C1210  C1219   1.522   .     S
C1210  H1222   1.105   .     S
C1210  H1224   1.110   .     S
C1211  H1227   1.105   .     S
C1211  C1220   1.525   .     S
C1211  H1225   1.110   .     S
C1211  H1226   1.111   .     S
C1212  O1244   1.279   .     A
C1212  O1242   1.279   .     A
C1213  H1228   1.111   .     S
C1213  H1229   1.110   .     S
C1213  H1230   1.105   .     S
C1214  O1247   1.282   .     A
C1214  O1245   1.278   .     A
C1214  C1216   1.402   .     S
C1215  O1246   1.278   .     A
C1215  O1248   1.282   .     A
C1215  C1217   1.402   .     S
C1216  C1317   1.330   1_455 S
C1216  H1321   1.088   1_455 S
C1217  C1266   1.330   .     S
C1217  H1281   1.088   .     S
C1219  C902    1.395   1_565 S
C1220  C918    1.395   1_565 S
H1221  C1266   1.088   .     S
H1231  C1317   1.088   1_455 S
N1239  Zn1249  2.013   .     S
N1240  Zn1250  2.013   .     S
O1241  Zn1249  1.986   .     S
O1242  Zn1250  1.986   .     S
O1243  Zn1250  1.984   .     S
O1244  Zn1249  1.984   .     S
O1245  Zn1249  1.968   .     S
O1246  Zn1250  1.968   .     S
O1247  Zn1250  1.980   .     S
O1248  Zn1249  1.980   .     S
C1251  C1254   1.410   .     S
C1251  O1293   1.279   .     A
C1251  O1291   1.279   .     A
C1252  C1254   1.408   .     A
C1252  C1263   1.525   .     S
C1253  C1269   1.410   .     A
C1253  C1270   1.408   .     A
C1253  C1262   1.410   .     S
C1254  C1268   1.410   .     A
C1255  H1282   1.082   .     S
C1255  N1290   1.367   .     A
C1256  H1283   1.082   .     S
C1256  N1289   1.367   .     A
C1256  C358    1.418   1_556 S
C1257  H1284   1.082   .     S
C1257  N1289   1.367   .     A
C1257  C355    1.418   1_556 S
C1258  N1290   1.367   .     A
C1258  H1285   1.082   .     S
C1259  H1286   1.105   .     S
C1259  H1287   1.110   .     S
C1259  H1288   1.109   .     S
C1259  C1268   1.522   .     S
C1260  H1273   1.109   .     S
C1260  C1269   1.522   .     S
C1260  H1272   1.105   .     S
C1260  H1274   1.110   .     S
C1261  H1277   1.105   .     S
C1261  C1270   1.525   .     S
C1261  H1275   1.110   .     S
C1261  H1276   1.111   .     S
C1262  O1294   1.279   .     A
C1262  O1292   1.279   .     A
C1263  H1278   1.111   .     S
C1263  H1279   1.110   .     S
C1263  H1280   1.105   .     S
C1264  O1297   1.282   .     A
C1264  O1295   1.278   .     A
C1264  C1266   1.402   .     S
C1265  O1296   1.278   .     A
C1265  O1298   1.282   .     A
C1265  C1267   1.402   .     S
C1267  C1316   1.330   .     S
C1267  H1331   1.088   .     S
C1269  C952    1.395   1_565 S
C1270  C968    1.395   1_565 S
H1271  C1316   1.088   .     S
N1289  Zn1299  2.013   .     S
N1290  Zn1300  2.013   .     S
O1291  Zn1299  1.986   .     S
O1292  Zn1300  1.986   .     S
O1293  Zn1300  1.984   .     S
O1294  Zn1299  1.984   .     S
O1295  Zn1299  1.968   .     S
O1296  Zn1300  1.968   .     S
O1297  Zn1300  1.980   .     S
O1298  Zn1299  1.980   .     S
C1301  C1304   1.410   .     S
C1301  O1343   1.279   .     A
C1301  O1341   1.279   .     A
C1302  C1304   1.408   .     A
C1302  C1313   1.525   .     S
C1303  C1319   1.410   .     A
C1303  C1320   1.408   .     A
C1303  C1312   1.410   .     S
C1304  C1318   1.410   .     A
C1305  H1332   1.082   .     S
C1305  N1340   1.367   .     A
C1306  H1333   1.082   .     S
C1306  N1339   1.367   .     A
C1306  C408    1.418   1_556 S
C1307  H1334   1.082   .     S
C1307  N1339   1.367   .     A
C1307  C405    1.418   1_556 S
C1308  N1340   1.367   .     A
C1308  H1335   1.082   .     S
C1309  H1336   1.105   .     S
C1309  H1337   1.110   .     S
C1309  H1338   1.109   .     S
C1309  C1318   1.522   .     S
C1310  H1323   1.109   .     S
C1310  C1319   1.522   .     S
C1310  H1322   1.105   .     S
C1310  H1324   1.110   .     S
C1311  H1327   1.105   .     S
C1311  C1320   1.525   .     S
C1311  H1325   1.110   .     S
C1311  H1326   1.111   .     S
C1312  O1344   1.279   .     A
C1312  O1342   1.279   .     A
C1313  H1328   1.111   .     S
C1313  H1329   1.110   .     S
C1313  H1330   1.105   .     S
C1314  O1347   1.282   .     A
C1314  O1345   1.278   .     A
C1314  C1316   1.402   .     S
C1315  O1346   1.278   .     A
C1315  O1348   1.282   .     A
C1315  C1317   1.402   .     S
C1317  C1216   1.330   1_655 S
C1317  H1231   1.088   1_655 S
C1319  C1002   1.395   1_565 S
C1320  C1018   1.395   1_565 S
H1321  C1216   1.088   1_655 S
N1339  Zn1349  2.013   .     S
N1340  Zn1350  2.013   .     S
O1341  Zn1349  1.986   .     S
O1342  Zn1350  1.986   .     S
O1343  Zn1350  1.984   .     S
O1344  Zn1349  1.984   .     S
O1345  Zn1349  1.968   .     S
O1346  Zn1350  1.968   .     S
O1347  Zn1350  1.980   .     S
O1348  Zn1349  1.980   .     S
