data_str_m1_o10_o18_pcu_sym.168
_audit_creation_date              2020-01-03
_audit_creation_method            'Materials Studio'
_symmetry_space_group_name_H-M    'P1'
_symmetry_Int_Tables_number       1
_symmetry_cell_setting            triclinic
loop_
_symmetry_equiv_pos_as_xyz
  x,y,z
_cell_length_a                    32.6690
_cell_length_b                    32.5980
_cell_length_c                    35.6774
_cell_angle_alpha                 98.5055
_cell_angle_beta                  73.0765
_cell_angle_gamma                 98.2628
loop_
_atom_site_label
_atom_site_type_symbol
_atom_site_fract_x
_atom_site_fract_y
_atom_site_fract_z
_atom_site_U_iso_or_equiv
_atom_site_adp_type
_atom_site_occupancy
Zn1    Zn    0.19244   0.14090   0.28277   0.00000  Uiso   1.00
Zn2    Zn    0.13459   0.12378   0.22257   0.00000  Uiso   1.00
Zn3    Zn    0.21166   0.19664   0.21188   0.00000  Uiso   1.00
Zn4    Zn    0.12798   0.20535   0.28277   0.00000  Uiso   1.00
O5     O     0.16667   0.16667   0.25000   0.00000  Uiso   1.00
O6     O     0.06990   0.18960   0.27820   0.00000  Uiso   1.00
O7     O     0.25440   0.15277   0.26767   0.00000  Uiso   1.00
O8     O     0.13800   0.06903   0.23607   0.00000  Uiso   1.00
O9     O     0.20437   0.25527   0.21805   0.00000  Uiso   1.00
O10    O     0.15693   0.12393   0.16625   0.00000  Uiso   1.00
O11    O     0.12687   0.20646   0.33749   0.00000  Uiso   1.00
O12    O     0.21088   0.17493   0.15877   0.00000  Uiso   1.00
O13    O     0.17198   0.16135   0.33749   0.00000  Uiso   1.00
O14    O     0.17849   0.08101   0.27820   0.00000  Uiso   1.00
O15    O     0.14581   0.26136   0.26767   0.00000  Uiso   1.00
O16    O     0.07452   0.13251   0.23607   0.00000  Uiso   1.00
O17    O     0.26785   0.19179   0.21805   0.00000  Uiso   1.00
C18    C     0.05284   0.16046   0.25828   0.00000  Uiso   1.00
C19    C     0.28086   0.17338   0.24149   0.00000  Uiso   1.00
C20    C     0.15634   0.05631   0.25854   0.00000  Uiso   1.00
C21    C     0.17648   0.27760   0.24162   0.00000  Uiso   1.00
C22    C     0.18805   0.14516   0.14399   0.00000  Uiso   1.00
C23    C     0.14580   0.18831   0.35620   0.00000  Uiso   1.00
C24    C     0.14000   0.20032   0.39888   0.00000  Uiso   1.00
C25    C     0.19695   0.13455   0.10121   0.00000  Uiso   1.00
C26    C     0.12558   0.25099   0.45707   0.00000  Uiso   1.00
C27    C     0.12969   0.24057   0.41695   0.00000  Uiso   1.00
C28    C     0.14749   0.17186   0.42162   0.00000  Uiso   1.00
C29    C     0.15256   0.18589   0.45968   0.00000  Uiso   1.00
C30    C     0.13654   0.22396   0.47887   0.00000  Uiso   1.00
C31    C     0.17225   0.16313   0.47955   0.00000  Uiso   1.00
C32    C     0.16892   0.17452   0.02014   0.00000  Uiso   1.00
C33    C     0.14422   0.20726   0.04009   0.00000  Uiso   1.00
C34    C     0.13085   0.23350   0.01963   0.00000  Uiso   1.00
C35    C     0.19821   0.13157   0.45927   0.00000  Uiso   1.00
C36    C     0.21230   0.10529   0.47931   0.00000  Uiso   1.00
C37    C     0.20248   0.11214   0.02091   0.00000  Uiso   1.00
C38    C     0.18780   0.15089   0.04005   0.00000  Uiso   1.00
C39    C     0.20746   0.08216   0.04391   0.00000  Uiso   1.00
C40    C     0.20270   0.09304   0.08454   0.00000  Uiso   1.00
C41    C     0.19273   0.16415   0.07823   0.00000  Uiso   1.00
H42    H     0.11539   0.28117   0.47060   0.00000  Uiso   1.00
H43    H     0.13447   0.21275   0.07183   0.00000  Uiso   1.00
H44    H     0.20900   0.12781   0.42744   0.00000  Uiso   1.00
C45    C     0.32647   0.17477   0.23829   0.00000  Uiso   1.00
H46    H     0.01598   0.19017   0.21440   0.00000  Uiso   1.00
C47    C     0.00753   0.15751   0.26347   0.00000  Uiso   1.00
C48    C     0.17954   0.32202   0.23927   0.00000  Uiso   1.00
H49    H     0.20674   0.00230   0.21732   0.00000  Uiso   1.00
C50    C     0.15035   0.01298   0.26306   0.00000  Uiso   1.00
Cl51   Cl    0.10479   0.27667   0.04702   0.00000  Uiso   1.00
N52    N     0.21312   0.03974   0.02726   0.00000  Uiso   1.00
O53    O     0.24327   0.02109   0.03268   0.00000  Uiso   1.00
O54    O     0.18624   0.01874   0.00898   0.00000  Uiso   1.00
Cl55   Cl    0.30897   0.13330   0.30523   0.00000  Uiso   1.00
Cl56   Cl    0.10379   0.33002   0.29989   0.00000  Uiso   1.00
Cl57   Cl    0.20137   0.21789   0.09520   0.00000  Uiso   1.00
N58    N     0.20415   0.06199   0.10876   0.00000  Uiso   1.00
O59    O     0.22922   0.06913   0.13197   0.00000  Uiso   1.00
O60    O     0.17966   0.02680   0.10834   0.00000  Uiso   1.00
N61    N     0.24040   0.07502   0.45657   0.00000  Uiso   1.00
O62    O     0.27662   0.07305   0.46421   0.00000  Uiso   1.00
O63    O     0.23369   0.05482   0.42422   0.00000  Uiso   1.00
Cl64   Cl    0.12139   0.27950   0.39123   0.00000  Uiso   1.00
Cl65   Cl    0.13867   0.11761   0.40647   0.00000  Uiso   1.00
Zn66   Zn    0.52577   0.14090   0.28277   0.00000  Uiso   1.00
Zn67   Zn    0.46792   0.12378   0.22257   0.00000  Uiso   1.00
Zn68   Zn    0.54500   0.19664   0.21188   0.00000  Uiso   1.00
Zn69   Zn    0.46131   0.20535   0.28277   0.00000  Uiso   1.00
O70    O     0.50000   0.16667   0.25000   0.00000  Uiso   1.00
O71    O     0.40323   0.18960   0.27820   0.00000  Uiso   1.00
O72    O     0.58773   0.15277   0.26767   0.00000  Uiso   1.00
O73    O     0.47133   0.06903   0.23607   0.00000  Uiso   1.00
O74    O     0.53771   0.25527   0.21805   0.00000  Uiso   1.00
O75    O     0.49027   0.12393   0.16625   0.00000  Uiso   1.00
O76    O     0.46020   0.20646   0.33749   0.00000  Uiso   1.00
O77    O     0.54421   0.17493   0.15877   0.00000  Uiso   1.00
O78    O     0.50532   0.16135   0.33749   0.00000  Uiso   1.00
O79    O     0.51182   0.08101   0.27820   0.00000  Uiso   1.00
O80    O     0.47914   0.26136   0.26767   0.00000  Uiso   1.00
O81    O     0.40785   0.13251   0.23607   0.00000  Uiso   1.00
O82    O     0.60119   0.19179   0.21805   0.00000  Uiso   1.00
C83    C     0.38617   0.16046   0.25828   0.00000  Uiso   1.00
C84    C     0.61419   0.17338   0.24149   0.00000  Uiso   1.00
C85    C     0.48968   0.05631   0.25854   0.00000  Uiso   1.00
C86    C     0.50982   0.27760   0.24162   0.00000  Uiso   1.00
C87    C     0.52138   0.14516   0.14399   0.00000  Uiso   1.00
C88    C     0.47913   0.18831   0.35620   0.00000  Uiso   1.00
C89    C     0.47333   0.20032   0.39888   0.00000  Uiso   1.00
C90    C     0.53029   0.13455   0.10121   0.00000  Uiso   1.00
C91    C     0.45892   0.25099   0.45707   0.00000  Uiso   1.00
C92    C     0.46302   0.24057   0.41695   0.00000  Uiso   1.00
C93    C     0.48082   0.17186   0.42162   0.00000  Uiso   1.00
C94    C     0.48589   0.18589   0.45968   0.00000  Uiso   1.00
C95    C     0.46988   0.22396   0.47887   0.00000  Uiso   1.00
C96    C     0.50559   0.16313   0.47955   0.00000  Uiso   1.00
C97    C     0.50226   0.17452   0.02014   0.00000  Uiso   1.00
C98    C     0.47755   0.20726   0.04009   0.00000  Uiso   1.00
C99    C     0.46418   0.23350   0.01963   0.00000  Uiso   1.00
C100   C     0.53155   0.13157   0.45927   0.00000  Uiso   1.00
C101   C     0.54563   0.10529   0.47931   0.00000  Uiso   1.00
C102   C     0.53581   0.11214   0.02091   0.00000  Uiso   1.00
C103   C     0.52114   0.15089   0.04005   0.00000  Uiso   1.00
C104   C     0.54079   0.08216   0.04391   0.00000  Uiso   1.00
C105   C     0.53603   0.09304   0.08454   0.00000  Uiso   1.00
C106   C     0.52606   0.16415   0.07823   0.00000  Uiso   1.00
H107   H     0.44872   0.28117   0.47060   0.00000  Uiso   1.00
H108   H     0.46780   0.21275   0.07183   0.00000  Uiso   1.00
H109   H     0.54233   0.12781   0.42744   0.00000  Uiso   1.00
C110   C     0.65980   0.17477   0.23829   0.00000  Uiso   1.00
H111   H     0.34931   0.19017   0.21440   0.00000  Uiso   1.00
C112   C     0.34086   0.15751   0.26347   0.00000  Uiso   1.00
C113   C     0.51287   0.32202   0.23927   0.00000  Uiso   1.00
H114   H     0.54007   0.00230   0.21732   0.00000  Uiso   1.00
C115   C     0.48368   0.01298   0.26306   0.00000  Uiso   1.00
Cl116  Cl    0.43812   0.27667   0.04702   0.00000  Uiso   1.00
N117   N     0.54646   0.03974   0.02726   0.00000  Uiso   1.00
O118   O     0.57660   0.02109   0.03268   0.00000  Uiso   1.00
O119   O     0.51957   0.01874   0.00898   0.00000  Uiso   1.00
Cl120  Cl    0.64231   0.13330   0.30523   0.00000  Uiso   1.00
Cl121  Cl    0.43712   0.33002   0.29989   0.00000  Uiso   1.00
Cl122  Cl    0.53470   0.21789   0.09520   0.00000  Uiso   1.00
N123   N     0.53748   0.06199   0.10876   0.00000  Uiso   1.00
O124   O     0.56255   0.06913   0.13197   0.00000  Uiso   1.00
O125   O     0.51299   0.02680   0.10834   0.00000  Uiso   1.00
N126   N     0.57373   0.07502   0.45657   0.00000  Uiso   1.00
O127   O     0.60996   0.07305   0.46421   0.00000  Uiso   1.00
O128   O     0.56703   0.05482   0.42422   0.00000  Uiso   1.00
Cl129  Cl    0.45473   0.27950   0.39123   0.00000  Uiso   1.00
Cl130  Cl    0.47200   0.11761   0.40647   0.00000  Uiso   1.00
Zn131  Zn    0.85910   0.14090   0.28277   0.00000  Uiso   1.00
Zn132  Zn    0.80125   0.12378   0.22257   0.00000  Uiso   1.00
Zn133  Zn    0.87833   0.19664   0.21188   0.00000  Uiso   1.00
Zn134  Zn    0.79465   0.20535   0.28277   0.00000  Uiso   1.00
O135   O     0.83333   0.16667   0.25000   0.00000  Uiso   1.00
O136   O     0.73656   0.18960   0.27820   0.00000  Uiso   1.00
O137   O     0.92106   0.15277   0.26767   0.00000  Uiso   1.00
O138   O     0.80467   0.06903   0.23607   0.00000  Uiso   1.00
O139   O     0.87104   0.25527   0.21805   0.00000  Uiso   1.00
O140   O     0.82360   0.12393   0.16625   0.00000  Uiso   1.00
O141   O     0.79354   0.20646   0.33749   0.00000  Uiso   1.00
O142   O     0.87755   0.17493   0.15877   0.00000  Uiso   1.00
O143   O     0.83865   0.16135   0.33749   0.00000  Uiso   1.00
O144   O     0.84515   0.08101   0.27820   0.00000  Uiso   1.00
O145   O     0.81247   0.26136   0.26767   0.00000  Uiso   1.00
O146   O     0.74119   0.13251   0.23607   0.00000  Uiso   1.00
O147   O     0.93452   0.19179   0.21805   0.00000  Uiso   1.00
C148   C     0.71950   0.16046   0.25828   0.00000  Uiso   1.00
C149   C     0.94752   0.17338   0.24149   0.00000  Uiso   1.00
C150   C     0.82301   0.05631   0.25854   0.00000  Uiso   1.00
C151   C     0.84315   0.27760   0.24162   0.00000  Uiso   1.00
C152   C     0.85471   0.14516   0.14399   0.00000  Uiso   1.00
C153   C     0.81247   0.18831   0.35620   0.00000  Uiso   1.00
C154   C     0.80666   0.20032   0.39888   0.00000  Uiso   1.00
C155   C     0.86362   0.13455   0.10121   0.00000  Uiso   1.00
C156   C     0.79225   0.25099   0.45707   0.00000  Uiso   1.00
C157   C     0.79635   0.24057   0.41695   0.00000  Uiso   1.00
C158   C     0.81415   0.17186   0.42162   0.00000  Uiso   1.00
C159   C     0.81923   0.18589   0.45968   0.00000  Uiso   1.00
C160   C     0.80321   0.22396   0.47887   0.00000  Uiso   1.00
C161   C     0.83892   0.16313   0.47955   0.00000  Uiso   1.00
C162   C     0.83559   0.17452   0.02014   0.00000  Uiso   1.00
C163   C     0.81088   0.20726   0.04009   0.00000  Uiso   1.00
C164   C     0.79752   0.23350   0.01963   0.00000  Uiso   1.00
C165   C     0.86488   0.13157   0.45927   0.00000  Uiso   1.00
C166   C     0.87896   0.10529   0.47931   0.00000  Uiso   1.00
C167   C     0.86915   0.11214   0.02091   0.00000  Uiso   1.00
C168   C     0.85447   0.15089   0.04005   0.00000  Uiso   1.00
C169   C     0.87413   0.08216   0.04391   0.00000  Uiso   1.00
C170   C     0.86936   0.09304   0.08454   0.00000  Uiso   1.00
C171   C     0.85939   0.16415   0.07823   0.00000  Uiso   1.00
H172   H     0.78206   0.28117   0.47060   0.00000  Uiso   1.00
H173   H     0.80113   0.21275   0.07183   0.00000  Uiso   1.00
H174   H     0.87567   0.12781   0.42744   0.00000  Uiso   1.00
C175   C     0.99313   0.17477   0.23829   0.00000  Uiso   1.00
H176   H     0.68265   0.19017   0.21440   0.00000  Uiso   1.00
C177   C     0.67420   0.15751   0.26347   0.00000  Uiso   1.00
C178   C     0.84621   0.32202   0.23927   0.00000  Uiso   1.00
H179   H     0.87341   0.00230   0.21732   0.00000  Uiso   1.00
C180   C     0.81702   0.01298   0.26306   0.00000  Uiso   1.00
Cl181  Cl    0.77146   0.27667   0.04702   0.00000  Uiso   1.00
N182   N     0.87979   0.03974   0.02726   0.00000  Uiso   1.00
O183   O     0.90993   0.02109   0.03268   0.00000  Uiso   1.00
O184   O     0.85290   0.01874   0.00898   0.00000  Uiso   1.00
Cl185  Cl    0.97564   0.13330   0.30523   0.00000  Uiso   1.00
Cl186  Cl    0.77045   0.33002   0.29989   0.00000  Uiso   1.00
Cl187  Cl    0.86804   0.21789   0.09520   0.00000  Uiso   1.00
N188   N     0.87081   0.06199   0.10876   0.00000  Uiso   1.00
O189   O     0.89589   0.06913   0.13197   0.00000  Uiso   1.00
O190   O     0.84632   0.02680   0.10834   0.00000  Uiso   1.00
N191   N     0.90706   0.07502   0.45657   0.00000  Uiso   1.00
O192   O     0.94329   0.07305   0.46421   0.00000  Uiso   1.00
O193   O     0.90036   0.05482   0.42422   0.00000  Uiso   1.00
Cl194  Cl    0.78806   0.27950   0.39123   0.00000  Uiso   1.00
Cl195  Cl    0.80533   0.11761   0.40647   0.00000  Uiso   1.00
Zn196  Zn    0.19244   0.47423   0.28277   0.00000  Uiso   1.00
Zn197  Zn    0.13459   0.45711   0.22257   0.00000  Uiso   1.00
Zn198  Zn    0.21166   0.52997   0.21188   0.00000  Uiso   1.00
Zn199  Zn    0.12798   0.53868   0.28277   0.00000  Uiso   1.00
O200   O     0.16667   0.50000   0.25000   0.00000  Uiso   1.00
O201   O     0.06990   0.52293   0.27820   0.00000  Uiso   1.00
O202   O     0.25440   0.48610   0.26767   0.00000  Uiso   1.00
O203   O     0.13800   0.40236   0.23607   0.00000  Uiso   1.00
O204   O     0.20437   0.58860   0.21805   0.00000  Uiso   1.00
O205   O     0.15693   0.45726   0.16625   0.00000  Uiso   1.00
O206   O     0.12687   0.53979   0.33749   0.00000  Uiso   1.00
O207   O     0.21088   0.50826   0.15877   0.00000  Uiso   1.00
O208   O     0.17198   0.49468   0.33749   0.00000  Uiso   1.00
O209   O     0.17849   0.41434   0.27820   0.00000  Uiso   1.00
O210   O     0.14581   0.59469   0.26767   0.00000  Uiso   1.00
O211   O     0.07452   0.46584   0.23607   0.00000  Uiso   1.00
O212   O     0.26785   0.52512   0.21805   0.00000  Uiso   1.00
C213   C     0.05284   0.49379   0.25828   0.00000  Uiso   1.00
C214   C     0.28086   0.50672   0.24149   0.00000  Uiso   1.00
C215   C     0.15634   0.38965   0.25854   0.00000  Uiso   1.00
C216   C     0.17648   0.61094   0.24162   0.00000  Uiso   1.00
C217   C     0.18805   0.47849   0.14399   0.00000  Uiso   1.00
C218   C     0.14580   0.52164   0.35620   0.00000  Uiso   1.00
C219   C     0.14000   0.53365   0.39888   0.00000  Uiso   1.00
C220   C     0.19695   0.46788   0.10121   0.00000  Uiso   1.00
C221   C     0.12558   0.58433   0.45707   0.00000  Uiso   1.00
C222   C     0.12969   0.57391   0.41695   0.00000  Uiso   1.00
C223   C     0.14749   0.50520   0.42162   0.00000  Uiso   1.00
C224   C     0.15256   0.51923   0.45968   0.00000  Uiso   1.00
C225   C     0.13654   0.55729   0.47887   0.00000  Uiso   1.00
C226   C     0.17225   0.49646   0.47955   0.00000  Uiso   1.00
C227   C     0.16892   0.50785   0.02014   0.00000  Uiso   1.00
C228   C     0.14422   0.54059   0.04009   0.00000  Uiso   1.00
C229   C     0.13085   0.56683   0.01963   0.00000  Uiso   1.00
C230   C     0.19821   0.46491   0.45927   0.00000  Uiso   1.00
C231   C     0.21230   0.43862   0.47931   0.00000  Uiso   1.00
C232   C     0.20248   0.44547   0.02091   0.00000  Uiso   1.00
C233   C     0.18780   0.48422   0.04005   0.00000  Uiso   1.00
C234   C     0.20746   0.41549   0.04391   0.00000  Uiso   1.00
C235   C     0.20270   0.42637   0.08454   0.00000  Uiso   1.00
C236   C     0.19273   0.49748   0.07823   0.00000  Uiso   1.00
H237   H     0.11539   0.61450   0.47060   0.00000  Uiso   1.00
H238   H     0.13447   0.54609   0.07183   0.00000  Uiso   1.00
H239   H     0.20900   0.46114   0.42744   0.00000  Uiso   1.00
C240   C     0.32647   0.50811   0.23829   0.00000  Uiso   1.00
H241   H     0.01598   0.52350   0.21440   0.00000  Uiso   1.00
C242   C     0.00753   0.49085   0.26347   0.00000  Uiso   1.00
C243   C     0.17954   0.65535   0.23927   0.00000  Uiso   1.00
H244   H     0.20674   0.33563   0.21732   0.00000  Uiso   1.00
C245   C     0.15035   0.34631   0.26306   0.00000  Uiso   1.00
Cl246  Cl    0.10479   0.61001   0.04702   0.00000  Uiso   1.00
N247   N     0.21312   0.37307   0.02726   0.00000  Uiso   1.00
O248   O     0.24327   0.35442   0.03268   0.00000  Uiso   1.00
O249   O     0.18624   0.35208   0.00898   0.00000  Uiso   1.00
Cl250  Cl    0.30897   0.46663   0.30523   0.00000  Uiso   1.00
Cl251  Cl    0.10379   0.66335   0.29989   0.00000  Uiso   1.00
Cl252  Cl    0.20137   0.55122   0.09520   0.00000  Uiso   1.00
N253   N     0.20415   0.39532   0.10876   0.00000  Uiso   1.00
O254   O     0.22922   0.40247   0.13197   0.00000  Uiso   1.00
O255   O     0.17966   0.36013   0.10834   0.00000  Uiso   1.00
N256   N     0.24040   0.40835   0.45657   0.00000  Uiso   1.00
O257   O     0.27662   0.40638   0.46421   0.00000  Uiso   1.00
O258   O     0.23369   0.38816   0.42422   0.00000  Uiso   1.00
Cl259  Cl    0.12139   0.61283   0.39123   0.00000  Uiso   1.00
Cl260  Cl    0.13867   0.45094   0.40647   0.00000  Uiso   1.00
Zn261  Zn    0.52577   0.47423   0.28277   0.00000  Uiso   1.00
Zn262  Zn    0.46792   0.45711   0.22257   0.00000  Uiso   1.00
Zn263  Zn    0.54500   0.52997   0.21188   0.00000  Uiso   1.00
Zn264  Zn    0.46131   0.53868   0.28277   0.00000  Uiso   1.00
O265   O     0.50000   0.50000   0.25000   0.00000  Uiso   1.00
O266   O     0.40323   0.52293   0.27820   0.00000  Uiso   1.00
O267   O     0.58773   0.48610   0.26767   0.00000  Uiso   1.00
O268   O     0.47133   0.40236   0.23607   0.00000  Uiso   1.00
O269   O     0.53771   0.58860   0.21805   0.00000  Uiso   1.00
O270   O     0.49027   0.45726   0.16625   0.00000  Uiso   1.00
O271   O     0.46020   0.53979   0.33749   0.00000  Uiso   1.00
O272   O     0.54421   0.50826   0.15877   0.00000  Uiso   1.00
O273   O     0.50532   0.49468   0.33749   0.00000  Uiso   1.00
O274   O     0.51182   0.41434   0.27820   0.00000  Uiso   1.00
O275   O     0.47914   0.59469   0.26767   0.00000  Uiso   1.00
O276   O     0.40785   0.46584   0.23607   0.00000  Uiso   1.00
O277   O     0.60119   0.52512   0.21805   0.00000  Uiso   1.00
C278   C     0.38617   0.49379   0.25828   0.00000  Uiso   1.00
C279   C     0.61419   0.50672   0.24149   0.00000  Uiso   1.00
C280   C     0.48968   0.38965   0.25854   0.00000  Uiso   1.00
C281   C     0.50982   0.61094   0.24162   0.00000  Uiso   1.00
C282   C     0.52138   0.47849   0.14399   0.00000  Uiso   1.00
C283   C     0.47913   0.52164   0.35620   0.00000  Uiso   1.00
C284   C     0.47333   0.53365   0.39888   0.00000  Uiso   1.00
C285   C     0.53029   0.46788   0.10121   0.00000  Uiso   1.00
C286   C     0.45892   0.58433   0.45707   0.00000  Uiso   1.00
C287   C     0.46302   0.57391   0.41695   0.00000  Uiso   1.00
C288   C     0.48082   0.50520   0.42162   0.00000  Uiso   1.00
C289   C     0.48589   0.51923   0.45968   0.00000  Uiso   1.00
C290   C     0.46988   0.55729   0.47887   0.00000  Uiso   1.00
C291   C     0.50559   0.49646   0.47955   0.00000  Uiso   1.00
C292   C     0.50226   0.50785   0.02014   0.00000  Uiso   1.00
C293   C     0.47755   0.54059   0.04009   0.00000  Uiso   1.00
C294   C     0.46418   0.56683   0.01963   0.00000  Uiso   1.00
C295   C     0.53155   0.46491   0.45927   0.00000  Uiso   1.00
C296   C     0.54563   0.43862   0.47931   0.00000  Uiso   1.00
C297   C     0.53581   0.44547   0.02091   0.00000  Uiso   1.00
C298   C     0.52114   0.48422   0.04005   0.00000  Uiso   1.00
C299   C     0.54079   0.41549   0.04391   0.00000  Uiso   1.00
C300   C     0.53603   0.42637   0.08454   0.00000  Uiso   1.00
C301   C     0.52606   0.49748   0.07823   0.00000  Uiso   1.00
H302   H     0.44872   0.61450   0.47060   0.00000  Uiso   1.00
H303   H     0.46780   0.54609   0.07183   0.00000  Uiso   1.00
H304   H     0.54233   0.46114   0.42744   0.00000  Uiso   1.00
C305   C     0.65980   0.50811   0.23829   0.00000  Uiso   1.00
H306   H     0.34931   0.52350   0.21440   0.00000  Uiso   1.00
C307   C     0.34086   0.49085   0.26347   0.00000  Uiso   1.00
C308   C     0.51287   0.65535   0.23927   0.00000  Uiso   1.00
H309   H     0.54007   0.33563   0.21732   0.00000  Uiso   1.00
C310   C     0.48368   0.34631   0.26306   0.00000  Uiso   1.00
Cl311  Cl    0.43812   0.61001   0.04702   0.00000  Uiso   1.00
N312   N     0.54646   0.37307   0.02726   0.00000  Uiso   1.00
O313   O     0.57660   0.35442   0.03268   0.00000  Uiso   1.00
O314   O     0.51957   0.35208   0.00898   0.00000  Uiso   1.00
Cl315  Cl    0.64231   0.46663   0.30523   0.00000  Uiso   1.00
Cl316  Cl    0.43712   0.66335   0.29989   0.00000  Uiso   1.00
Cl317  Cl    0.53470   0.55122   0.09520   0.00000  Uiso   1.00
N318   N     0.53748   0.39532   0.10876   0.00000  Uiso   1.00
O319   O     0.56255   0.40247   0.13197   0.00000  Uiso   1.00
O320   O     0.51299   0.36013   0.10834   0.00000  Uiso   1.00
N321   N     0.57373   0.40835   0.45657   0.00000  Uiso   1.00
O322   O     0.60996   0.40638   0.46421   0.00000  Uiso   1.00
O323   O     0.56703   0.38816   0.42422   0.00000  Uiso   1.00
Cl324  Cl    0.45473   0.61283   0.39123   0.00000  Uiso   1.00
Cl325  Cl    0.47200   0.45094   0.40647   0.00000  Uiso   1.00
Zn326  Zn    0.85910   0.47423   0.28277   0.00000  Uiso   1.00
Zn327  Zn    0.80125   0.45711   0.22257   0.00000  Uiso   1.00
Zn328  Zn    0.87833   0.52997   0.21188   0.00000  Uiso   1.00
Zn329  Zn    0.79465   0.53868   0.28277   0.00000  Uiso   1.00
O330   O     0.83333   0.50000   0.25000   0.00000  Uiso   1.00
O331   O     0.73656   0.52293   0.27820   0.00000  Uiso   1.00
O332   O     0.92106   0.48610   0.26767   0.00000  Uiso   1.00
O333   O     0.80467   0.40236   0.23607   0.00000  Uiso   1.00
O334   O     0.87104   0.58860   0.21805   0.00000  Uiso   1.00
O335   O     0.82360   0.45726   0.16625   0.00000  Uiso   1.00
O336   O     0.79354   0.53979   0.33749   0.00000  Uiso   1.00
O337   O     0.87755   0.50826   0.15877   0.00000  Uiso   1.00
O338   O     0.83865   0.49468   0.33749   0.00000  Uiso   1.00
O339   O     0.84515   0.41434   0.27820   0.00000  Uiso   1.00
O340   O     0.81247   0.59469   0.26767   0.00000  Uiso   1.00
O341   O     0.74119   0.46584   0.23607   0.00000  Uiso   1.00
O342   O     0.93452   0.52512   0.21805   0.00000  Uiso   1.00
C343   C     0.71950   0.49379   0.25828   0.00000  Uiso   1.00
C344   C     0.94752   0.50672   0.24149   0.00000  Uiso   1.00
C345   C     0.82301   0.38965   0.25854   0.00000  Uiso   1.00
C346   C     0.84315   0.61094   0.24162   0.00000  Uiso   1.00
C347   C     0.85471   0.47849   0.14399   0.00000  Uiso   1.00
C348   C     0.81247   0.52164   0.35620   0.00000  Uiso   1.00
C349   C     0.80666   0.53365   0.39888   0.00000  Uiso   1.00
C350   C     0.86362   0.46788   0.10121   0.00000  Uiso   1.00
C351   C     0.79225   0.58433   0.45707   0.00000  Uiso   1.00
C352   C     0.79635   0.57391   0.41695   0.00000  Uiso   1.00
C353   C     0.81415   0.50520   0.42162   0.00000  Uiso   1.00
C354   C     0.81923   0.51923   0.45968   0.00000  Uiso   1.00
C355   C     0.80321   0.55729   0.47887   0.00000  Uiso   1.00
C356   C     0.83892   0.49646   0.47955   0.00000  Uiso   1.00
C357   C     0.83559   0.50785   0.02014   0.00000  Uiso   1.00
C358   C     0.81088   0.54059   0.04009   0.00000  Uiso   1.00
C359   C     0.79752   0.56683   0.01963   0.00000  Uiso   1.00
C360   C     0.86488   0.46491   0.45927   0.00000  Uiso   1.00
C361   C     0.87896   0.43862   0.47931   0.00000  Uiso   1.00
C362   C     0.86915   0.44547   0.02091   0.00000  Uiso   1.00
C363   C     0.85447   0.48422   0.04005   0.00000  Uiso   1.00
C364   C     0.87413   0.41549   0.04391   0.00000  Uiso   1.00
C365   C     0.86936   0.42637   0.08454   0.00000  Uiso   1.00
C366   C     0.85939   0.49748   0.07823   0.00000  Uiso   1.00
H367   H     0.78206   0.61450   0.47060   0.00000  Uiso   1.00
H368   H     0.80113   0.54609   0.07183   0.00000  Uiso   1.00
H369   H     0.87567   0.46114   0.42744   0.00000  Uiso   1.00
C370   C     0.99313   0.50811   0.23829   0.00000  Uiso   1.00
H371   H     0.68265   0.52350   0.21440   0.00000  Uiso   1.00
C372   C     0.67420   0.49085   0.26347   0.00000  Uiso   1.00
C373   C     0.84621   0.65535   0.23927   0.00000  Uiso   1.00
H374   H     0.87341   0.33563   0.21732   0.00000  Uiso   1.00
C375   C     0.81702   0.34631   0.26306   0.00000  Uiso   1.00
Cl376  Cl    0.77146   0.61001   0.04702   0.00000  Uiso   1.00
N377   N     0.87979   0.37307   0.02726   0.00000  Uiso   1.00
O378   O     0.90993   0.35442   0.03268   0.00000  Uiso   1.00
O379   O     0.85290   0.35208   0.00898   0.00000  Uiso   1.00
Cl380  Cl    0.97564   0.46663   0.30523   0.00000  Uiso   1.00
Cl381  Cl    0.77045   0.66335   0.29989   0.00000  Uiso   1.00
Cl382  Cl    0.86804   0.55122   0.09520   0.00000  Uiso   1.00
N383   N     0.87081   0.39532   0.10876   0.00000  Uiso   1.00
O384   O     0.89589   0.40247   0.13197   0.00000  Uiso   1.00
O385   O     0.84632   0.36013   0.10834   0.00000  Uiso   1.00
N386   N     0.90706   0.40835   0.45657   0.00000  Uiso   1.00
O387   O     0.94329   0.40638   0.46421   0.00000  Uiso   1.00
O388   O     0.90036   0.38816   0.42422   0.00000  Uiso   1.00
Cl389  Cl    0.78806   0.61283   0.39123   0.00000  Uiso   1.00
Cl390  Cl    0.80533   0.45094   0.40647   0.00000  Uiso   1.00
Zn391  Zn    0.19244   0.80756   0.28277   0.00000  Uiso   1.00
Zn392  Zn    0.13459   0.79044   0.22257   0.00000  Uiso   1.00
Zn393  Zn    0.21166   0.86331   0.21188   0.00000  Uiso   1.00
Zn394  Zn    0.12798   0.87202   0.28277   0.00000  Uiso   1.00
O395   O     0.16667   0.83333   0.25000   0.00000  Uiso   1.00
O396   O     0.06990   0.85627   0.27820   0.00000  Uiso   1.00
O397   O     0.25440   0.81944   0.26767   0.00000  Uiso   1.00
O398   O     0.13800   0.73570   0.23607   0.00000  Uiso   1.00
O399   O     0.20437   0.92193   0.21805   0.00000  Uiso   1.00
O400   O     0.15693   0.79060   0.16625   0.00000  Uiso   1.00
O401   O     0.12687   0.87313   0.33749   0.00000  Uiso   1.00
O402   O     0.21088   0.84159   0.15877   0.00000  Uiso   1.00
O403   O     0.17198   0.82802   0.33749   0.00000  Uiso   1.00
O404   O     0.17849   0.74768   0.27820   0.00000  Uiso   1.00
O405   O     0.14581   0.92803   0.26767   0.00000  Uiso   1.00
O406   O     0.07452   0.79917   0.23607   0.00000  Uiso   1.00
O407   O     0.26785   0.85845   0.21805   0.00000  Uiso   1.00
C408   C     0.05284   0.82713   0.25828   0.00000  Uiso   1.00
C409   C     0.28086   0.84005   0.24149   0.00000  Uiso   1.00
C410   C     0.15634   0.72298   0.25854   0.00000  Uiso   1.00
C411   C     0.17648   0.94427   0.24162   0.00000  Uiso   1.00
C412   C     0.18805   0.81182   0.14399   0.00000  Uiso   1.00
C413   C     0.14580   0.85497   0.35620   0.00000  Uiso   1.00
C414   C     0.14000   0.86699   0.39888   0.00000  Uiso   1.00
C415   C     0.19695   0.80121   0.10121   0.00000  Uiso   1.00
C416   C     0.12558   0.91766   0.45707   0.00000  Uiso   1.00
C417   C     0.12969   0.90724   0.41695   0.00000  Uiso   1.00
C418   C     0.14749   0.83853   0.42162   0.00000  Uiso   1.00
C419   C     0.15256   0.85256   0.45968   0.00000  Uiso   1.00
C420   C     0.13654   0.89062   0.47887   0.00000  Uiso   1.00
C421   C     0.17225   0.82979   0.47955   0.00000  Uiso   1.00
C422   C     0.16892   0.84119   0.02014   0.00000  Uiso   1.00
C423   C     0.14422   0.87392   0.04009   0.00000  Uiso   1.00
C424   C     0.13085   0.90016   0.01963   0.00000  Uiso   1.00
C425   C     0.19821   0.79824   0.45927   0.00000  Uiso   1.00
C426   C     0.21230   0.77195   0.47931   0.00000  Uiso   1.00
C427   C     0.20248   0.77881   0.02091   0.00000  Uiso   1.00
C428   C     0.18780   0.81756   0.04005   0.00000  Uiso   1.00
C429   C     0.20746   0.74883   0.04391   0.00000  Uiso   1.00
C430   C     0.20270   0.75971   0.08454   0.00000  Uiso   1.00
C431   C     0.19273   0.83082   0.07823   0.00000  Uiso   1.00
H432   H     0.11539   0.94783   0.47060   0.00000  Uiso   1.00
H433   H     0.13447   0.87942   0.07183   0.00000  Uiso   1.00
H434   H     0.20900   0.79448   0.42744   0.00000  Uiso   1.00
C435   C     0.32647   0.84144   0.23829   0.00000  Uiso   1.00
H436   H     0.01598   0.85684   0.21440   0.00000  Uiso   1.00
C437   C     0.00753   0.82418   0.26347   0.00000  Uiso   1.00
C438   C     0.17954   0.98869   0.23927   0.00000  Uiso   1.00
H439   H     0.20674   0.66896   0.21732   0.00000  Uiso   1.00
C440   C     0.15035   0.67964   0.26306   0.00000  Uiso   1.00
Cl441  Cl    0.10479   0.94334   0.04702   0.00000  Uiso   1.00
N442   N     0.21312   0.70640   0.02726   0.00000  Uiso   1.00
O443   O     0.24327   0.68776   0.03268   0.00000  Uiso   1.00
O444   O     0.18624   0.68541   0.00898   0.00000  Uiso   1.00
Cl445  Cl    0.30897   0.79997   0.30523   0.00000  Uiso   1.00
Cl446  Cl    0.10379   0.99669   0.29989   0.00000  Uiso   1.00
Cl447  Cl    0.20137   0.88455   0.09520   0.00000  Uiso   1.00
N448   N     0.20415   0.72865   0.10876   0.00000  Uiso   1.00
O449   O     0.22922   0.73580   0.13197   0.00000  Uiso   1.00
O450   O     0.17966   0.69347   0.10834   0.00000  Uiso   1.00
N451   N     0.24040   0.74168   0.45657   0.00000  Uiso   1.00
O452   O     0.27662   0.73971   0.46421   0.00000  Uiso   1.00
O453   O     0.23369   0.72149   0.42422   0.00000  Uiso   1.00
Cl454  Cl    0.12139   0.94617   0.39123   0.00000  Uiso   1.00
Cl455  Cl    0.13867   0.78428   0.40647   0.00000  Uiso   1.00
Zn456  Zn    0.52577   0.80756   0.28277   0.00000  Uiso   1.00
Zn457  Zn    0.46792   0.79044   0.22257   0.00000  Uiso   1.00
Zn458  Zn    0.54500   0.86331   0.21188   0.00000  Uiso   1.00
Zn459  Zn    0.46131   0.87202   0.28277   0.00000  Uiso   1.00
O460   O     0.50000   0.83333   0.25000   0.00000  Uiso   1.00
O461   O     0.40323   0.85627   0.27820   0.00000  Uiso   1.00
O462   O     0.58773   0.81944   0.26767   0.00000  Uiso   1.00
O463   O     0.47133   0.73570   0.23607   0.00000  Uiso   1.00
O464   O     0.53771   0.92193   0.21805   0.00000  Uiso   1.00
O465   O     0.49027   0.79060   0.16625   0.00000  Uiso   1.00
O466   O     0.46020   0.87313   0.33749   0.00000  Uiso   1.00
O467   O     0.54421   0.84159   0.15877   0.00000  Uiso   1.00
O468   O     0.50532   0.82802   0.33749   0.00000  Uiso   1.00
O469   O     0.51182   0.74768   0.27820   0.00000  Uiso   1.00
O470   O     0.47914   0.92803   0.26767   0.00000  Uiso   1.00
O471   O     0.40785   0.79917   0.23607   0.00000  Uiso   1.00
O472   O     0.60119   0.85845   0.21805   0.00000  Uiso   1.00
C473   C     0.38617   0.82713   0.25828   0.00000  Uiso   1.00
C474   C     0.61419   0.84005   0.24149   0.00000  Uiso   1.00
C475   C     0.48968   0.72298   0.25854   0.00000  Uiso   1.00
C476   C     0.50982   0.94427   0.24162   0.00000  Uiso   1.00
C477   C     0.52138   0.81182   0.14399   0.00000  Uiso   1.00
C478   C     0.47913   0.85497   0.35620   0.00000  Uiso   1.00
C479   C     0.47333   0.86699   0.39888   0.00000  Uiso   1.00
C480   C     0.53029   0.80121   0.10121   0.00000  Uiso   1.00
C481   C     0.45892   0.91766   0.45707   0.00000  Uiso   1.00
C482   C     0.46302   0.90724   0.41695   0.00000  Uiso   1.00
C483   C     0.48082   0.83853   0.42162   0.00000  Uiso   1.00
C484   C     0.48589   0.85256   0.45968   0.00000  Uiso   1.00
C485   C     0.46988   0.89062   0.47887   0.00000  Uiso   1.00
C486   C     0.50559   0.82979   0.47955   0.00000  Uiso   1.00
C487   C     0.50226   0.84119   0.02014   0.00000  Uiso   1.00
C488   C     0.47755   0.87392   0.04009   0.00000  Uiso   1.00
C489   C     0.46418   0.90016   0.01963   0.00000  Uiso   1.00
C490   C     0.53155   0.79824   0.45927   0.00000  Uiso   1.00
C491   C     0.54563   0.77195   0.47931   0.00000  Uiso   1.00
C492   C     0.53581   0.77881   0.02091   0.00000  Uiso   1.00
C493   C     0.52114   0.81756   0.04005   0.00000  Uiso   1.00
C494   C     0.54079   0.74883   0.04391   0.00000  Uiso   1.00
C495   C     0.53603   0.75971   0.08454   0.00000  Uiso   1.00
C496   C     0.52606   0.83082   0.07823   0.00000  Uiso   1.00
H497   H     0.44872   0.94783   0.47060   0.00000  Uiso   1.00
H498   H     0.46780   0.87942   0.07183   0.00000  Uiso   1.00
H499   H     0.54233   0.79448   0.42744   0.00000  Uiso   1.00
C500   C     0.65980   0.84144   0.23829   0.00000  Uiso   1.00
H501   H     0.34931   0.85684   0.21440   0.00000  Uiso   1.00
C502   C     0.34086   0.82418   0.26347   0.00000  Uiso   1.00
C503   C     0.51287   0.98869   0.23927   0.00000  Uiso   1.00
H504   H     0.54007   0.66896   0.21732   0.00000  Uiso   1.00
C505   C     0.48368   0.67964   0.26306   0.00000  Uiso   1.00
Cl506  Cl    0.43812   0.94334   0.04702   0.00000  Uiso   1.00
N507   N     0.54646   0.70640   0.02726   0.00000  Uiso   1.00
O508   O     0.57660   0.68776   0.03268   0.00000  Uiso   1.00
O509   O     0.51957   0.68541   0.00898   0.00000  Uiso   1.00
Cl510  Cl    0.64231   0.79997   0.30523   0.00000  Uiso   1.00
Cl511  Cl    0.43712   0.99669   0.29989   0.00000  Uiso   1.00
Cl512  Cl    0.53470   0.88455   0.09520   0.00000  Uiso   1.00
N513   N     0.53748   0.72865   0.10876   0.00000  Uiso   1.00
O514   O     0.56255   0.73580   0.13197   0.00000  Uiso   1.00
O515   O     0.51299   0.69347   0.10834   0.00000  Uiso   1.00
N516   N     0.57373   0.74168   0.45657   0.00000  Uiso   1.00
O517   O     0.60996   0.73971   0.46421   0.00000  Uiso   1.00
O518   O     0.56703   0.72149   0.42422   0.00000  Uiso   1.00
Cl519  Cl    0.45473   0.94617   0.39123   0.00000  Uiso   1.00
Cl520  Cl    0.47200   0.78428   0.40647   0.00000  Uiso   1.00
Zn521  Zn    0.85910   0.80756   0.28277   0.00000  Uiso   1.00
Zn522  Zn    0.80125   0.79044   0.22257   0.00000  Uiso   1.00
Zn523  Zn    0.87833   0.86331   0.21188   0.00000  Uiso   1.00
Zn524  Zn    0.79465   0.87202   0.28277   0.00000  Uiso   1.00
O525   O     0.83333   0.83333   0.25000   0.00000  Uiso   1.00
O526   O     0.73656   0.85627   0.27820   0.00000  Uiso   1.00
O527   O     0.92106   0.81944   0.26767   0.00000  Uiso   1.00
O528   O     0.80467   0.73570   0.23607   0.00000  Uiso   1.00
O529   O     0.87104   0.92193   0.21805   0.00000  Uiso   1.00
O530   O     0.82360   0.79060   0.16625   0.00000  Uiso   1.00
O531   O     0.79354   0.87313   0.33749   0.00000  Uiso   1.00
O532   O     0.87755   0.84159   0.15877   0.00000  Uiso   1.00
O533   O     0.83865   0.82802   0.33749   0.00000  Uiso   1.00
O534   O     0.84515   0.74768   0.27820   0.00000  Uiso   1.00
O535   O     0.81247   0.92803   0.26767   0.00000  Uiso   1.00
O536   O     0.74119   0.79917   0.23607   0.00000  Uiso   1.00
O537   O     0.93452   0.85845   0.21805   0.00000  Uiso   1.00
C538   C     0.71950   0.82713   0.25828   0.00000  Uiso   1.00
C539   C     0.94752   0.84005   0.24149   0.00000  Uiso   1.00
C540   C     0.82301   0.72298   0.25854   0.00000  Uiso   1.00
C541   C     0.84315   0.94427   0.24162   0.00000  Uiso   1.00
C542   C     0.85471   0.81182   0.14399   0.00000  Uiso   1.00
C543   C     0.81247   0.85497   0.35620   0.00000  Uiso   1.00
C544   C     0.80666   0.86699   0.39888   0.00000  Uiso   1.00
C545   C     0.86362   0.80121   0.10121   0.00000  Uiso   1.00
C546   C     0.79225   0.91766   0.45707   0.00000  Uiso   1.00
C547   C     0.79635   0.90724   0.41695   0.00000  Uiso   1.00
C548   C     0.81415   0.83853   0.42162   0.00000  Uiso   1.00
C549   C     0.81923   0.85256   0.45968   0.00000  Uiso   1.00
C550   C     0.80321   0.89062   0.47887   0.00000  Uiso   1.00
C551   C     0.83892   0.82979   0.47955   0.00000  Uiso   1.00
C552   C     0.83559   0.84119   0.02014   0.00000  Uiso   1.00
C553   C     0.81088   0.87392   0.04009   0.00000  Uiso   1.00
C554   C     0.79752   0.90016   0.01963   0.00000  Uiso   1.00
C555   C     0.86488   0.79824   0.45927   0.00000  Uiso   1.00
C556   C     0.87896   0.77195   0.47931   0.00000  Uiso   1.00
C557   C     0.86915   0.77881   0.02091   0.00000  Uiso   1.00
C558   C     0.85447   0.81756   0.04005   0.00000  Uiso   1.00
C559   C     0.87413   0.74883   0.04391   0.00000  Uiso   1.00
C560   C     0.86936   0.75971   0.08454   0.00000  Uiso   1.00
C561   C     0.85939   0.83082   0.07823   0.00000  Uiso   1.00
H562   H     0.78206   0.94783   0.47060   0.00000  Uiso   1.00
H563   H     0.80113   0.87942   0.07183   0.00000  Uiso   1.00
H564   H     0.87567   0.79448   0.42744   0.00000  Uiso   1.00
C565   C     0.99313   0.84144   0.23829   0.00000  Uiso   1.00
H566   H     0.68265   0.85684   0.21440   0.00000  Uiso   1.00
C567   C     0.67420   0.82418   0.26347   0.00000  Uiso   1.00
C568   C     0.84621   0.98869   0.23927   0.00000  Uiso   1.00
H569   H     0.87341   0.66896   0.21732   0.00000  Uiso   1.00
C570   C     0.81702   0.67964   0.26306   0.00000  Uiso   1.00
Cl571  Cl    0.77146   0.94334   0.04702   0.00000  Uiso   1.00
N572   N     0.87979   0.70640   0.02726   0.00000  Uiso   1.00
O573   O     0.90993   0.68776   0.03268   0.00000  Uiso   1.00
O574   O     0.85290   0.68541   0.00898   0.00000  Uiso   1.00
Cl575  Cl    0.97564   0.79997   0.30523   0.00000  Uiso   1.00
Cl576  Cl    0.77045   0.99669   0.29989   0.00000  Uiso   1.00
Cl577  Cl    0.86804   0.88455   0.09520   0.00000  Uiso   1.00
N578   N     0.87081   0.72865   0.10876   0.00000  Uiso   1.00
O579   O     0.89589   0.73580   0.13197   0.00000  Uiso   1.00
O580   O     0.84632   0.69347   0.10834   0.00000  Uiso   1.00
N581   N     0.90706   0.74168   0.45657   0.00000  Uiso   1.00
O582   O     0.94329   0.73971   0.46421   0.00000  Uiso   1.00
O583   O     0.90036   0.72149   0.42422   0.00000  Uiso   1.00
Cl584  Cl    0.78806   0.94617   0.39123   0.00000  Uiso   1.00
Cl585  Cl    0.80533   0.78428   0.40647   0.00000  Uiso   1.00
Zn586  Zn    0.19244   0.14090   0.78277   0.00000  Uiso   1.00
Zn587  Zn    0.13459   0.12378   0.72257   0.00000  Uiso   1.00
Zn588  Zn    0.21166   0.19664   0.71188   0.00000  Uiso   1.00
Zn589  Zn    0.12798   0.20535   0.78277   0.00000  Uiso   1.00
O590   O     0.16667   0.16667   0.75000   0.00000  Uiso   1.00
O591   O     0.06990   0.18960   0.77820   0.00000  Uiso   1.00
O592   O     0.25440   0.15277   0.76767   0.00000  Uiso   1.00
O593   O     0.13800   0.06903   0.73607   0.00000  Uiso   1.00
O594   O     0.20437   0.25527   0.71805   0.00000  Uiso   1.00
O595   O     0.15693   0.12393   0.66625   0.00000  Uiso   1.00
O596   O     0.12687   0.20646   0.83749   0.00000  Uiso   1.00
O597   O     0.21088   0.17493   0.65877   0.00000  Uiso   1.00
O598   O     0.17198   0.16135   0.83749   0.00000  Uiso   1.00
O599   O     0.17849   0.08101   0.77820   0.00000  Uiso   1.00
O600   O     0.14581   0.26136   0.76767   0.00000  Uiso   1.00
O601   O     0.07452   0.13251   0.73607   0.00000  Uiso   1.00
O602   O     0.26785   0.19179   0.71805   0.00000  Uiso   1.00
C603   C     0.05284   0.16046   0.75828   0.00000  Uiso   1.00
C604   C     0.28086   0.17338   0.74149   0.00000  Uiso   1.00
C605   C     0.15634   0.05631   0.75854   0.00000  Uiso   1.00
C606   C     0.17648   0.27760   0.74162   0.00000  Uiso   1.00
C607   C     0.18805   0.14516   0.64399   0.00000  Uiso   1.00
C608   C     0.14580   0.18831   0.85620   0.00000  Uiso   1.00
C609   C     0.14000   0.20032   0.89888   0.00000  Uiso   1.00
C610   C     0.19695   0.13455   0.60121   0.00000  Uiso   1.00
C611   C     0.12558   0.25099   0.95707   0.00000  Uiso   1.00
C612   C     0.12969   0.24057   0.91695   0.00000  Uiso   1.00
C613   C     0.14749   0.17186   0.92162   0.00000  Uiso   1.00
C614   C     0.15256   0.18589   0.95968   0.00000  Uiso   1.00
C615   C     0.13654   0.22396   0.97887   0.00000  Uiso   1.00
C616   C     0.17225   0.16313   0.97955   0.00000  Uiso   1.00
C617   C     0.16892   0.17452   0.52014   0.00000  Uiso   1.00
C618   C     0.14422   0.20726   0.54009   0.00000  Uiso   1.00
C619   C     0.13085   0.23350   0.51963   0.00000  Uiso   1.00
C620   C     0.19821   0.13157   0.95927   0.00000  Uiso   1.00
C621   C     0.21230   0.10529   0.97931   0.00000  Uiso   1.00
C622   C     0.20248   0.11214   0.52091   0.00000  Uiso   1.00
C623   C     0.18780   0.15089   0.54005   0.00000  Uiso   1.00
C624   C     0.20746   0.08216   0.54391   0.00000  Uiso   1.00
C625   C     0.20270   0.09304   0.58454   0.00000  Uiso   1.00
C626   C     0.19273   0.16415   0.57823   0.00000  Uiso   1.00
H627   H     0.11539   0.28117   0.97060   0.00000  Uiso   1.00
H628   H     0.13447   0.21275   0.57183   0.00000  Uiso   1.00
H629   H     0.20900   0.12781   0.92744   0.00000  Uiso   1.00
C630   C     0.32647   0.17477   0.73829   0.00000  Uiso   1.00
H631   H     0.01598   0.19017   0.71440   0.00000  Uiso   1.00
C632   C     0.00753   0.15751   0.76347   0.00000  Uiso   1.00
C633   C     0.17954   0.32202   0.73927   0.00000  Uiso   1.00
H634   H     0.20674   0.00230   0.71732   0.00000  Uiso   1.00
C635   C     0.15035   0.01298   0.76306   0.00000  Uiso   1.00
Cl636  Cl    0.10479   0.27667   0.54702   0.00000  Uiso   1.00
N637   N     0.21312   0.03974   0.52726   0.00000  Uiso   1.00
O638   O     0.24327   0.02109   0.53268   0.00000  Uiso   1.00
O639   O     0.18624   0.01874   0.50898   0.00000  Uiso   1.00
Cl640  Cl    0.30897   0.13330   0.80523   0.00000  Uiso   1.00
Cl641  Cl    0.10379   0.33002   0.79989   0.00000  Uiso   1.00
Cl642  Cl    0.20137   0.21789   0.59520   0.00000  Uiso   1.00
N643   N     0.20415   0.06199   0.60876   0.00000  Uiso   1.00
O644   O     0.22922   0.06913   0.63197   0.00000  Uiso   1.00
O645   O     0.17966   0.02680   0.60834   0.00000  Uiso   1.00
N646   N     0.24040   0.07502   0.95657   0.00000  Uiso   1.00
O647   O     0.27662   0.07305   0.96421   0.00000  Uiso   1.00
O648   O     0.23369   0.05482   0.92422   0.00000  Uiso   1.00
Cl649  Cl    0.12139   0.27950   0.89123   0.00000  Uiso   1.00
Cl650  Cl    0.13867   0.11761   0.90647   0.00000  Uiso   1.00
Zn651  Zn    0.52577   0.14090   0.78277   0.00000  Uiso   1.00
Zn652  Zn    0.46792   0.12378   0.72257   0.00000  Uiso   1.00
Zn653  Zn    0.54500   0.19664   0.71188   0.00000  Uiso   1.00
Zn654  Zn    0.46131   0.20535   0.78277   0.00000  Uiso   1.00
O655   O     0.50000   0.16667   0.75000   0.00000  Uiso   1.00
O656   O     0.40323   0.18960   0.77820   0.00000  Uiso   1.00
O657   O     0.58773   0.15277   0.76767   0.00000  Uiso   1.00
O658   O     0.47133   0.06903   0.73607   0.00000  Uiso   1.00
O659   O     0.53771   0.25527   0.71805   0.00000  Uiso   1.00
O660   O     0.49027   0.12393   0.66625   0.00000  Uiso   1.00
O661   O     0.46020   0.20646   0.83749   0.00000  Uiso   1.00
O662   O     0.54421   0.17493   0.65877   0.00000  Uiso   1.00
O663   O     0.50532   0.16135   0.83749   0.00000  Uiso   1.00
O664   O     0.51182   0.08101   0.77820   0.00000  Uiso   1.00
O665   O     0.47914   0.26136   0.76767   0.00000  Uiso   1.00
O666   O     0.40785   0.13251   0.73607   0.00000  Uiso   1.00
O667   O     0.60119   0.19179   0.71805   0.00000  Uiso   1.00
C668   C     0.38617   0.16046   0.75828   0.00000  Uiso   1.00
C669   C     0.61419   0.17338   0.74149   0.00000  Uiso   1.00
C670   C     0.48968   0.05631   0.75854   0.00000  Uiso   1.00
C671   C     0.50982   0.27760   0.74162   0.00000  Uiso   1.00
C672   C     0.52138   0.14516   0.64399   0.00000  Uiso   1.00
C673   C     0.47913   0.18831   0.85620   0.00000  Uiso   1.00
C674   C     0.47333   0.20032   0.89888   0.00000  Uiso   1.00
C675   C     0.53029   0.13455   0.60121   0.00000  Uiso   1.00
C676   C     0.45892   0.25099   0.95707   0.00000  Uiso   1.00
C677   C     0.46302   0.24057   0.91695   0.00000  Uiso   1.00
C678   C     0.48082   0.17186   0.92162   0.00000  Uiso   1.00
C679   C     0.48589   0.18589   0.95968   0.00000  Uiso   1.00
C680   C     0.46988   0.22396   0.97887   0.00000  Uiso   1.00
C681   C     0.50559   0.16313   0.97955   0.00000  Uiso   1.00
C682   C     0.50226   0.17452   0.52014   0.00000  Uiso   1.00
C683   C     0.47755   0.20726   0.54009   0.00000  Uiso   1.00
C684   C     0.46418   0.23350   0.51963   0.00000  Uiso   1.00
C685   C     0.53155   0.13157   0.95927   0.00000  Uiso   1.00
C686   C     0.54563   0.10529   0.97931   0.00000  Uiso   1.00
C687   C     0.53581   0.11214   0.52091   0.00000  Uiso   1.00
C688   C     0.52114   0.15089   0.54005   0.00000  Uiso   1.00
C689   C     0.54079   0.08216   0.54391   0.00000  Uiso   1.00
C690   C     0.53603   0.09304   0.58454   0.00000  Uiso   1.00
C691   C     0.52606   0.16415   0.57823   0.00000  Uiso   1.00
H692   H     0.44872   0.28117   0.97060   0.00000  Uiso   1.00
H693   H     0.46780   0.21275   0.57183   0.00000  Uiso   1.00
H694   H     0.54233   0.12781   0.92744   0.00000  Uiso   1.00
C695   C     0.65980   0.17477   0.73829   0.00000  Uiso   1.00
H696   H     0.34931   0.19017   0.71440   0.00000  Uiso   1.00
C697   C     0.34086   0.15751   0.76347   0.00000  Uiso   1.00
C698   C     0.51287   0.32202   0.73927   0.00000  Uiso   1.00
H699   H     0.54007   0.00230   0.71732   0.00000  Uiso   1.00
C700   C     0.48368   0.01298   0.76306   0.00000  Uiso   1.00
Cl701  Cl    0.43812   0.27667   0.54702   0.00000  Uiso   1.00
N702   N     0.54646   0.03974   0.52726   0.00000  Uiso   1.00
O703   O     0.57660   0.02109   0.53268   0.00000  Uiso   1.00
O704   O     0.51957   0.01874   0.50898   0.00000  Uiso   1.00
Cl705  Cl    0.64231   0.13330   0.80523   0.00000  Uiso   1.00
Cl706  Cl    0.43712   0.33002   0.79989   0.00000  Uiso   1.00
Cl707  Cl    0.53470   0.21789   0.59520   0.00000  Uiso   1.00
N708   N     0.53748   0.06199   0.60876   0.00000  Uiso   1.00
O709   O     0.56255   0.06913   0.63197   0.00000  Uiso   1.00
O710   O     0.51299   0.02680   0.60834   0.00000  Uiso   1.00
N711   N     0.57373   0.07502   0.95657   0.00000  Uiso   1.00
O712   O     0.60996   0.07305   0.96421   0.00000  Uiso   1.00
O713   O     0.56703   0.05482   0.92422   0.00000  Uiso   1.00
Cl714  Cl    0.45473   0.27950   0.89123   0.00000  Uiso   1.00
Cl715  Cl    0.47200   0.11761   0.90647   0.00000  Uiso   1.00
Zn716  Zn    0.85910   0.14090   0.78277   0.00000  Uiso   1.00
Zn717  Zn    0.80125   0.12378   0.72257   0.00000  Uiso   1.00
Zn718  Zn    0.87833   0.19664   0.71188   0.00000  Uiso   1.00
Zn719  Zn    0.79465   0.20535   0.78277   0.00000  Uiso   1.00
O720   O     0.83333   0.16667   0.75000   0.00000  Uiso   1.00
O721   O     0.73656   0.18960   0.77820   0.00000  Uiso   1.00
O722   O     0.92106   0.15277   0.76767   0.00000  Uiso   1.00
O723   O     0.80467   0.06903   0.73607   0.00000  Uiso   1.00
O724   O     0.87104   0.25527   0.71805   0.00000  Uiso   1.00
O725   O     0.82360   0.12393   0.66625   0.00000  Uiso   1.00
O726   O     0.79354   0.20646   0.83749   0.00000  Uiso   1.00
O727   O     0.87755   0.17493   0.65877   0.00000  Uiso   1.00
O728   O     0.83865   0.16135   0.83749   0.00000  Uiso   1.00
O729   O     0.84515   0.08101   0.77820   0.00000  Uiso   1.00
O730   O     0.81247   0.26136   0.76767   0.00000  Uiso   1.00
O731   O     0.74119   0.13251   0.73607   0.00000  Uiso   1.00
O732   O     0.93452   0.19179   0.71805   0.00000  Uiso   1.00
C733   C     0.71950   0.16046   0.75828   0.00000  Uiso   1.00
C734   C     0.94752   0.17338   0.74149   0.00000  Uiso   1.00
C735   C     0.82301   0.05631   0.75854   0.00000  Uiso   1.00
C736   C     0.84315   0.27760   0.74162   0.00000  Uiso   1.00
C737   C     0.85471   0.14516   0.64399   0.00000  Uiso   1.00
C738   C     0.81247   0.18831   0.85620   0.00000  Uiso   1.00
C739   C     0.80666   0.20032   0.89888   0.00000  Uiso   1.00
C740   C     0.86362   0.13455   0.60121   0.00000  Uiso   1.00
C741   C     0.79225   0.25099   0.95707   0.00000  Uiso   1.00
C742   C     0.79635   0.24057   0.91695   0.00000  Uiso   1.00
C743   C     0.81415   0.17186   0.92162   0.00000  Uiso   1.00
C744   C     0.81923   0.18589   0.95968   0.00000  Uiso   1.00
C745   C     0.80321   0.22396   0.97887   0.00000  Uiso   1.00
C746   C     0.83892   0.16313   0.97955   0.00000  Uiso   1.00
C747   C     0.83559   0.17452   0.52014   0.00000  Uiso   1.00
C748   C     0.81088   0.20726   0.54009   0.00000  Uiso   1.00
C749   C     0.79752   0.23350   0.51963   0.00000  Uiso   1.00
C750   C     0.86488   0.13157   0.95927   0.00000  Uiso   1.00
C751   C     0.87896   0.10529   0.97931   0.00000  Uiso   1.00
C752   C     0.86915   0.11214   0.52091   0.00000  Uiso   1.00
C753   C     0.85447   0.15089   0.54005   0.00000  Uiso   1.00
C754   C     0.87413   0.08216   0.54391   0.00000  Uiso   1.00
C755   C     0.86936   0.09304   0.58454   0.00000  Uiso   1.00
C756   C     0.85939   0.16415   0.57823   0.00000  Uiso   1.00
H757   H     0.78206   0.28117   0.97060   0.00000  Uiso   1.00
H758   H     0.80113   0.21275   0.57183   0.00000  Uiso   1.00
H759   H     0.87567   0.12781   0.92744   0.00000  Uiso   1.00
C760   C     0.99313   0.17477   0.73829   0.00000  Uiso   1.00
H761   H     0.68265   0.19017   0.71440   0.00000  Uiso   1.00
C762   C     0.67420   0.15751   0.76347   0.00000  Uiso   1.00
C763   C     0.84621   0.32202   0.73927   0.00000  Uiso   1.00
H764   H     0.87341   0.00230   0.71732   0.00000  Uiso   1.00
C765   C     0.81702   0.01298   0.76306   0.00000  Uiso   1.00
Cl766  Cl    0.77146   0.27667   0.54702   0.00000  Uiso   1.00
N767   N     0.87979   0.03974   0.52726   0.00000  Uiso   1.00
O768   O     0.90993   0.02109   0.53268   0.00000  Uiso   1.00
O769   O     0.85290   0.01874   0.50898   0.00000  Uiso   1.00
Cl770  Cl    0.97564   0.13330   0.80523   0.00000  Uiso   1.00
Cl771  Cl    0.77045   0.33002   0.79989   0.00000  Uiso   1.00
Cl772  Cl    0.86804   0.21789   0.59520   0.00000  Uiso   1.00
N773   N     0.87081   0.06199   0.60876   0.00000  Uiso   1.00
O774   O     0.89589   0.06913   0.63197   0.00000  Uiso   1.00
O775   O     0.84632   0.02680   0.60834   0.00000  Uiso   1.00
N776   N     0.90706   0.07502   0.95657   0.00000  Uiso   1.00
O777   O     0.94329   0.07305   0.96421   0.00000  Uiso   1.00
O778   O     0.90036   0.05482   0.92422   0.00000  Uiso   1.00
Cl779  Cl    0.78806   0.27950   0.89123   0.00000  Uiso   1.00
Cl780  Cl    0.80533   0.11761   0.90647   0.00000  Uiso   1.00
Zn781  Zn    0.19244   0.47423   0.78277   0.00000  Uiso   1.00
Zn782  Zn    0.13459   0.45711   0.72257   0.00000  Uiso   1.00
Zn783  Zn    0.21166   0.52997   0.71188   0.00000  Uiso   1.00
Zn784  Zn    0.12798   0.53868   0.78277   0.00000  Uiso   1.00
O785   O     0.16667   0.50000   0.75000   0.00000  Uiso   1.00
O786   O     0.06990   0.52293   0.77820   0.00000  Uiso   1.00
O787   O     0.25440   0.48610   0.76767   0.00000  Uiso   1.00
O788   O     0.13800   0.40236   0.73607   0.00000  Uiso   1.00
O789   O     0.20437   0.58860   0.71805   0.00000  Uiso   1.00
O790   O     0.15693   0.45726   0.66625   0.00000  Uiso   1.00
O791   O     0.12687   0.53979   0.83749   0.00000  Uiso   1.00
O792   O     0.21088   0.50826   0.65877   0.00000  Uiso   1.00
O793   O     0.17198   0.49468   0.83749   0.00000  Uiso   1.00
O794   O     0.17849   0.41434   0.77820   0.00000  Uiso   1.00
O795   O     0.14581   0.59469   0.76767   0.00000  Uiso   1.00
O796   O     0.07452   0.46584   0.73607   0.00000  Uiso   1.00
O797   O     0.26785   0.52512   0.71805   0.00000  Uiso   1.00
C798   C     0.05284   0.49379   0.75828   0.00000  Uiso   1.00
C799   C     0.28086   0.50672   0.74149   0.00000  Uiso   1.00
C800   C     0.15634   0.38965   0.75854   0.00000  Uiso   1.00
C801   C     0.17648   0.61094   0.74162   0.00000  Uiso   1.00
C802   C     0.18805   0.47849   0.64399   0.00000  Uiso   1.00
C803   C     0.14580   0.52164   0.85620   0.00000  Uiso   1.00
C804   C     0.14000   0.53365   0.89888   0.00000  Uiso   1.00
C805   C     0.19695   0.46788   0.60121   0.00000  Uiso   1.00
C806   C     0.12558   0.58433   0.95707   0.00000  Uiso   1.00
C807   C     0.12969   0.57391   0.91695   0.00000  Uiso   1.00
C808   C     0.14749   0.50520   0.92162   0.00000  Uiso   1.00
C809   C     0.15256   0.51923   0.95968   0.00000  Uiso   1.00
C810   C     0.13654   0.55729   0.97887   0.00000  Uiso   1.00
C811   C     0.17225   0.49646   0.97955   0.00000  Uiso   1.00
C812   C     0.16892   0.50785   0.52014   0.00000  Uiso   1.00
C813   C     0.14422   0.54059   0.54009   0.00000  Uiso   1.00
C814   C     0.13085   0.56683   0.51963   0.00000  Uiso   1.00
C815   C     0.19821   0.46491   0.95927   0.00000  Uiso   1.00
C816   C     0.21230   0.43862   0.97931   0.00000  Uiso   1.00
C817   C     0.20248   0.44547   0.52091   0.00000  Uiso   1.00
C818   C     0.18780   0.48422   0.54005   0.00000  Uiso   1.00
C819   C     0.20746   0.41549   0.54391   0.00000  Uiso   1.00
C820   C     0.20270   0.42637   0.58454   0.00000  Uiso   1.00
C821   C     0.19273   0.49748   0.57823   0.00000  Uiso   1.00
H822   H     0.11539   0.61450   0.97060   0.00000  Uiso   1.00
H823   H     0.13447   0.54609   0.57183   0.00000  Uiso   1.00
H824   H     0.20900   0.46114   0.92744   0.00000  Uiso   1.00
C825   C     0.32647   0.50811   0.73829   0.00000  Uiso   1.00
H826   H     0.01598   0.52350   0.71440   0.00000  Uiso   1.00
C827   C     0.00753   0.49085   0.76347   0.00000  Uiso   1.00
C828   C     0.17954   0.65535   0.73927   0.00000  Uiso   1.00
H829   H     0.20674   0.33563   0.71732   0.00000  Uiso   1.00
C830   C     0.15035   0.34631   0.76306   0.00000  Uiso   1.00
Cl831  Cl    0.10479   0.61001   0.54702   0.00000  Uiso   1.00
N832   N     0.21312   0.37307   0.52726   0.00000  Uiso   1.00
O833   O     0.24327   0.35442   0.53268   0.00000  Uiso   1.00
O834   O     0.18624   0.35208   0.50898   0.00000  Uiso   1.00
Cl835  Cl    0.30897   0.46663   0.80523   0.00000  Uiso   1.00
Cl836  Cl    0.10379   0.66335   0.79989   0.00000  Uiso   1.00
Cl837  Cl    0.20137   0.55122   0.59520   0.00000  Uiso   1.00
N838   N     0.20415   0.39532   0.60876   0.00000  Uiso   1.00
O839   O     0.22922   0.40247   0.63197   0.00000  Uiso   1.00
O840   O     0.17966   0.36013   0.60834   0.00000  Uiso   1.00
N841   N     0.24040   0.40835   0.95657   0.00000  Uiso   1.00
O842   O     0.27662   0.40638   0.96421   0.00000  Uiso   1.00
O843   O     0.23369   0.38816   0.92422   0.00000  Uiso   1.00
Cl844  Cl    0.12139   0.61283   0.89123   0.00000  Uiso   1.00
Cl845  Cl    0.13867   0.45094   0.90647   0.00000  Uiso   1.00
Zn846  Zn    0.52577   0.47423   0.78277   0.00000  Uiso   1.00
Zn847  Zn    0.46792   0.45711   0.72257   0.00000  Uiso   1.00
Zn848  Zn    0.54500   0.52997   0.71188   0.00000  Uiso   1.00
Zn849  Zn    0.46131   0.53868   0.78277   0.00000  Uiso   1.00
O850   O     0.50000   0.50000   0.75000   0.00000  Uiso   1.00
O851   O     0.40323   0.52293   0.77820   0.00000  Uiso   1.00
O852   O     0.58773   0.48610   0.76767   0.00000  Uiso   1.00
O853   O     0.47133   0.40236   0.73607   0.00000  Uiso   1.00
O854   O     0.53771   0.58860   0.71805   0.00000  Uiso   1.00
O855   O     0.49027   0.45726   0.66625   0.00000  Uiso   1.00
O856   O     0.46020   0.53979   0.83749   0.00000  Uiso   1.00
O857   O     0.54421   0.50826   0.65877   0.00000  Uiso   1.00
O858   O     0.50532   0.49468   0.83749   0.00000  Uiso   1.00
O859   O     0.51182   0.41434   0.77820   0.00000  Uiso   1.00
O860   O     0.47914   0.59469   0.76767   0.00000  Uiso   1.00
O861   O     0.40785   0.46584   0.73607   0.00000  Uiso   1.00
O862   O     0.60119   0.52512   0.71805   0.00000  Uiso   1.00
C863   C     0.38617   0.49379   0.75828   0.00000  Uiso   1.00
C864   C     0.61419   0.50672   0.74149   0.00000  Uiso   1.00
C865   C     0.48968   0.38965   0.75854   0.00000  Uiso   1.00
C866   C     0.50982   0.61094   0.74162   0.00000  Uiso   1.00
C867   C     0.52138   0.47849   0.64399   0.00000  Uiso   1.00
C868   C     0.47913   0.52164   0.85620   0.00000  Uiso   1.00
C869   C     0.47333   0.53365   0.89888   0.00000  Uiso   1.00
C870   C     0.53029   0.46788   0.60121   0.00000  Uiso   1.00
C871   C     0.45892   0.58433   0.95707   0.00000  Uiso   1.00
C872   C     0.46302   0.57391   0.91695   0.00000  Uiso   1.00
C873   C     0.48082   0.50520   0.92162   0.00000  Uiso   1.00
C874   C     0.48589   0.51923   0.95968   0.00000  Uiso   1.00
C875   C     0.46988   0.55729   0.97887   0.00000  Uiso   1.00
C876   C     0.50559   0.49646   0.97955   0.00000  Uiso   1.00
C877   C     0.50226   0.50785   0.52014   0.00000  Uiso   1.00
C878   C     0.47755   0.54059   0.54009   0.00000  Uiso   1.00
C879   C     0.46418   0.56683   0.51963   0.00000  Uiso   1.00
C880   C     0.53155   0.46491   0.95927   0.00000  Uiso   1.00
C881   C     0.54563   0.43862   0.97931   0.00000  Uiso   1.00
C882   C     0.53581   0.44547   0.52091   0.00000  Uiso   1.00
C883   C     0.52114   0.48422   0.54005   0.00000  Uiso   1.00
C884   C     0.54079   0.41549   0.54391   0.00000  Uiso   1.00
C885   C     0.53603   0.42637   0.58454   0.00000  Uiso   1.00
C886   C     0.52606   0.49748   0.57823   0.00000  Uiso   1.00
H887   H     0.44872   0.61450   0.97060   0.00000  Uiso   1.00
H888   H     0.46780   0.54609   0.57183   0.00000  Uiso   1.00
H889   H     0.54233   0.46114   0.92744   0.00000  Uiso   1.00
C890   C     0.65980   0.50811   0.73829   0.00000  Uiso   1.00
H891   H     0.34931   0.52350   0.71440   0.00000  Uiso   1.00
C892   C     0.34086   0.49085   0.76347   0.00000  Uiso   1.00
C893   C     0.51287   0.65535   0.73927   0.00000  Uiso   1.00
H894   H     0.54007   0.33563   0.71732   0.00000  Uiso   1.00
C895   C     0.48368   0.34631   0.76306   0.00000  Uiso   1.00
Cl896  Cl    0.43812   0.61001   0.54702   0.00000  Uiso   1.00
N897   N     0.54646   0.37307   0.52726   0.00000  Uiso   1.00
O898   O     0.57660   0.35442   0.53268   0.00000  Uiso   1.00
O899   O     0.51957   0.35208   0.50898   0.00000  Uiso   1.00
Cl900  Cl    0.64231   0.46663   0.80523   0.00000  Uiso   1.00
Cl901  Cl    0.43712   0.66335   0.79989   0.00000  Uiso   1.00
Cl902  Cl    0.53470   0.55122   0.59520   0.00000  Uiso   1.00
N903   N     0.53748   0.39532   0.60876   0.00000  Uiso   1.00
O904   O     0.56255   0.40247   0.63197   0.00000  Uiso   1.00
O905   O     0.51299   0.36013   0.60834   0.00000  Uiso   1.00
N906   N     0.57373   0.40835   0.95657   0.00000  Uiso   1.00
O907   O     0.60996   0.40638   0.96421   0.00000  Uiso   1.00
O908   O     0.56703   0.38816   0.92422   0.00000  Uiso   1.00
Cl909  Cl    0.45473   0.61283   0.89123   0.00000  Uiso   1.00
Cl910  Cl    0.47200   0.45094   0.90647   0.00000  Uiso   1.00
Zn911  Zn    0.85910   0.47423   0.78277   0.00000  Uiso   1.00
Zn912  Zn    0.80125   0.45711   0.72257   0.00000  Uiso   1.00
Zn913  Zn    0.87833   0.52997   0.71188   0.00000  Uiso   1.00
Zn914  Zn    0.79465   0.53868   0.78277   0.00000  Uiso   1.00
O915   O     0.83333   0.50000   0.75000   0.00000  Uiso   1.00
O916   O     0.73656   0.52293   0.77820   0.00000  Uiso   1.00
O917   O     0.92106   0.48610   0.76767   0.00000  Uiso   1.00
O918   O     0.80467   0.40236   0.73607   0.00000  Uiso   1.00
O919   O     0.87104   0.58860   0.71805   0.00000  Uiso   1.00
O920   O     0.82360   0.45726   0.66625   0.00000  Uiso   1.00
O921   O     0.79354   0.53979   0.83749   0.00000  Uiso   1.00
O922   O     0.87755   0.50826   0.65877   0.00000  Uiso   1.00
O923   O     0.83865   0.49468   0.83749   0.00000  Uiso   1.00
O924   O     0.84515   0.41434   0.77820   0.00000  Uiso   1.00
O925   O     0.81247   0.59469   0.76767   0.00000  Uiso   1.00
O926   O     0.74119   0.46584   0.73607   0.00000  Uiso   1.00
O927   O     0.93452   0.52512   0.71805   0.00000  Uiso   1.00
C928   C     0.71950   0.49379   0.75828   0.00000  Uiso   1.00
C929   C     0.94752   0.50672   0.74149   0.00000  Uiso   1.00
C930   C     0.82301   0.38965   0.75854   0.00000  Uiso   1.00
C931   C     0.84315   0.61094   0.74162   0.00000  Uiso   1.00
C932   C     0.85471   0.47849   0.64399   0.00000  Uiso   1.00
C933   C     0.81247   0.52164   0.85620   0.00000  Uiso   1.00
C934   C     0.80666   0.53365   0.89888   0.00000  Uiso   1.00
C935   C     0.86362   0.46788   0.60121   0.00000  Uiso   1.00
C936   C     0.79225   0.58433   0.95707   0.00000  Uiso   1.00
C937   C     0.79635   0.57391   0.91695   0.00000  Uiso   1.00
C938   C     0.81415   0.50520   0.92162   0.00000  Uiso   1.00
C939   C     0.81923   0.51923   0.95968   0.00000  Uiso   1.00
C940   C     0.80321   0.55729   0.97887   0.00000  Uiso   1.00
C941   C     0.83892   0.49646   0.97955   0.00000  Uiso   1.00
C942   C     0.83559   0.50785   0.52014   0.00000  Uiso   1.00
C943   C     0.81088   0.54059   0.54009   0.00000  Uiso   1.00
C944   C     0.79752   0.56683   0.51963   0.00000  Uiso   1.00
C945   C     0.86488   0.46491   0.95927   0.00000  Uiso   1.00
C946   C     0.87896   0.43862   0.97931   0.00000  Uiso   1.00
C947   C     0.86915   0.44547   0.52091   0.00000  Uiso   1.00
C948   C     0.85447   0.48422   0.54005   0.00000  Uiso   1.00
C949   C     0.87413   0.41549   0.54391   0.00000  Uiso   1.00
C950   C     0.86936   0.42637   0.58454   0.00000  Uiso   1.00
C951   C     0.85939   0.49748   0.57823   0.00000  Uiso   1.00
H952   H     0.78206   0.61450   0.97060   0.00000  Uiso   1.00
H953   H     0.80113   0.54609   0.57183   0.00000  Uiso   1.00
H954   H     0.87567   0.46114   0.92744   0.00000  Uiso   1.00
C955   C     0.99313   0.50811   0.73829   0.00000  Uiso   1.00
H956   H     0.68265   0.52350   0.71440   0.00000  Uiso   1.00
C957   C     0.67420   0.49085   0.76347   0.00000  Uiso   1.00
C958   C     0.84621   0.65535   0.73927   0.00000  Uiso   1.00
H959   H     0.87341   0.33563   0.71732   0.00000  Uiso   1.00
C960   C     0.81702   0.34631   0.76306   0.00000  Uiso   1.00
Cl961  Cl    0.77146   0.61001   0.54702   0.00000  Uiso   1.00
N962   N     0.87979   0.37307   0.52726   0.00000  Uiso   1.00
O963   O     0.90993   0.35442   0.53268   0.00000  Uiso   1.00
O964   O     0.85290   0.35208   0.50898   0.00000  Uiso   1.00
Cl965  Cl    0.97564   0.46663   0.80523   0.00000  Uiso   1.00
Cl966  Cl    0.77045   0.66335   0.79989   0.00000  Uiso   1.00
Cl967  Cl    0.86804   0.55122   0.59520   0.00000  Uiso   1.00
N968   N     0.87081   0.39532   0.60876   0.00000  Uiso   1.00
O969   O     0.89589   0.40247   0.63197   0.00000  Uiso   1.00
O970   O     0.84632   0.36013   0.60834   0.00000  Uiso   1.00
N971   N     0.90706   0.40835   0.95657   0.00000  Uiso   1.00
O972   O     0.94329   0.40638   0.96421   0.00000  Uiso   1.00
O973   O     0.90036   0.38816   0.92422   0.00000  Uiso   1.00
Cl974  Cl    0.78806   0.61283   0.89123   0.00000  Uiso   1.00
Cl975  Cl    0.80533   0.45094   0.90647   0.00000  Uiso   1.00
Zn976  Zn    0.19244   0.80756   0.78277   0.00000  Uiso   1.00
Zn977  Zn    0.13459   0.79044   0.72257   0.00000  Uiso   1.00
Zn978  Zn    0.21166   0.86331   0.71188   0.00000  Uiso   1.00
Zn979  Zn    0.12798   0.87202   0.78277   0.00000  Uiso   1.00
O980   O     0.16667   0.83333   0.75000   0.00000  Uiso   1.00
O981   O     0.06990   0.85627   0.77820   0.00000  Uiso   1.00
O982   O     0.25440   0.81944   0.76767   0.00000  Uiso   1.00
O983   O     0.13800   0.73570   0.73607   0.00000  Uiso   1.00
O984   O     0.20437   0.92193   0.71805   0.00000  Uiso   1.00
O985   O     0.15693   0.79060   0.66625   0.00000  Uiso   1.00
O986   O     0.12687   0.87313   0.83749   0.00000  Uiso   1.00
O987   O     0.21088   0.84159   0.65877   0.00000  Uiso   1.00
O988   O     0.17198   0.82802   0.83749   0.00000  Uiso   1.00
O989   O     0.17849   0.74768   0.77820   0.00000  Uiso   1.00
O990   O     0.14581   0.92803   0.76767   0.00000  Uiso   1.00
O991   O     0.07452   0.79917   0.73607   0.00000  Uiso   1.00
O992   O     0.26785   0.85845   0.71805   0.00000  Uiso   1.00
C993   C     0.05284   0.82713   0.75828   0.00000  Uiso   1.00
C994   C     0.28086   0.84005   0.74149   0.00000  Uiso   1.00
C995   C     0.15634   0.72298   0.75854   0.00000  Uiso   1.00
C996   C     0.17648   0.94427   0.74162   0.00000  Uiso   1.00
C997   C     0.18805   0.81182   0.64399   0.00000  Uiso   1.00
C998   C     0.14580   0.85497   0.85620   0.00000  Uiso   1.00
C999   C     0.14000   0.86699   0.89888   0.00000  Uiso   1.00
C1000  C     0.19695   0.80121   0.60121   0.00000  Uiso   1.00
C1001  C     0.12558   0.91766   0.95707   0.00000  Uiso   1.00
C1002  C     0.12969   0.90724   0.91695   0.00000  Uiso   1.00
C1003  C     0.14749   0.83853   0.92162   0.00000  Uiso   1.00
C1004  C     0.15256   0.85256   0.95968   0.00000  Uiso   1.00
C1005  C     0.13654   0.89062   0.97887   0.00000  Uiso   1.00
C1006  C     0.17225   0.82979   0.97955   0.00000  Uiso   1.00
C1007  C     0.16892   0.84119   0.52014   0.00000  Uiso   1.00
C1008  C     0.14422   0.87392   0.54009   0.00000  Uiso   1.00
C1009  C     0.13085   0.90016   0.51963   0.00000  Uiso   1.00
C1010  C     0.19821   0.79824   0.95927   0.00000  Uiso   1.00
C1011  C     0.21230   0.77195   0.97931   0.00000  Uiso   1.00
C1012  C     0.20248   0.77881   0.52091   0.00000  Uiso   1.00
C1013  C     0.18780   0.81756   0.54005   0.00000  Uiso   1.00
C1014  C     0.20746   0.74883   0.54391   0.00000  Uiso   1.00
C1015  C     0.20270   0.75971   0.58454   0.00000  Uiso   1.00
C1016  C     0.19273   0.83082   0.57823   0.00000  Uiso   1.00
H1017  H     0.11539   0.94783   0.97060   0.00000  Uiso   1.00
H1018  H     0.13447   0.87942   0.57183   0.00000  Uiso   1.00
H1019  H     0.20900   0.79448   0.92744   0.00000  Uiso   1.00
C1020  C     0.32647   0.84144   0.73829   0.00000  Uiso   1.00
H1021  H     0.01598   0.85684   0.71440   0.00000  Uiso   1.00
C1022  C     0.00753   0.82418   0.76347   0.00000  Uiso   1.00
C1023  C     0.17954   0.98869   0.73927   0.00000  Uiso   1.00
H1024  H     0.20674   0.66896   0.71732   0.00000  Uiso   1.00
C1025  C     0.15035   0.67964   0.76306   0.00000  Uiso   1.00
Cl1026 Cl    0.10479   0.94334   0.54702   0.00000  Uiso   1.00
N1027  N     0.21312   0.70640   0.52726   0.00000  Uiso   1.00
O1028  O     0.24327   0.68776   0.53268   0.00000  Uiso   1.00
O1029  O     0.18624   0.68541   0.50898   0.00000  Uiso   1.00
Cl1030 Cl    0.30897   0.79997   0.80523   0.00000  Uiso   1.00
Cl1031 Cl    0.10379   0.99669   0.79989   0.00000  Uiso   1.00
Cl1032 Cl    0.20137   0.88455   0.59520   0.00000  Uiso   1.00
N1033  N     0.20415   0.72865   0.60876   0.00000  Uiso   1.00
O1034  O     0.22922   0.73580   0.63197   0.00000  Uiso   1.00
O1035  O     0.17966   0.69347   0.60834   0.00000  Uiso   1.00
N1036  N     0.24040   0.74168   0.95657   0.00000  Uiso   1.00
O1037  O     0.27662   0.73971   0.96421   0.00000  Uiso   1.00
O1038  O     0.23369   0.72149   0.92422   0.00000  Uiso   1.00
Cl1039 Cl    0.12139   0.94617   0.89123   0.00000  Uiso   1.00
Cl1040 Cl    0.13867   0.78428   0.90647   0.00000  Uiso   1.00
Zn1041 Zn    0.52577   0.80756   0.78277   0.00000  Uiso   1.00
Zn1042 Zn    0.46792   0.79044   0.72257   0.00000  Uiso   1.00
Zn1043 Zn    0.54500   0.86331   0.71188   0.00000  Uiso   1.00
Zn1044 Zn    0.46131   0.87202   0.78277   0.00000  Uiso   1.00
O1045  O     0.50000   0.83333   0.75000   0.00000  Uiso   1.00
O1046  O     0.40323   0.85627   0.77820   0.00000  Uiso   1.00
O1047  O     0.58773   0.81944   0.76767   0.00000  Uiso   1.00
O1048  O     0.47133   0.73570   0.73607   0.00000  Uiso   1.00
O1049  O     0.53771   0.92193   0.71805   0.00000  Uiso   1.00
O1050  O     0.49027   0.79060   0.66625   0.00000  Uiso   1.00
O1051  O     0.46020   0.87313   0.83749   0.00000  Uiso   1.00
O1052  O     0.54421   0.84159   0.65877   0.00000  Uiso   1.00
O1053  O     0.50532   0.82802   0.83749   0.00000  Uiso   1.00
O1054  O     0.51182   0.74768   0.77820   0.00000  Uiso   1.00
O1055  O     0.47914   0.92803   0.76767   0.00000  Uiso   1.00
O1056  O     0.40785   0.79917   0.73607   0.00000  Uiso   1.00
O1057  O     0.60119   0.85845   0.71805   0.00000  Uiso   1.00
C1058  C     0.38617   0.82713   0.75828   0.00000  Uiso   1.00
C1059  C     0.61419   0.84005   0.74149   0.00000  Uiso   1.00
C1060  C     0.48968   0.72298   0.75854   0.00000  Uiso   1.00
C1061  C     0.50982   0.94427   0.74162   0.00000  Uiso   1.00
C1062  C     0.52138   0.81182   0.64399   0.00000  Uiso   1.00
C1063  C     0.47913   0.85497   0.85620   0.00000  Uiso   1.00
C1064  C     0.47333   0.86699   0.89888   0.00000  Uiso   1.00
C1065  C     0.53029   0.80121   0.60121   0.00000  Uiso   1.00
C1066  C     0.45892   0.91766   0.95707   0.00000  Uiso   1.00
C1067  C     0.46302   0.90724   0.91695   0.00000  Uiso   1.00
C1068  C     0.48082   0.83853   0.92162   0.00000  Uiso   1.00
C1069  C     0.48589   0.85256   0.95968   0.00000  Uiso   1.00
C1070  C     0.46988   0.89062   0.97887   0.00000  Uiso   1.00
C1071  C     0.50559   0.82979   0.97955   0.00000  Uiso   1.00
C1072  C     0.50226   0.84119   0.52014   0.00000  Uiso   1.00
C1073  C     0.47755   0.87392   0.54009   0.00000  Uiso   1.00
C1074  C     0.46418   0.90016   0.51963   0.00000  Uiso   1.00
C1075  C     0.53155   0.79824   0.95927   0.00000  Uiso   1.00
C1076  C     0.54563   0.77195   0.97931   0.00000  Uiso   1.00
C1077  C     0.53581   0.77881   0.52091   0.00000  Uiso   1.00
C1078  C     0.52114   0.81756   0.54005   0.00000  Uiso   1.00
C1079  C     0.54079   0.74883   0.54391   0.00000  Uiso   1.00
C1080  C     0.53603   0.75971   0.58454   0.00000  Uiso   1.00
C1081  C     0.52606   0.83082   0.57823   0.00000  Uiso   1.00
H1082  H     0.44872   0.94783   0.97060   0.00000  Uiso   1.00
H1083  H     0.46780   0.87942   0.57183   0.00000  Uiso   1.00
H1084  H     0.54233   0.79448   0.92744   0.00000  Uiso   1.00
C1085  C     0.65980   0.84144   0.73829   0.00000  Uiso   1.00
H1086  H     0.34931   0.85684   0.71440   0.00000  Uiso   1.00
C1087  C     0.34086   0.82418   0.76347   0.00000  Uiso   1.00
C1088  C     0.51287   0.98869   0.73927   0.00000  Uiso   1.00
H1089  H     0.54007   0.66896   0.71732   0.00000  Uiso   1.00
C1090  C     0.48368   0.67964   0.76306   0.00000  Uiso   1.00
Cl1091 Cl    0.43812   0.94334   0.54702   0.00000  Uiso   1.00
N1092  N     0.54646   0.70640   0.52726   0.00000  Uiso   1.00
O1093  O     0.57660   0.68776   0.53268   0.00000  Uiso   1.00
O1094  O     0.51957   0.68541   0.50898   0.00000  Uiso   1.00
Cl1095 Cl    0.64231   0.79997   0.80523   0.00000  Uiso   1.00
Cl1096 Cl    0.43712   0.99669   0.79989   0.00000  Uiso   1.00
Cl1097 Cl    0.53470   0.88455   0.59520   0.00000  Uiso   1.00
N1098  N     0.53748   0.72865   0.60876   0.00000  Uiso   1.00
O1099  O     0.56255   0.73580   0.63197   0.00000  Uiso   1.00
O1100  O     0.51299   0.69347   0.60834   0.00000  Uiso   1.00
N1101  N     0.57373   0.74168   0.95657   0.00000  Uiso   1.00
O1102  O     0.60996   0.73971   0.96421   0.00000  Uiso   1.00
O1103  O     0.56703   0.72149   0.92422   0.00000  Uiso   1.00
Cl1104 Cl    0.45473   0.94617   0.89123   0.00000  Uiso   1.00
Cl1105 Cl    0.47200   0.78428   0.90647   0.00000  Uiso   1.00
Zn1106 Zn    0.85910   0.80756   0.78277   0.00000  Uiso   1.00
Zn1107 Zn    0.80125   0.79044   0.72257   0.00000  Uiso   1.00
Zn1108 Zn    0.87833   0.86331   0.71188   0.00000  Uiso   1.00
Zn1109 Zn    0.79465   0.87202   0.78277   0.00000  Uiso   1.00
O1110  O     0.83333   0.83333   0.75000   0.00000  Uiso   1.00
O1111  O     0.73656   0.85627   0.77820   0.00000  Uiso   1.00
O1112  O     0.92106   0.81944   0.76767   0.00000  Uiso   1.00
O1113  O     0.80467   0.73570   0.73607   0.00000  Uiso   1.00
O1114  O     0.87104   0.92193   0.71805   0.00000  Uiso   1.00
O1115  O     0.82360   0.79060   0.66625   0.00000  Uiso   1.00
O1116  O     0.79354   0.87313   0.83749   0.00000  Uiso   1.00
O1117  O     0.87755   0.84159   0.65877   0.00000  Uiso   1.00
O1118  O     0.83865   0.82802   0.83749   0.00000  Uiso   1.00
O1119  O     0.84515   0.74768   0.77820   0.00000  Uiso   1.00
O1120  O     0.81247   0.92803   0.76767   0.00000  Uiso   1.00
O1121  O     0.74119   0.79917   0.73607   0.00000  Uiso   1.00
O1122  O     0.93452   0.85845   0.71805   0.00000  Uiso   1.00
C1123  C     0.71950   0.82713   0.75828   0.00000  Uiso   1.00
C1124  C     0.94752   0.84005   0.74149   0.00000  Uiso   1.00
C1125  C     0.82301   0.72298   0.75854   0.00000  Uiso   1.00
C1126  C     0.84315   0.94427   0.74162   0.00000  Uiso   1.00
C1127  C     0.85471   0.81182   0.64399   0.00000  Uiso   1.00
C1128  C     0.81247   0.85497   0.85620   0.00000  Uiso   1.00
C1129  C     0.80666   0.86699   0.89888   0.00000  Uiso   1.00
C1130  C     0.86362   0.80121   0.60121   0.00000  Uiso   1.00
C1131  C     0.79225   0.91766   0.95707   0.00000  Uiso   1.00
C1132  C     0.79635   0.90724   0.91695   0.00000  Uiso   1.00
C1133  C     0.81415   0.83853   0.92162   0.00000  Uiso   1.00
C1134  C     0.81923   0.85256   0.95968   0.00000  Uiso   1.00
C1135  C     0.80321   0.89062   0.97887   0.00000  Uiso   1.00
C1136  C     0.83892   0.82979   0.97955   0.00000  Uiso   1.00
C1137  C     0.83559   0.84119   0.52014   0.00000  Uiso   1.00
C1138  C     0.81088   0.87392   0.54009   0.00000  Uiso   1.00
C1139  C     0.79752   0.90016   0.51963   0.00000  Uiso   1.00
C1140  C     0.86488   0.79824   0.95927   0.00000  Uiso   1.00
C1141  C     0.87896   0.77195   0.97931   0.00000  Uiso   1.00
C1142  C     0.86915   0.77881   0.52091   0.00000  Uiso   1.00
C1143  C     0.85447   0.81756   0.54005   0.00000  Uiso   1.00
C1144  C     0.87413   0.74883   0.54391   0.00000  Uiso   1.00
C1145  C     0.86936   0.75971   0.58454   0.00000  Uiso   1.00
C1146  C     0.85939   0.83082   0.57823   0.00000  Uiso   1.00
H1147  H     0.78206   0.94783   0.97060   0.00000  Uiso   1.00
H1148  H     0.80113   0.87942   0.57183   0.00000  Uiso   1.00
H1149  H     0.87567   0.79448   0.92744   0.00000  Uiso   1.00
C1150  C     0.99313   0.84144   0.73829   0.00000  Uiso   1.00
H1151  H     0.68265   0.85684   0.71440   0.00000  Uiso   1.00
C1152  C     0.67420   0.82418   0.76347   0.00000  Uiso   1.00
C1153  C     0.84621   0.98869   0.73927   0.00000  Uiso   1.00
H1154  H     0.87341   0.66896   0.71732   0.00000  Uiso   1.00
C1155  C     0.81702   0.67964   0.76306   0.00000  Uiso   1.00
Cl1156 Cl    0.77146   0.94334   0.54702   0.00000  Uiso   1.00
N1157  N     0.87979   0.70640   0.52726   0.00000  Uiso   1.00
O1158  O     0.90993   0.68776   0.53268   0.00000  Uiso   1.00
O1159  O     0.85290   0.68541   0.50898   0.00000  Uiso   1.00
Cl1160 Cl    0.97564   0.79997   0.80523   0.00000  Uiso   1.00
Cl1161 Cl    0.77045   0.99669   0.79989   0.00000  Uiso   1.00
Cl1162 Cl    0.86804   0.88455   0.59520   0.00000  Uiso   1.00
N1163  N     0.87081   0.72865   0.60876   0.00000  Uiso   1.00
O1164  O     0.89589   0.73580   0.63197   0.00000  Uiso   1.00
O1165  O     0.84632   0.69347   0.60834   0.00000  Uiso   1.00
N1166  N     0.90706   0.74168   0.95657   0.00000  Uiso   1.00
O1167  O     0.94329   0.73971   0.96421   0.00000  Uiso   1.00
O1168  O     0.90036   0.72149   0.92422   0.00000  Uiso   1.00
Cl1169 Cl    0.78806   0.94617   0.89123   0.00000  Uiso   1.00
Cl1170 Cl    0.80533   0.78428   0.90647   0.00000  Uiso   1.00
loop_
_geom_bond_atom_site_label_1
_geom_bond_atom_site_label_2
_geom_bond_distance
_geom_bond_site_symmetry_2
_ccdc_geom_bond_type
Zn1    O13     1.920   .     S
Zn1    O5      1.962   .     S
Zn1    O14     1.934   .     S
Zn1    O7      1.934   .     S
Zn2    O16     1.932   .     S
Zn2    O5      1.945   .     S
Zn2    O8      1.942   .     S
Zn2    O10     1.928   .     S
Zn3    O9      1.932   .     S
Zn3    O17     1.942   .     S
Zn3    O12     1.928   .     S
Zn3    O5      1.945   .     S
Zn4    O15     1.941   .     S
Zn4    O11     1.937   .     S
Zn4    O6      1.941   .     S
Zn4    O5      1.928   .     S
O6     C18     1.264   .     A
O7     C19     1.273   .     A
O8     C20     1.274   .     A
O9     C21     1.277   .     A
O10    C22     1.278   .     A
O11    C23     1.281   .     A
O12    C22     1.283   .     A
O13    C23     1.288   .     A
O14    C20     1.275   .     A
O15    C21     1.265   .     A
O16    C18     1.267   .     A
O17    C19     1.291   .     A
C18    C47     1.428   .     S
C19    C45     1.455   .     S
C20    C50     1.425   .     S
C21    C48     1.450   .     S
C22    C25     1.466   .     S
C23    C24     1.478   .     S
C24    C27     1.415   .     A
C24    C28     1.408   .     A
C25    C40     1.411   .     A
C25    C41     1.400   .     A
C26    C30     1.402   .     A
C26    C27     1.393   .     A
C26    H42     1.082   .     S
C27    Cl64    1.765   .     S
C28    Cl65    1.779   .     S
C28    C29     1.416   .     A
C29    C31     1.423   .     A
C29    C30     1.417   .     A
C30    C619    1.404   .     S
C31    C35     1.405   .     A
C31    C617    1.417   .     S
C32    C38     1.425   .     A
C32    C33     1.409   .     A
C32    C616    1.417   1_554 S
C33    H43     1.078   .     S
C33    C34     1.390   .     A
C34    Cl51    1.765   .     S
C34    C615    1.404   1_554 S
C35    H44     1.081   .     S
C35    C36     1.394   .     A
C36    N61     1.437   .     S
C36    C622    1.415   .     S
C37    C38     1.421   .     A
C37    C39     1.420   .     A
C37    C621    1.415   1_554 S
C38    C41     1.415   .     A
C39    C40     1.409   .     A
C39    N52     1.437   .     S
C40    N58     1.439   .     S
C41    Cl57    1.777   .     S
C45    H111    1.088   .     S
C45    C112    1.348   .     S
H46    C175    1.088   1_455 S
C47    C175    1.348   1_455 S
C47    Cl185   1.771   1_455 S
C48    H244    1.088   .     S
C48    C245    1.343   .     S
H49    C438    1.088   1_545 S
C50    C438    1.343   1_545 S
C50    Cl446   1.770   1_545 S
N52    O54     1.301   .     A
N52    O53     1.302   .     A
Cl55   C112    1.771   .     S
Cl56   C245    1.770   .     S
N58    O60     1.302   .     A
N58    O59     1.301   .     A
N61    O62     1.302   .     A
N61    O63     1.302   .     A
Zn66   O78     1.920   .     S
Zn66   O70     1.962   .     S
Zn66   O79     1.934   .     S
Zn66   O72     1.934   .     S
Zn67   O81     1.932   .     S
Zn67   O70     1.945   .     S
Zn67   O73     1.942   .     S
Zn67   O75     1.928   .     S
Zn68   O74     1.932   .     S
Zn68   O82     1.942   .     S
Zn68   O77     1.928   .     S
Zn68   O70     1.945   .     S
Zn69   O80     1.941   .     S
Zn69   O76     1.937   .     S
Zn69   O71     1.941   .     S
Zn69   O70     1.928   .     S
O71    C83     1.264   .     A
O72    C84     1.273   .     A
O73    C85     1.274   .     A
O74    C86     1.277   .     A
O75    C87     1.278   .     A
O76    C88     1.281   .     A
O77    C87     1.283   .     A
O78    C88     1.288   .     A
O79    C85     1.275   .     A
O80    C86     1.265   .     A
O81    C83     1.267   .     A
O82    C84     1.291   .     A
C83    C112    1.428   .     S
C84    C110    1.455   .     S
C85    C115    1.425   .     S
C86    C113    1.450   .     S
C87    C90     1.466   .     S
C88    C89     1.478   .     S
C89    C92     1.415   .     A
C89    C93     1.408   .     A
C90    C105    1.411   .     A
C90    C106    1.400   .     A
C91    C95     1.402   .     A
C91    C92     1.393   .     A
C91    H107    1.082   .     S
C92    Cl129   1.765   .     S
C93    Cl130   1.779   .     S
C93    C94     1.416   .     A
C94    C96     1.423   .     A
C94    C95     1.417   .     A
C95    C684    1.404   .     S
C96    C100    1.405   .     A
C96    C682    1.417   .     S
C97    C103    1.425   .     A
C97    C98     1.409   .     A
C97    C681    1.417   1_554 S
C98    H108    1.078   .     S
C98    C99     1.390   .     A
C99    Cl116   1.765   .     S
C99    C680    1.404   1_554 S
C100   H109    1.081   .     S
C100   C101    1.394   .     A
C101   N126    1.437   .     S
C101   C687    1.415   .     S
C102   C103    1.421   .     A
C102   C104    1.420   .     A
C102   C686    1.415   1_554 S
C103   C106    1.415   .     A
C104   C105    1.409   .     A
C104   N117    1.437   .     S
C105   N123    1.439   .     S
C106   Cl122   1.777   .     S
C110   H176    1.088   .     S
C110   C177    1.348   .     S
C113   H309    1.088   .     S
C113   C310    1.343   .     S
H114   C503    1.088   1_545 S
C115   C503    1.343   1_545 S
C115   Cl511   1.770   1_545 S
N117   O119    1.301   .     A
N117   O118    1.302   .     A
Cl120  C177    1.771   .     S
Cl121  C310    1.770   .     S
N123   O125    1.302   .     A
N123   O124    1.301   .     A
N126   O127    1.302   .     A
N126   O128    1.302   .     A
Zn131  O143    1.920   .     S
Zn131  O135    1.962   .     S
Zn131  O144    1.934   .     S
Zn131  O137    1.934   .     S
Zn132  O146    1.932   .     S
Zn132  O135    1.945   .     S
Zn132  O138    1.942   .     S
Zn132  O140    1.928   .     S
Zn133  O139    1.932   .     S
Zn133  O147    1.942   .     S
Zn133  O142    1.928   .     S
Zn133  O135    1.945   .     S
Zn134  O145    1.941   .     S
Zn134  O141    1.937   .     S
Zn134  O136    1.941   .     S
Zn134  O135    1.928   .     S
O136   C148    1.264   .     A
O137   C149    1.273   .     A
O138   C150    1.274   .     A
O139   C151    1.277   .     A
O140   C152    1.278   .     A
O141   C153    1.281   .     A
O142   C152    1.283   .     A
O143   C153    1.288   .     A
O144   C150    1.275   .     A
O145   C151    1.265   .     A
O146   C148    1.267   .     A
O147   C149    1.291   .     A
C148   C177    1.428   .     S
C149   C175    1.455   .     S
C150   C180    1.425   .     S
C151   C178    1.450   .     S
C152   C155    1.466   .     S
C153   C154    1.478   .     S
C154   C157    1.415   .     A
C154   C158    1.408   .     A
C155   C170    1.411   .     A
C155   C171    1.400   .     A
C156   C160    1.402   .     A
C156   C157    1.393   .     A
C156   H172    1.082   .     S
C157   Cl194   1.765   .     S
C158   Cl195   1.779   .     S
C158   C159    1.416   .     A
C159   C161    1.423   .     A
C159   C160    1.417   .     A
C160   C749    1.404   .     S
C161   C165    1.405   .     A
C161   C747    1.417   .     S
C162   C168    1.425   .     A
C162   C163    1.409   .     A
C162   C746    1.417   1_554 S
C163   H173    1.078   .     S
C163   C164    1.390   .     A
C164   Cl181   1.765   .     S
C164   C745    1.404   1_554 S
C165   H174    1.081   .     S
C165   C166    1.394   .     A
C166   N191    1.437   .     S
C166   C752    1.415   .     S
C167   C168    1.421   .     A
C167   C169    1.420   .     A
C167   C751    1.415   1_554 S
C168   C171    1.415   .     A
C169   C170    1.409   .     A
C169   N182    1.437   .     S
C170   N188    1.439   .     S
C171   Cl187   1.777   .     S
C175   H46     1.088   1_655 S
C175   C47     1.348   1_655 S
C178   H374    1.088   .     S
C178   C375    1.343   .     S
H179   C568    1.088   1_545 S
C180   C568    1.343   1_545 S
C180   Cl576   1.770   1_545 S
N182   O184    1.301   .     A
N182   O183    1.302   .     A
Cl185  C47     1.771   1_655 S
Cl186  C375    1.770   .     S
N188   O190    1.302   .     A
N188   O189    1.301   .     A
N191   O192    1.302   .     A
N191   O193    1.302   .     A
Zn196  O208    1.920   .     S
Zn196  O200    1.962   .     S
Zn196  O209    1.934   .     S
Zn196  O202    1.934   .     S
Zn197  O211    1.932   .     S
Zn197  O200    1.945   .     S
Zn197  O203    1.942   .     S
Zn197  O205    1.928   .     S
Zn198  O204    1.932   .     S
Zn198  O212    1.942   .     S
Zn198  O207    1.928   .     S
Zn198  O200    1.945   .     S
Zn199  O210    1.941   .     S
Zn199  O206    1.937   .     S
Zn199  O201    1.941   .     S
Zn199  O200    1.928   .     S
O201   C213    1.264   .     A
O202   C214    1.273   .     A
O203   C215    1.274   .     A
O204   C216    1.277   .     A
O205   C217    1.278   .     A
O206   C218    1.281   .     A
O207   C217    1.283   .     A
O208   C218    1.288   .     A
O209   C215    1.275   .     A
O210   C216    1.265   .     A
O211   C213    1.267   .     A
O212   C214    1.291   .     A
C213   C242    1.428   .     S
C214   C240    1.455   .     S
C215   C245    1.425   .     S
C216   C243    1.450   .     S
C217   C220    1.466   .     S
C218   C219    1.478   .     S
C219   C222    1.415   .     A
C219   C223    1.408   .     A
C220   C235    1.411   .     A
C220   C236    1.400   .     A
C221   C225    1.402   .     A
C221   C222    1.393   .     A
C221   H237    1.082   .     S
C222   Cl259   1.765   .     S
C223   Cl260   1.779   .     S
C223   C224    1.416   .     A
C224   C226    1.423   .     A
C224   C225    1.417   .     A
C225   C814    1.404   .     S
C226   C230    1.405   .     A
C226   C812    1.417   .     S
C227   C233    1.425   .     A
C227   C228    1.409   .     A
C227   C811    1.417   1_554 S
C228   H238    1.078   .     S
C228   C229    1.390   .     A
C229   Cl246   1.765   .     S
C229   C810    1.404   1_554 S
C230   H239    1.081   .     S
C230   C231    1.394   .     A
C231   N256    1.437   .     S
C231   C817    1.415   .     S
C232   C233    1.421   .     A
C232   C234    1.420   .     A
C232   C816    1.415   1_554 S
C233   C236    1.415   .     A
C234   C235    1.409   .     A
C234   N247    1.437   .     S
C235   N253    1.439   .     S
C236   Cl252   1.777   .     S
C240   H306    1.088   .     S
C240   C307    1.348   .     S
H241   C370    1.088   1_455 S
C242   C370    1.348   1_455 S
C242   Cl380   1.771   1_455 S
C243   H439    1.088   .     S
C243   C440    1.343   .     S
N247   O249    1.301   .     A
N247   O248    1.302   .     A
Cl250  C307    1.771   .     S
Cl251  C440    1.770   .     S
N253   O255    1.302   .     A
N253   O254    1.301   .     A
N256   O257    1.302   .     A
N256   O258    1.302   .     A
Zn261  O273    1.920   .     S
Zn261  O265    1.962   .     S
Zn261  O274    1.934   .     S
Zn261  O267    1.934   .     S
Zn262  O276    1.932   .     S
Zn262  O265    1.945   .     S
Zn262  O268    1.942   .     S
Zn262  O270    1.928   .     S
Zn263  O269    1.932   .     S
Zn263  O277    1.942   .     S
Zn263  O272    1.928   .     S
Zn263  O265    1.945   .     S
Zn264  O275    1.941   .     S
Zn264  O271    1.937   .     S
Zn264  O266    1.941   .     S
Zn264  O265    1.928   .     S
O266   C278    1.264   .     A
O267   C279    1.273   .     A
O268   C280    1.274   .     A
O269   C281    1.277   .     A
O270   C282    1.278   .     A
O271   C283    1.281   .     A
O272   C282    1.283   .     A
O273   C283    1.288   .     A
O274   C280    1.275   .     A
O275   C281    1.265   .     A
O276   C278    1.267   .     A
O277   C279    1.291   .     A
C278   C307    1.428   .     S
C279   C305    1.455   .     S
C280   C310    1.425   .     S
C281   C308    1.450   .     S
C282   C285    1.466   .     S
C283   C284    1.478   .     S
C284   C287    1.415   .     A
C284   C288    1.408   .     A
C285   C300    1.411   .     A
C285   C301    1.400   .     A
C286   C290    1.402   .     A
C286   C287    1.393   .     A
C286   H302    1.082   .     S
C287   Cl324   1.765   .     S
C288   Cl325   1.779   .     S
C288   C289    1.416   .     A
C289   C291    1.423   .     A
C289   C290    1.417   .     A
C290   C879    1.404   .     S
C291   C295    1.405   .     A
C291   C877    1.417   .     S
C292   C298    1.425   .     A
C292   C293    1.409   .     A
C292   C876    1.417   1_554 S
C293   H303    1.078   .     S
C293   C294    1.390   .     A
C294   Cl311   1.765   .     S
C294   C875    1.404   1_554 S
C295   H304    1.081   .     S
C295   C296    1.394   .     A
C296   N321    1.437   .     S
C296   C882    1.415   .     S
C297   C298    1.421   .     A
C297   C299    1.420   .     A
C297   C881    1.415   1_554 S
C298   C301    1.415   .     A
C299   C300    1.409   .     A
C299   N312    1.437   .     S
C300   N318    1.439   .     S
C301   Cl317   1.777   .     S
C305   H371    1.088   .     S
C305   C372    1.348   .     S
C308   H504    1.088   .     S
C308   C505    1.343   .     S
N312   O314    1.301   .     A
N312   O313    1.302   .     A
Cl315  C372    1.771   .     S
Cl316  C505    1.770   .     S
N318   O320    1.302   .     A
N318   O319    1.301   .     A
N321   O322    1.302   .     A
N321   O323    1.302   .     A
Zn326  O338    1.920   .     S
Zn326  O330    1.962   .     S
Zn326  O339    1.934   .     S
Zn326  O332    1.934   .     S
Zn327  O341    1.932   .     S
Zn327  O330    1.945   .     S
Zn327  O333    1.942   .     S
Zn327  O335    1.928   .     S
Zn328  O334    1.932   .     S
Zn328  O342    1.942   .     S
Zn328  O337    1.928   .     S
Zn328  O330    1.945   .     S
Zn329  O340    1.941   .     S
Zn329  O336    1.937   .     S
Zn329  O331    1.941   .     S
Zn329  O330    1.928   .     S
O331   C343    1.264   .     A
O332   C344    1.273   .     A
O333   C345    1.274   .     A
O334   C346    1.277   .     A
O335   C347    1.278   .     A
O336   C348    1.281   .     A
O337   C347    1.283   .     A
O338   C348    1.288   .     A
O339   C345    1.275   .     A
O340   C346    1.265   .     A
O341   C343    1.267   .     A
O342   C344    1.291   .     A
C343   C372    1.428   .     S
C344   C370    1.455   .     S
C345   C375    1.425   .     S
C346   C373    1.450   .     S
C347   C350    1.466   .     S
C348   C349    1.478   .     S
C349   C352    1.415   .     A
C349   C353    1.408   .     A
C350   C365    1.411   .     A
C350   C366    1.400   .     A
C351   C355    1.402   .     A
C351   C352    1.393   .     A
C351   H367    1.082   .     S
C352   Cl389   1.765   .     S
C353   Cl390   1.779   .     S
C353   C354    1.416   .     A
C354   C356    1.423   .     A
C354   C355    1.417   .     A
C355   C944    1.404   .     S
C356   C360    1.405   .     A
C356   C942    1.417   .     S
C357   C363    1.425   .     A
C357   C358    1.409   .     A
C357   C941    1.417   1_554 S
C358   H368    1.078   .     S
C358   C359    1.390   .     A
C359   Cl376   1.765   .     S
C359   C940    1.404   1_554 S
C360   H369    1.081   .     S
C360   C361    1.394   .     A
C361   N386    1.437   .     S
C361   C947    1.415   .     S
C362   C363    1.421   .     A
C362   C364    1.420   .     A
C362   C946    1.415   1_554 S
C363   C366    1.415   .     A
C364   C365    1.409   .     A
C364   N377    1.437   .     S
C365   N383    1.439   .     S
C366   Cl382   1.777   .     S
C370   H241    1.088   1_655 S
C370   C242    1.348   1_655 S
C373   H569    1.088   .     S
C373   C570    1.343   .     S
N377   O379    1.301   .     A
N377   O378    1.302   .     A
Cl380  C242    1.771   1_655 S
Cl381  C570    1.770   .     S
N383   O385    1.302   .     A
N383   O384    1.301   .     A
N386   O387    1.302   .     A
N386   O388    1.302   .     A
Zn391  O403    1.920   .     S
Zn391  O395    1.962   .     S
Zn391  O404    1.934   .     S
Zn391  O397    1.934   .     S
Zn392  O406    1.932   .     S
Zn392  O395    1.945   .     S
Zn392  O398    1.942   .     S
Zn392  O400    1.928   .     S
Zn393  O399    1.932   .     S
Zn393  O407    1.942   .     S
Zn393  O402    1.928   .     S
Zn393  O395    1.945   .     S
Zn394  O405    1.941   .     S
Zn394  O401    1.937   .     S
Zn394  O396    1.941   .     S
Zn394  O395    1.928   .     S
O396   C408    1.264   .     A
O397   C409    1.273   .     A
O398   C410    1.274   .     A
O399   C411    1.277   .     A
O400   C412    1.278   .     A
O401   C413    1.281   .     A
O402   C412    1.283   .     A
O403   C413    1.288   .     A
O404   C410    1.275   .     A
O405   C411    1.265   .     A
O406   C408    1.267   .     A
O407   C409    1.291   .     A
C408   C437    1.428   .     S
C409   C435    1.455   .     S
C410   C440    1.425   .     S
C411   C438    1.450   .     S
C412   C415    1.466   .     S
C413   C414    1.478   .     S
C414   C417    1.415   .     A
C414   C418    1.408   .     A
C415   C430    1.411   .     A
C415   C431    1.400   .     A
C416   C420    1.402   .     A
C416   C417    1.393   .     A
C416   H432    1.082   .     S
C417   Cl454   1.765   .     S
C418   Cl455   1.779   .     S
C418   C419    1.416   .     A
C419   C421    1.423   .     A
C419   C420    1.417   .     A
C420   C1009   1.404   .     S
C421   C425    1.405   .     A
C421   C1007   1.417   .     S
C422   C428    1.425   .     A
C422   C423    1.409   .     A
C422   C1006   1.417   1_554 S
C423   H433    1.078   .     S
C423   C424    1.390   .     A
C424   Cl441   1.765   .     S
C424   C1005   1.404   1_554 S
C425   H434    1.081   .     S
C425   C426    1.394   .     A
C426   N451    1.437   .     S
C426   C1012   1.415   .     S
C427   C428    1.421   .     A
C427   C429    1.420   .     A
C427   C1011   1.415   1_554 S
C428   C431    1.415   .     A
C429   C430    1.409   .     A
C429   N442    1.437   .     S
C430   N448    1.439   .     S
C431   Cl447   1.777   .     S
C435   H501    1.088   .     S
C435   C502    1.348   .     S
H436   C565    1.088   1_455 S
C437   C565    1.348   1_455 S
C437   Cl575   1.771   1_455 S
C438   H49     1.088   1_565 S
C438   C50     1.343   1_565 S
N442   O444    1.301   .     A
N442   O443    1.302   .     A
Cl445  C502    1.771   .     S
Cl446  C50     1.770   1_565 S
N448   O450    1.302   .     A
N448   O449    1.301   .     A
N451   O452    1.302   .     A
N451   O453    1.302   .     A
Zn456  O468    1.920   .     S
Zn456  O460    1.962   .     S
Zn456  O469    1.934   .     S
Zn456  O462    1.934   .     S
Zn457  O471    1.932   .     S
Zn457  O460    1.945   .     S
Zn457  O463    1.942   .     S
Zn457  O465    1.928   .     S
Zn458  O464    1.932   .     S
Zn458  O472    1.942   .     S
Zn458  O467    1.928   .     S
Zn458  O460    1.945   .     S
Zn459  O470    1.941   .     S
Zn459  O466    1.937   .     S
Zn459  O461    1.941   .     S
Zn459  O460    1.928   .     S
O461   C473    1.264   .     A
O462   C474    1.273   .     A
O463   C475    1.274   .     A
O464   C476    1.277   .     A
O465   C477    1.278   .     A
O466   C478    1.281   .     A
O467   C477    1.283   .     A
O468   C478    1.288   .     A
O469   C475    1.275   .     A
O470   C476    1.265   .     A
O471   C473    1.267   .     A
O472   C474    1.291   .     A
C473   C502    1.428   .     S
C474   C500    1.455   .     S
C475   C505    1.425   .     S
C476   C503    1.450   .     S
C477   C480    1.466   .     S
C478   C479    1.478   .     S
C479   C482    1.415   .     A
C479   C483    1.408   .     A
C480   C495    1.411   .     A
C480   C496    1.400   .     A
C481   C485    1.402   .     A
C481   C482    1.393   .     A
C481   H497    1.082   .     S
C482   Cl519   1.765   .     S
C483   Cl520   1.779   .     S
C483   C484    1.416   .     A
C484   C486    1.423   .     A
C484   C485    1.417   .     A
C485   C1074   1.404   .     S
C486   C490    1.405   .     A
C486   C1072   1.417   .     S
C487   C493    1.425   .     A
C487   C488    1.409   .     A
C487   C1071   1.417   1_554 S
C488   H498    1.078   .     S
C488   C489    1.390   .     A
C489   Cl506   1.765   .     S
C489   C1070   1.404   1_554 S
C490   H499    1.081   .     S
C490   C491    1.394   .     A
C491   N516    1.437   .     S
C491   C1077   1.415   .     S
C492   C493    1.421   .     A
C492   C494    1.420   .     A
C492   C1076   1.415   1_554 S
C493   C496    1.415   .     A
C494   C495    1.409   .     A
C494   N507    1.437   .     S
C495   N513    1.439   .     S
C496   Cl512   1.777   .     S
C500   H566    1.088   .     S
C500   C567    1.348   .     S
C503   H114    1.088   1_565 S
C503   C115    1.343   1_565 S
N507   O509    1.301   .     A
N507   O508    1.302   .     A
Cl510  C567    1.771   .     S
Cl511  C115    1.770   1_565 S
N513   O515    1.302   .     A
N513   O514    1.301   .     A
N516   O517    1.302   .     A
N516   O518    1.302   .     A
Zn521  O533    1.920   .     S
Zn521  O525    1.962   .     S
Zn521  O534    1.934   .     S
Zn521  O527    1.934   .     S
Zn522  O536    1.932   .     S
Zn522  O525    1.945   .     S
Zn522  O528    1.942   .     S
Zn522  O530    1.928   .     S
Zn523  O529    1.932   .     S
Zn523  O537    1.942   .     S
Zn523  O532    1.928   .     S
Zn523  O525    1.945   .     S
Zn524  O535    1.941   .     S
Zn524  O531    1.937   .     S
Zn524  O526    1.941   .     S
Zn524  O525    1.928   .     S
O526   C538    1.264   .     A
O527   C539    1.273   .     A
O528   C540    1.274   .     A
O529   C541    1.277   .     A
O530   C542    1.278   .     A
O531   C543    1.281   .     A
O532   C542    1.283   .     A
O533   C543    1.288   .     A
O534   C540    1.275   .     A
O535   C541    1.265   .     A
O536   C538    1.267   .     A
O537   C539    1.291   .     A
C538   C567    1.428   .     S
C539   C565    1.455   .     S
C540   C570    1.425   .     S
C541   C568    1.450   .     S
C542   C545    1.466   .     S
C543   C544    1.478   .     S
C544   C547    1.415   .     A
C544   C548    1.408   .     A
C545   C560    1.411   .     A
C545   C561    1.400   .     A
C546   C550    1.402   .     A
C546   C547    1.393   .     A
C546   H562    1.082   .     S
C547   Cl584   1.765   .     S
C548   Cl585   1.779   .     S
C548   C549    1.416   .     A
C549   C551    1.423   .     A
C549   C550    1.417   .     A
C550   C1139   1.404   .     S
C551   C555    1.405   .     A
C551   C1137   1.417   .     S
C552   C558    1.425   .     A
C552   C553    1.409   .     A
C552   C1136   1.417   1_554 S
C553   H563    1.078   .     S
C553   C554    1.390   .     A
C554   Cl571   1.765   .     S
C554   C1135   1.404   1_554 S
C555   H564    1.081   .     S
C555   C556    1.394   .     A
C556   N581    1.437   .     S
C556   C1142   1.415   .     S
C557   C558    1.421   .     A
C557   C559    1.420   .     A
C557   C1141   1.415   1_554 S
C558   C561    1.415   .     A
C559   C560    1.409   .     A
C559   N572    1.437   .     S
C560   N578    1.439   .     S
C561   Cl577   1.777   .     S
C565   H436    1.088   1_655 S
C565   C437    1.348   1_655 S
C568   H179    1.088   1_565 S
C568   C180    1.343   1_565 S
N572   O574    1.301   .     A
N572   O573    1.302   .     A
Cl575  C437    1.771   1_655 S
Cl576  C180    1.770   1_565 S
N578   O580    1.302   .     A
N578   O579    1.301   .     A
N581   O582    1.302   .     A
N581   O583    1.302   .     A
Zn586  O598    1.920   .     S
Zn586  O590    1.962   .     S
Zn586  O599    1.934   .     S
Zn586  O592    1.934   .     S
Zn587  O601    1.932   .     S
Zn587  O590    1.945   .     S
Zn587  O593    1.942   .     S
Zn587  O595    1.928   .     S
Zn588  O594    1.932   .     S
Zn588  O602    1.942   .     S
Zn588  O597    1.928   .     S
Zn588  O590    1.945   .     S
Zn589  O600    1.941   .     S
Zn589  O596    1.937   .     S
Zn589  O591    1.941   .     S
Zn589  O590    1.928   .     S
O591   C603    1.264   .     A
O592   C604    1.273   .     A
O593   C605    1.274   .     A
O594   C606    1.277   .     A
O595   C607    1.278   .     A
O596   C608    1.281   .     A
O597   C607    1.283   .     A
O598   C608    1.288   .     A
O599   C605    1.275   .     A
O600   C606    1.265   .     A
O601   C603    1.267   .     A
O602   C604    1.291   .     A
C603   C632    1.428   .     S
C604   C630    1.455   .     S
C605   C635    1.425   .     S
C606   C633    1.450   .     S
C607   C610    1.466   .     S
C608   C609    1.478   .     S
C609   C612    1.415   .     A
C609   C613    1.408   .     A
C610   C625    1.411   .     A
C610   C626    1.400   .     A
C611   C615    1.402   .     A
C611   C612    1.393   .     A
C611   H627    1.082   .     S
C612   Cl649   1.765   .     S
C613   Cl650   1.779   .     S
C613   C614    1.416   .     A
C614   C616    1.423   .     A
C614   C615    1.417   .     A
C615   C34     1.404   1_556 S
C616   C620    1.405   .     A
C616   C32     1.417   1_556 S
C617   C623    1.425   .     A
C617   C618    1.409   .     A
C618   H628    1.078   .     S
C618   C619    1.390   .     A
C619   Cl636   1.765   .     S
C620   H629    1.081   .     S
C620   C621    1.394   .     A
C621   N646    1.437   .     S
C621   C37     1.415   1_556 S
C622   C623    1.421   .     A
C622   C624    1.420   .     A
C623   C626    1.415   .     A
C624   C625    1.409   .     A
C624   N637    1.437   .     S
C625   N643    1.439   .     S
C626   Cl642   1.777   .     S
C630   H696    1.088   .     S
C630   C697    1.348   .     S
H631   C760    1.088   1_455 S
C632   C760    1.348   1_455 S
C632   Cl770   1.771   1_455 S
C633   H829    1.088   .     S
C633   C830    1.343   .     S
H634   C1023   1.088   1_545 S
C635   C1023   1.343   1_545 S
C635   Cl1031  1.770   1_545 S
N637   O639    1.301   .     A
N637   O638    1.302   .     A
Cl640  C697    1.771   .     S
Cl641  C830    1.770   .     S
N643   O645    1.302   .     A
N643   O644    1.301   .     A
N646   O647    1.302   .     A
N646   O648    1.302   .     A
Zn651  O663    1.920   .     S
Zn651  O655    1.962   .     S
Zn651  O664    1.934   .     S
Zn651  O657    1.934   .     S
Zn652  O666    1.932   .     S
Zn652  O655    1.945   .     S
Zn652  O658    1.942   .     S
Zn652  O660    1.928   .     S
Zn653  O659    1.932   .     S
Zn653  O667    1.942   .     S
Zn653  O662    1.928   .     S
Zn653  O655    1.945   .     S
Zn654  O665    1.941   .     S
Zn654  O661    1.937   .     S
Zn654  O656    1.941   .     S
Zn654  O655    1.928   .     S
O656   C668    1.264   .     A
O657   C669    1.273   .     A
O658   C670    1.274   .     A
O659   C671    1.277   .     A
O660   C672    1.278   .     A
O661   C673    1.281   .     A
O662   C672    1.283   .     A
O663   C673    1.288   .     A
O664   C670    1.275   .     A
O665   C671    1.265   .     A
O666   C668    1.267   .     A
O667   C669    1.291   .     A
C668   C697    1.428   .     S
C669   C695    1.455   .     S
C670   C700    1.425   .     S
C671   C698    1.450   .     S
C672   C675    1.466   .     S
C673   C674    1.478   .     S
C674   C677    1.415   .     A
C674   C678    1.408   .     A
C675   C690    1.411   .     A
C675   C691    1.400   .     A
C676   C680    1.402   .     A
C676   C677    1.393   .     A
C676   H692    1.082   .     S
C677   Cl714   1.765   .     S
C678   Cl715   1.779   .     S
C678   C679    1.416   .     A
C679   C681    1.423   .     A
C679   C680    1.417   .     A
C680   C99     1.404   1_556 S
C681   C685    1.405   .     A
C681   C97     1.417   1_556 S
C682   C688    1.425   .     A
C682   C683    1.409   .     A
C683   H693    1.078   .     S
C683   C684    1.390   .     A
C684   Cl701   1.765   .     S
C685   H694    1.081   .     S
C685   C686    1.394   .     A
C686   N711    1.437   .     S
C686   C102    1.415   1_556 S
C687   C688    1.421   .     A
C687   C689    1.420   .     A
C688   C691    1.415   .     A
C689   C690    1.409   .     A
C689   N702    1.437   .     S
C690   N708    1.439   .     S
C691   Cl707   1.777   .     S
C695   H761    1.088   .     S
C695   C762    1.348   .     S
C698   H894    1.088   .     S
C698   C895    1.343   .     S
H699   C1088   1.088   1_545 S
C700   C1088   1.343   1_545 S
C700   Cl1096  1.770   1_545 S
N702   O704    1.301   .     A
N702   O703    1.302   .     A
Cl705  C762    1.771   .     S
Cl706  C895    1.770   .     S
N708   O710    1.302   .     A
N708   O709    1.301   .     A
N711   O712    1.302   .     A
N711   O713    1.302   .     A
Zn716  O728    1.920   .     S
Zn716  O720    1.962   .     S
Zn716  O729    1.934   .     S
Zn716  O722    1.934   .     S
Zn717  O731    1.932   .     S
Zn717  O720    1.945   .     S
Zn717  O723    1.942   .     S
Zn717  O725    1.928   .     S
Zn718  O724    1.932   .     S
Zn718  O732    1.942   .     S
Zn718  O727    1.928   .     S
Zn718  O720    1.945   .     S
Zn719  O730    1.941   .     S
Zn719  O726    1.937   .     S
Zn719  O721    1.941   .     S
Zn719  O720    1.928   .     S
O721   C733    1.264   .     A
O722   C734    1.273   .     A
O723   C735    1.274   .     A
O724   C736    1.277   .     A
O725   C737    1.278   .     A
O726   C738    1.281   .     A
O727   C737    1.283   .     A
O728   C738    1.288   .     A
O729   C735    1.275   .     A
O730   C736    1.265   .     A
O731   C733    1.267   .     A
O732   C734    1.291   .     A
C733   C762    1.428   .     S
C734   C760    1.455   .     S
C735   C765    1.425   .     S
C736   C763    1.450   .     S
C737   C740    1.466   .     S
C738   C739    1.478   .     S
C739   C742    1.415   .     A
C739   C743    1.408   .     A
C740   C755    1.411   .     A
C740   C756    1.400   .     A
C741   C745    1.402   .     A
C741   C742    1.393   .     A
C741   H757    1.082   .     S
C742   Cl779   1.765   .     S
C743   Cl780   1.779   .     S
C743   C744    1.416   .     A
C744   C746    1.423   .     A
C744   C745    1.417   .     A
C745   C164    1.404   1_556 S
C746   C750    1.405   .     A
C746   C162    1.417   1_556 S
C747   C753    1.425   .     A
C747   C748    1.409   .     A
C748   H758    1.078   .     S
C748   C749    1.390   .     A
C749   Cl766   1.765   .     S
C750   H759    1.081   .     S
C750   C751    1.394   .     A
C751   N776    1.437   .     S
C751   C167    1.415   1_556 S
C752   C753    1.421   .     A
C752   C754    1.420   .     A
C753   C756    1.415   .     A
C754   C755    1.409   .     A
C754   N767    1.437   .     S
C755   N773    1.439   .     S
C756   Cl772   1.777   .     S
C760   H631    1.088   1_655 S
C760   C632    1.348   1_655 S
C763   H959    1.088   .     S
C763   C960    1.343   .     S
H764   C1153   1.088   1_545 S
C765   C1153   1.343   1_545 S
C765   Cl1161  1.770   1_545 S
N767   O769    1.301   .     A
N767   O768    1.302   .     A
Cl770  C632    1.771   1_655 S
Cl771  C960    1.770   .     S
N773   O775    1.302   .     A
N773   O774    1.301   .     A
N776   O777    1.302   .     A
N776   O778    1.302   .     A
Zn781  O793    1.920   .     S
Zn781  O785    1.962   .     S
Zn781  O794    1.934   .     S
Zn781  O787    1.934   .     S
Zn782  O796    1.932   .     S
Zn782  O785    1.945   .     S
Zn782  O788    1.942   .     S
Zn782  O790    1.928   .     S
Zn783  O789    1.932   .     S
Zn783  O797    1.942   .     S
Zn783  O792    1.928   .     S
Zn783  O785    1.945   .     S
Zn784  O795    1.941   .     S
Zn784  O791    1.937   .     S
Zn784  O786    1.941   .     S
Zn784  O785    1.928   .     S
O786   C798    1.264   .     A
O787   C799    1.273   .     A
O788   C800    1.274   .     A
O789   C801    1.277   .     A
O790   C802    1.278   .     A
O791   C803    1.281   .     A
O792   C802    1.283   .     A
O793   C803    1.288   .     A
O794   C800    1.275   .     A
O795   C801    1.265   .     A
O796   C798    1.267   .     A
O797   C799    1.291   .     A
C798   C827    1.428   .     S
C799   C825    1.455   .     S
C800   C830    1.425   .     S
C801   C828    1.450   .     S
C802   C805    1.466   .     S
C803   C804    1.478   .     S
C804   C807    1.415   .     A
C804   C808    1.408   .     A
C805   C820    1.411   .     A
C805   C821    1.400   .     A
C806   C810    1.402   .     A
C806   C807    1.393   .     A
C806   H822    1.082   .     S
C807   Cl844   1.765   .     S
C808   Cl845   1.779   .     S
C808   C809    1.416   .     A
C809   C811    1.423   .     A
C809   C810    1.417   .     A
C810   C229    1.404   1_556 S
C811   C815    1.405   .     A
C811   C227    1.417   1_556 S
C812   C818    1.425   .     A
C812   C813    1.409   .     A
C813   H823    1.078   .     S
C813   C814    1.390   .     A
C814   Cl831   1.765   .     S
C815   H824    1.081   .     S
C815   C816    1.394   .     A
C816   N841    1.437   .     S
C816   C232    1.415   1_556 S
C817   C818    1.421   .     A
C817   C819    1.420   .     A
C818   C821    1.415   .     A
C819   C820    1.409   .     A
C819   N832    1.437   .     S
C820   N838    1.439   .     S
C821   Cl837   1.777   .     S
C825   H891    1.088   .     S
C825   C892    1.348   .     S
H826   C955    1.088   1_455 S
C827   C955    1.348   1_455 S
C827   Cl965   1.771   1_455 S
C828   H1024   1.088   .     S
C828   C1025   1.343   .     S
N832   O834    1.301   .     A
N832   O833    1.302   .     A
Cl835  C892    1.771   .     S
Cl836  C1025   1.770   .     S
N838   O840    1.302   .     A
N838   O839    1.301   .     A
N841   O842    1.302   .     A
N841   O843    1.302   .     A
Zn846  O858    1.920   .     S
Zn846  O850    1.962   .     S
Zn846  O859    1.934   .     S
Zn846  O852    1.934   .     S
Zn847  O861    1.932   .     S
Zn847  O850    1.945   .     S
Zn847  O853    1.942   .     S
Zn847  O855    1.928   .     S
Zn848  O854    1.932   .     S
Zn848  O862    1.942   .     S
Zn848  O857    1.928   .     S
Zn848  O850    1.945   .     S
Zn849  O860    1.941   .     S
Zn849  O856    1.937   .     S
Zn849  O851    1.941   .     S
Zn849  O850    1.928   .     S
O851   C863    1.264   .     A
O852   C864    1.273   .     A
O853   C865    1.274   .     A
O854   C866    1.277   .     A
O855   C867    1.278   .     A
O856   C868    1.281   .     A
O857   C867    1.283   .     A
O858   C868    1.288   .     A
O859   C865    1.275   .     A
O860   C866    1.265   .     A
O861   C863    1.267   .     A
O862   C864    1.291   .     A
C863   C892    1.428   .     S
C864   C890    1.455   .     S
C865   C895    1.425   .     S
C866   C893    1.450   .     S
C867   C870    1.466   .     S
C868   C869    1.478   .     S
C869   C872    1.415   .     A
C869   C873    1.408   .     A
C870   C885    1.411   .     A
C870   C886    1.400   .     A
C871   C875    1.402   .     A
C871   C872    1.393   .     A
C871   H887    1.082   .     S
C872   Cl909   1.765   .     S
C873   Cl910   1.779   .     S
C873   C874    1.416   .     A
C874   C876    1.423   .     A
C874   C875    1.417   .     A
C875   C294    1.404   1_556 S
C876   C880    1.405   .     A
C876   C292    1.417   1_556 S
C877   C883    1.425   .     A
C877   C878    1.409   .     A
C878   H888    1.078   .     S
C878   C879    1.390   .     A
C879   Cl896   1.765   .     S
C880   H889    1.081   .     S
C880   C881    1.394   .     A
C881   N906    1.437   .     S
C881   C297    1.415   1_556 S
C882   C883    1.421   .     A
C882   C884    1.420   .     A
C883   C886    1.415   .     A
C884   C885    1.409   .     A
C884   N897    1.437   .     S
C885   N903    1.439   .     S
C886   Cl902   1.777   .     S
C890   H956    1.088   .     S
C890   C957    1.348   .     S
C893   H1089   1.088   .     S
C893   C1090   1.343   .     S
N897   O899    1.301   .     A
N897   O898    1.302   .     A
Cl900  C957    1.771   .     S
Cl901  C1090   1.770   .     S
N903   O905    1.302   .     A
N903   O904    1.301   .     A
N906   O907    1.302   .     A
N906   O908    1.302   .     A
Zn911  O923    1.920   .     S
Zn911  O915    1.962   .     S
Zn911  O924    1.934   .     S
Zn911  O917    1.934   .     S
Zn912  O926    1.932   .     S
Zn912  O915    1.945   .     S
Zn912  O918    1.942   .     S
Zn912  O920    1.928   .     S
Zn913  O919    1.932   .     S
Zn913  O927    1.942   .     S
Zn913  O922    1.928   .     S
Zn913  O915    1.945   .     S
Zn914  O925    1.941   .     S
Zn914  O921    1.937   .     S
Zn914  O916    1.941   .     S
Zn914  O915    1.928   .     S
O916   C928    1.264   .     A
O917   C929    1.273   .     A
O918   C930    1.274   .     A
O919   C931    1.277   .     A
O920   C932    1.278   .     A
O921   C933    1.281   .     A
O922   C932    1.283   .     A
O923   C933    1.288   .     A
O924   C930    1.275   .     A
O925   C931    1.265   .     A
O926   C928    1.267   .     A
O927   C929    1.291   .     A
C928   C957    1.428   .     S
C929   C955    1.455   .     S
C930   C960    1.425   .     S
C931   C958    1.450   .     S
C932   C935    1.466   .     S
C933   C934    1.478   .     S
C934   C937    1.415   .     A
C934   C938    1.408   .     A
C935   C950    1.411   .     A
C935   C951    1.400   .     A
C936   C940    1.402   .     A
C936   C937    1.393   .     A
C936   H952    1.082   .     S
C937   Cl974   1.765   .     S
C938   Cl975   1.779   .     S
C938   C939    1.416   .     A
C939   C941    1.423   .     A
C939   C940    1.417   .     A
C940   C359    1.404   1_556 S
C941   C945    1.405   .     A
C941   C357    1.417   1_556 S
C942   C948    1.425   .     A
C942   C943    1.409   .     A
C943   H953    1.078   .     S
C943   C944    1.390   .     A
C944   Cl961   1.765   .     S
C945   H954    1.081   .     S
C945   C946    1.394   .     A
C946   N971    1.437   .     S
C946   C362    1.415   1_556 S
C947   C948    1.421   .     A
C947   C949    1.420   .     A
C948   C951    1.415   .     A
C949   C950    1.409   .     A
C949   N962    1.437   .     S
C950   N968    1.439   .     S
C951   Cl967   1.777   .     S
C955   H826    1.088   1_655 S
C955   C827    1.348   1_655 S
C958   H1154   1.088   .     S
C958   C1155   1.343   .     S
N962   O964    1.301   .     A
N962   O963    1.302   .     A
Cl965  C827    1.771   1_655 S
Cl966  C1155   1.770   .     S
N968   O970    1.302   .     A
N968   O969    1.301   .     A
N971   O972    1.302   .     A
N971   O973    1.302   .     A
Zn976  O988    1.920   .     S
Zn976  O980    1.962   .     S
Zn976  O989    1.934   .     S
Zn976  O982    1.934   .     S
Zn977  O991    1.932   .     S
Zn977  O980    1.945   .     S
Zn977  O983    1.942   .     S
Zn977  O985    1.928   .     S
Zn978  O984    1.932   .     S
Zn978  O992    1.942   .     S
Zn978  O987    1.928   .     S
Zn978  O980    1.945   .     S
Zn979  O990    1.941   .     S
Zn979  O986    1.937   .     S
Zn979  O981    1.941   .     S
Zn979  O980    1.928   .     S
O981   C993    1.264   .     A
O982   C994    1.273   .     A
O983   C995    1.274   .     A
O984   C996    1.277   .     A
O985   C997    1.278   .     A
O986   C998    1.281   .     A
O987   C997    1.283   .     A
O988   C998    1.288   .     A
O989   C995    1.275   .     A
O990   C996    1.265   .     A
O991   C993    1.267   .     A
O992   C994    1.291   .     A
C993   C1022   1.428   .     S
C994   C1020   1.455   .     S
C995   C1025   1.425   .     S
C996   C1023   1.450   .     S
C997   C1000   1.466   .     S
C998   C999    1.478   .     S
C999   C1002   1.415   .     A
C999   C1003   1.408   .     A
C1000  C1015   1.411   .     A
C1000  C1016   1.400   .     A
C1001  C1005   1.402   .     A
C1001  C1002   1.393   .     A
C1001  H1017   1.082   .     S
C1002  Cl1039  1.765   .     S
C1003  Cl1040  1.779   .     S
C1003  C1004   1.416   .     A
C1004  C1006   1.423   .     A
C1004  C1005   1.417   .     A
C1005  C424    1.404   1_556 S
C1006  C1010   1.405   .     A
C1006  C422    1.417   1_556 S
C1007  C1013   1.425   .     A
C1007  C1008   1.409   .     A
C1008  H1018   1.078   .     S
C1008  C1009   1.390   .     A
C1009  Cl1026  1.765   .     S
C1010  H1019   1.081   .     S
C1010  C1011   1.394   .     A
C1011  N1036   1.437   .     S
C1011  C427    1.415   1_556 S
C1012  C1013   1.421   .     A
C1012  C1014   1.420   .     A
C1013  C1016   1.415   .     A
C1014  C1015   1.409   .     A
C1014  N1027   1.437   .     S
C1015  N1033   1.439   .     S
C1016  Cl1032  1.777   .     S
C1020  H1086   1.088   .     S
C1020  C1087   1.348   .     S
H1021  C1150   1.088   1_455 S
C1022  C1150   1.348   1_455 S
C1022  Cl1160  1.771   1_455 S
C1023  H634    1.088   1_565 S
C1023  C635    1.343   1_565 S
N1027  O1029   1.301   .     A
N1027  O1028   1.302   .     A
Cl1030 C1087   1.771   .     S
Cl1031 C635    1.770   1_565 S
N1033  O1035   1.302   .     A
N1033  O1034   1.301   .     A
N1036  O1037   1.302   .     A
N1036  O1038   1.302   .     A
Zn1041 O1053   1.920   .     S
Zn1041 O1045   1.962   .     S
Zn1041 O1054   1.934   .     S
Zn1041 O1047   1.934   .     S
Zn1042 O1056   1.932   .     S
Zn1042 O1045   1.945   .     S
Zn1042 O1048   1.942   .     S
Zn1042 O1050   1.928   .     S
Zn1043 O1049   1.932   .     S
Zn1043 O1057   1.942   .     S
Zn1043 O1052   1.928   .     S
Zn1043 O1045   1.945   .     S
Zn1044 O1055   1.941   .     S
Zn1044 O1051   1.937   .     S
Zn1044 O1046   1.941   .     S
Zn1044 O1045   1.928   .     S
O1046  C1058   1.264   .     A
O1047  C1059   1.273   .     A
O1048  C1060   1.274   .     A
O1049  C1061   1.277   .     A
O1050  C1062   1.278   .     A
O1051  C1063   1.281   .     A
O1052  C1062   1.283   .     A
O1053  C1063   1.288   .     A
O1054  C1060   1.275   .     A
O1055  C1061   1.265   .     A
O1056  C1058   1.267   .     A
O1057  C1059   1.291   .     A
C1058  C1087   1.428   .     S
C1059  C1085   1.455   .     S
C1060  C1090   1.425   .     S
C1061  C1088   1.450   .     S
C1062  C1065   1.466   .     S
C1063  C1064   1.478   .     S
C1064  C1067   1.415   .     A
C1064  C1068   1.408   .     A
C1065  C1080   1.411   .     A
C1065  C1081   1.400   .     A
C1066  C1070   1.402   .     A
C1066  C1067   1.393   .     A
C1066  H1082   1.082   .     S
C1067  Cl1104  1.765   .     S
C1068  Cl1105  1.779   .     S
C1068  C1069   1.416   .     A
C1069  C1071   1.423   .     A
C1069  C1070   1.417   .     A
C1070  C489    1.404   1_556 S
C1071  C1075   1.405   .     A
C1071  C487    1.417   1_556 S
C1072  C1078   1.425   .     A
C1072  C1073   1.409   .     A
C1073  H1083   1.078   .     S
C1073  C1074   1.390   .     A
C1074  Cl1091  1.765   .     S
C1075  H1084   1.081   .     S
C1075  C1076   1.394   .     A
C1076  N1101   1.437   .     S
C1076  C492    1.415   1_556 S
C1077  C1078   1.421   .     A
C1077  C1079   1.420   .     A
C1078  C1081   1.415   .     A
C1079  C1080   1.409   .     A
C1079  N1092   1.437   .     S
C1080  N1098   1.439   .     S
C1081  Cl1097  1.777   .     S
C1085  H1151   1.088   .     S
C1085  C1152   1.348   .     S
C1088  H699    1.088   1_565 S
C1088  C700    1.343   1_565 S
N1092  O1094   1.301   .     A
N1092  O1093   1.302   .     A
Cl1095 C1152   1.771   .     S
Cl1096 C700    1.770   1_565 S
N1098  O1100   1.302   .     A
N1098  O1099   1.301   .     A
N1101  O1102   1.302   .     A
N1101  O1103   1.302   .     A
Zn1106 O1118   1.920   .     S
Zn1106 O1110   1.962   .     S
Zn1106 O1119   1.934   .     S
Zn1106 O1112   1.934   .     S
Zn1107 O1121   1.932   .     S
Zn1107 O1110   1.945   .     S
Zn1107 O1113   1.942   .     S
Zn1107 O1115   1.928   .     S
Zn1108 O1114   1.932   .     S
Zn1108 O1122   1.942   .     S
Zn1108 O1117   1.928   .     S
Zn1108 O1110   1.945   .     S
Zn1109 O1120   1.941   .     S
Zn1109 O1116   1.937   .     S
Zn1109 O1111   1.941   .     S
Zn1109 O1110   1.928   .     S
O1111  C1123   1.264   .     A
O1112  C1124   1.273   .     A
O1113  C1125   1.274   .     A
O1114  C1126   1.277   .     A
O1115  C1127   1.278   .     A
O1116  C1128   1.281   .     A
O1117  C1127   1.283   .     A
O1118  C1128   1.288   .     A
O1119  C1125   1.275   .     A
O1120  C1126   1.265   .     A
O1121  C1123   1.267   .     A
O1122  C1124   1.291   .     A
C1123  C1152   1.428   .     S
C1124  C1150   1.455   .     S
C1125  C1155   1.425   .     S
C1126  C1153   1.450   .     S
C1127  C1130   1.466   .     S
C1128  C1129   1.478   .     S
C1129  C1132   1.415   .     A
C1129  C1133   1.408   .     A
C1130  C1145   1.411   .     A
C1130  C1146   1.400   .     A
C1131  C1135   1.402   .     A
C1131  C1132   1.393   .     A
C1131  H1147   1.082   .     S
C1132  Cl1169  1.765   .     S
C1133  Cl1170  1.779   .     S
C1133  C1134   1.416   .     A
C1134  C1136   1.423   .     A
C1134  C1135   1.417   .     A
C1135  C554    1.404   1_556 S
C1136  C1140   1.405   .     A
C1136  C552    1.417   1_556 S
C1137  C1143   1.425   .     A
C1137  C1138   1.409   .     A
C1138  H1148   1.078   .     S
C1138  C1139   1.390   .     A
C1139  Cl1156  1.765   .     S
C1140  H1149   1.081   .     S
C1140  C1141   1.394   .     A
C1141  N1166   1.437   .     S
C1141  C557    1.415   1_556 S
C1142  C1143   1.421   .     A
C1142  C1144   1.420   .     A
C1143  C1146   1.415   .     A
C1144  C1145   1.409   .     A
C1144  N1157   1.437   .     S
C1145  N1163   1.439   .     S
C1146  Cl1162  1.777   .     S
C1150  H1021   1.088   1_655 S
C1150  C1022   1.348   1_655 S
C1153  H764    1.088   1_565 S
C1153  C765    1.343   1_565 S
N1157  O1159   1.301   .     A
N1157  O1158   1.302   .     A
Cl1160 C1022   1.771   1_655 S
Cl1161 C765    1.770   1_565 S
N1163  O1165   1.302   .     A
N1163  O1164   1.301   .     A
N1166  O1167   1.302   .     A
N1166  O1168   1.302   .     A
