data_str_m2_o1_o2_pcu_sym.30
_audit_creation_date              2020-01-03
_audit_creation_method            'Materials Studio'
_symmetry_space_group_name_H-M    'P1'
_symmetry_Int_Tables_number       1
_symmetry_cell_setting            triclinic
loop_
_symmetry_equiv_pos_as_xyz
  x,y,z
_cell_length_a                    32.3604
_cell_length_b                    28.9351
_cell_length_c                    30.2685
_cell_angle_alpha                 90.0012
_cell_angle_beta                  92.6578
_cell_angle_gamma                 90.3850
loop_
_atom_site_label
_atom_site_type_symbol
_atom_site_fract_x
_atom_site_fract_y
_atom_site_fract_z
_atom_site_U_iso_or_equiv
_atom_site_adp_type
_atom_site_occupancy
C1     C     0.08761   0.16650   0.25018   0.00000  Uiso   1.00
C2     C     0.31277   0.19048   0.28326   0.00000  Uiso   1.00
C3     C     0.31053   0.14386   0.21520   0.00000  Uiso   1.00
C4     C     0.02280   0.18945   0.28478   0.00000  Uiso   1.00
C5     C     0.15387   0.20568   0.04694   0.00000  Uiso   1.00
C6     C     0.15470   0.12671   0.45172   0.00000  Uiso   1.00
C7     C     0.17923   0.20612   0.45304   0.00000  Uiso   1.00
C8     C     0.17972   0.12717   0.04840   0.00000  Uiso   1.00
C9     C     0.15406   0.20587   0.09287   0.00000  Uiso   1.00
C10    C     0.15491   0.12671   0.40580   0.00000  Uiso   1.00
C11    C     0.17890   0.20631   0.40710   0.00000  Uiso   1.00
C12    C     0.24572   0.16683   0.24981   0.00000  Uiso   1.00
C13    C     0.17937   0.12715   0.09432   0.00000  Uiso   1.00
C14    C     0.16667   0.16657   0.11683   0.00000  Uiso   1.00
C15    C     0.16685   0.16657   0.38320   0.00000  Uiso   1.00
C16    C     0.16685   0.16640   0.02432   0.00000  Uiso   1.00
C17    C     0.16696   0.16638   0.47573   0.00000  Uiso   1.00
C18    C     0.29040   0.16732   0.24900   0.00000  Uiso   1.00
C19    C     0.04293   0.16600   0.25098   0.00000  Uiso   1.00
C20    C     0.16658   0.16665   0.16510   0.00000  Uiso   1.00
C21    C     0.16680   0.16666   0.33490   0.00000  Uiso   1.00
C22    C     0.14642   0.02429   0.21673   0.00000  Uiso   1.00
C23    C     0.18699   0.30907   0.28322   0.00000  Uiso   1.00
C24    C     0.18691   0.02461   0.28328   0.00000  Uiso   1.00
C25    C     0.14635   0.30876   0.21677   0.00000  Uiso   1.00
C26    C     0.02056   0.14284   0.21672   0.00000  Uiso   1.00
Cu27   Cu    0.16667   0.21355   0.25000   0.00000  Uiso   1.00
Cu28   Cu    0.16667   0.11978   0.25000   0.00000  Uiso   1.00
H29    H     0.14309   0.23607   0.02913   0.00000  Uiso   1.00
H30    H     0.22068   0.25947   0.30595   0.00000  Uiso   1.00
H31    H     0.22099   0.07438   0.30633   0.00000  Uiso   1.00
H32    H     0.11233   0.25886   0.19381   0.00000  Uiso   1.00
H33    H     0.02302   0.10545   0.16279   0.00000  Uiso   1.00
H34    H     0.31030   0.22786   0.33721   0.00000  Uiso   1.00
H35    H     0.26082   0.13522   0.17653   0.00000  Uiso   1.00
H36    H     0.07249   0.19802   0.32349   0.00000  Uiso   1.00
H37    H     0.14443   0.09587   0.46839   0.00000  Uiso   1.00
H38    H     0.18954   0.23689   0.47080   0.00000  Uiso   1.00
H39    H     0.19055   0.09672   0.03178   0.00000  Uiso   1.00
H40    H     0.14379   0.23653   0.10954   0.00000  Uiso   1.00
H41    H     0.14518   0.09573   0.38798   0.00000  Uiso   1.00
H42    H     0.18860   0.23734   0.39038   0.00000  Uiso   1.00
H43    H     0.18959   0.09655   0.11221   0.00000  Uiso   1.00
H44    H     0.11266   0.07376   0.19391   0.00000  Uiso   1.00
N45    N     0.16667   0.28402   0.25000   0.00000  Uiso   1.00
N46    N     0.16667   0.04931   0.25000   0.00000  Uiso   1.00
O47    O     0.10655   0.20625   0.24999   0.00000  Uiso   1.00
O48    O     0.20909   0.28809   0.31739   0.00000  Uiso   1.00
O49    O     0.20859   0.04598   0.31775   0.00000  Uiso   1.00
O50    O     0.12439   0.28745   0.18245   0.00000  Uiso   1.00
O51    O     0.04228   0.12127   0.18426   0.00000  Uiso   1.00
O52    O     0.29105   0.21205   0.31574   0.00000  Uiso   1.00
O53    O     0.28909   0.12257   0.18006   0.00000  Uiso   1.00
O54    O     0.04423   0.21072   0.31994   0.00000  Uiso   1.00
O55    O     0.22679   0.12709   0.25000   0.00000  Uiso   1.00
O56    O     0.22679   0.20625   0.25000   0.00000  Uiso   1.00
O57    O     0.10655   0.12709   0.24999   0.00000  Uiso   1.00
O58    O     0.16666   0.20626   0.18573   0.00000  Uiso   1.00
O59    O     0.16667   0.12707   0.31427   0.00000  Uiso   1.00
O60    O     0.16667   0.20626   0.31427   0.00000  Uiso   1.00
O61    O     0.16666   0.12707   0.18573   0.00000  Uiso   1.00
O62    O     0.12459   0.04535   0.18240   0.00000  Uiso   1.00
C63    C     0.42094   0.16650   0.25018   0.00000  Uiso   1.00
C64    C     0.64610   0.19048   0.28326   0.00000  Uiso   1.00
C65    C     0.64386   0.14386   0.21520   0.00000  Uiso   1.00
C66    C     0.35613   0.18945   0.28478   0.00000  Uiso   1.00
C67    C     0.48720   0.20568   0.04694   0.00000  Uiso   1.00
C68    C     0.48804   0.12671   0.45172   0.00000  Uiso   1.00
C69    C     0.51256   0.20612   0.45304   0.00000  Uiso   1.00
C70    C     0.51306   0.12717   0.04840   0.00000  Uiso   1.00
C71    C     0.48739   0.20587   0.09287   0.00000  Uiso   1.00
C72    C     0.48824   0.12671   0.40580   0.00000  Uiso   1.00
C73    C     0.51224   0.20631   0.40710   0.00000  Uiso   1.00
C74    C     0.57906   0.16683   0.24981   0.00000  Uiso   1.00
C75    C     0.51270   0.12715   0.09432   0.00000  Uiso   1.00
C76    C     0.50000   0.16657   0.11683   0.00000  Uiso   1.00
C77    C     0.50019   0.16657   0.38320   0.00000  Uiso   1.00
C78    C     0.50019   0.16640   0.02432   0.00000  Uiso   1.00
C79    C     0.50030   0.16638   0.47573   0.00000  Uiso   1.00
C80    C     0.62373   0.16732   0.24900   0.00000  Uiso   1.00
C81    C     0.37626   0.16600   0.25098   0.00000  Uiso   1.00
C82    C     0.49991   0.16665   0.16510   0.00000  Uiso   1.00
C83    C     0.50013   0.16666   0.33490   0.00000  Uiso   1.00
C84    C     0.47975   0.02429   0.21673   0.00000  Uiso   1.00
C85    C     0.52033   0.30907   0.28322   0.00000  Uiso   1.00
C86    C     0.52024   0.02461   0.28328   0.00000  Uiso   1.00
C87    C     0.47968   0.30876   0.21677   0.00000  Uiso   1.00
C88    C     0.35389   0.14284   0.21672   0.00000  Uiso   1.00
Cu89   Cu    0.50000   0.21355   0.25000   0.00000  Uiso   1.00
Cu90   Cu    0.50000   0.11978   0.25000   0.00000  Uiso   1.00
H91    H     0.47642   0.23607   0.02913   0.00000  Uiso   1.00
H92    H     0.55401   0.25947   0.30595   0.00000  Uiso   1.00
H93    H     0.55432   0.07438   0.30633   0.00000  Uiso   1.00
H94    H     0.44567   0.25886   0.19381   0.00000  Uiso   1.00
H95    H     0.35636   0.10545   0.16279   0.00000  Uiso   1.00
H96    H     0.64364   0.22786   0.33721   0.00000  Uiso   1.00
H97    H     0.59415   0.13522   0.17653   0.00000  Uiso   1.00
H98    H     0.40582   0.19802   0.32349   0.00000  Uiso   1.00
H99    H     0.47777   0.09587   0.46839   0.00000  Uiso   1.00
H100   H     0.52287   0.23689   0.47080   0.00000  Uiso   1.00
H101   H     0.52388   0.09672   0.03178   0.00000  Uiso   1.00
H102   H     0.47713   0.23653   0.10954   0.00000  Uiso   1.00
H103   H     0.47852   0.09573   0.38798   0.00000  Uiso   1.00
H104   H     0.52193   0.23734   0.39038   0.00000  Uiso   1.00
H105   H     0.52292   0.09655   0.11221   0.00000  Uiso   1.00
H106   H     0.44600   0.07376   0.19391   0.00000  Uiso   1.00
N107   N     0.50000   0.28402   0.25000   0.00000  Uiso   1.00
N108   N     0.50000   0.04931   0.25000   0.00000  Uiso   1.00
O109   O     0.43988   0.20625   0.24999   0.00000  Uiso   1.00
O110   O     0.54243   0.28809   0.31739   0.00000  Uiso   1.00
O111   O     0.54193   0.04598   0.31775   0.00000  Uiso   1.00
O112   O     0.45773   0.28745   0.18245   0.00000  Uiso   1.00
O113   O     0.37561   0.12127   0.18426   0.00000  Uiso   1.00
O114   O     0.62438   0.21205   0.31574   0.00000  Uiso   1.00
O115   O     0.62242   0.12257   0.18006   0.00000  Uiso   1.00
O116   O     0.37757   0.21072   0.31994   0.00000  Uiso   1.00
O117   O     0.56012   0.12709   0.25000   0.00000  Uiso   1.00
O118   O     0.56012   0.20625   0.25000   0.00000  Uiso   1.00
O119   O     0.43988   0.12709   0.24999   0.00000  Uiso   1.00
O120   O     0.50000   0.20626   0.18573   0.00000  Uiso   1.00
O121   O     0.50000   0.12707   0.31427   0.00000  Uiso   1.00
O122   O     0.50000   0.20626   0.31427   0.00000  Uiso   1.00
O123   O     0.50000   0.12707   0.18573   0.00000  Uiso   1.00
O124   O     0.45792   0.04535   0.18240   0.00000  Uiso   1.00
C125   C     0.75427   0.16650   0.25018   0.00000  Uiso   1.00
C126   C     0.97943   0.19048   0.28326   0.00000  Uiso   1.00
C127   C     0.97719   0.14386   0.21520   0.00000  Uiso   1.00
C128   C     0.68947   0.18945   0.28478   0.00000  Uiso   1.00
C129   C     0.82054   0.20568   0.04694   0.00000  Uiso   1.00
C130   C     0.82137   0.12671   0.45172   0.00000  Uiso   1.00
C131   C     0.84590   0.20612   0.45304   0.00000  Uiso   1.00
C132   C     0.84639   0.12717   0.04840   0.00000  Uiso   1.00
C133   C     0.82073   0.20587   0.09287   0.00000  Uiso   1.00
C134   C     0.82158   0.12671   0.40580   0.00000  Uiso   1.00
C135   C     0.84557   0.20631   0.40710   0.00000  Uiso   1.00
C136   C     0.91239   0.16683   0.24981   0.00000  Uiso   1.00
C137   C     0.84604   0.12715   0.09432   0.00000  Uiso   1.00
C138   C     0.83334   0.16657   0.11683   0.00000  Uiso   1.00
C139   C     0.83352   0.16657   0.38320   0.00000  Uiso   1.00
C140   C     0.83352   0.16640   0.02432   0.00000  Uiso   1.00
C141   C     0.83363   0.16638   0.47573   0.00000  Uiso   1.00
C142   C     0.95707   0.16732   0.24900   0.00000  Uiso   1.00
C143   C     0.70960   0.16600   0.25098   0.00000  Uiso   1.00
C144   C     0.83325   0.16665   0.16510   0.00000  Uiso   1.00
C145   C     0.83346   0.16666   0.33490   0.00000  Uiso   1.00
C146   C     0.81309   0.02429   0.21673   0.00000  Uiso   1.00
C147   C     0.85366   0.30907   0.28322   0.00000  Uiso   1.00
C148   C     0.85357   0.02461   0.28328   0.00000  Uiso   1.00
C149   C     0.81302   0.30876   0.21677   0.00000  Uiso   1.00
C150   C     0.68723   0.14284   0.21672   0.00000  Uiso   1.00
Cu151  Cu    0.83333   0.21355   0.25000   0.00000  Uiso   1.00
Cu152  Cu    0.83333   0.11978   0.25000   0.00000  Uiso   1.00
H153   H     0.80976   0.23607   0.02913   0.00000  Uiso   1.00
H154   H     0.88735   0.25947   0.30595   0.00000  Uiso   1.00
H155   H     0.88766   0.07438   0.30633   0.00000  Uiso   1.00
H156   H     0.77900   0.25886   0.19381   0.00000  Uiso   1.00
H157   H     0.68969   0.10545   0.16279   0.00000  Uiso   1.00
H158   H     0.97697   0.22786   0.33721   0.00000  Uiso   1.00
H159   H     0.92748   0.13522   0.17653   0.00000  Uiso   1.00
H160   H     0.73916   0.19802   0.32349   0.00000  Uiso   1.00
H161   H     0.81110   0.09587   0.46839   0.00000  Uiso   1.00
H162   H     0.85620   0.23689   0.47080   0.00000  Uiso   1.00
H163   H     0.85722   0.09672   0.03178   0.00000  Uiso   1.00
H164   H     0.81046   0.23653   0.10954   0.00000  Uiso   1.00
H165   H     0.81185   0.09573   0.38798   0.00000  Uiso   1.00
H166   H     0.85527   0.23734   0.39038   0.00000  Uiso   1.00
H167   H     0.85625   0.09655   0.11221   0.00000  Uiso   1.00
H168   H     0.77933   0.07376   0.19391   0.00000  Uiso   1.00
N169   N     0.83333   0.28402   0.25000   0.00000  Uiso   1.00
N170   N     0.83333   0.04931   0.25000   0.00000  Uiso   1.00
O171   O     0.77321   0.20625   0.24999   0.00000  Uiso   1.00
O172   O     0.87576   0.28809   0.31739   0.00000  Uiso   1.00
O173   O     0.87526   0.04598   0.31775   0.00000  Uiso   1.00
O174   O     0.79106   0.28745   0.18245   0.00000  Uiso   1.00
O175   O     0.70895   0.12127   0.18426   0.00000  Uiso   1.00
O176   O     0.95771   0.21205   0.31574   0.00000  Uiso   1.00
O177   O     0.95576   0.12257   0.18006   0.00000  Uiso   1.00
O178   O     0.71090   0.21072   0.31994   0.00000  Uiso   1.00
O179   O     0.89345   0.12709   0.25000   0.00000  Uiso   1.00
O180   O     0.89345   0.20625   0.25000   0.00000  Uiso   1.00
O181   O     0.77321   0.12709   0.24999   0.00000  Uiso   1.00
O182   O     0.83333   0.20626   0.18573   0.00000  Uiso   1.00
O183   O     0.83334   0.12707   0.31427   0.00000  Uiso   1.00
O184   O     0.83334   0.20626   0.31427   0.00000  Uiso   1.00
O185   O     0.83333   0.12707   0.18573   0.00000  Uiso   1.00
O186   O     0.79126   0.04535   0.18240   0.00000  Uiso   1.00
C187   C     0.08761   0.49983   0.25018   0.00000  Uiso   1.00
C188   C     0.31277   0.52381   0.28326   0.00000  Uiso   1.00
C189   C     0.31053   0.47719   0.21520   0.00000  Uiso   1.00
C190   C     0.02280   0.52279   0.28478   0.00000  Uiso   1.00
C191   C     0.15387   0.53901   0.04694   0.00000  Uiso   1.00
C192   C     0.15470   0.46004   0.45172   0.00000  Uiso   1.00
C193   C     0.17923   0.53945   0.45304   0.00000  Uiso   1.00
C194   C     0.17972   0.46050   0.04840   0.00000  Uiso   1.00
C195   C     0.15406   0.53920   0.09287   0.00000  Uiso   1.00
C196   C     0.15491   0.46004   0.40580   0.00000  Uiso   1.00
C197   C     0.17890   0.53964   0.40710   0.00000  Uiso   1.00
C198   C     0.24572   0.50016   0.24981   0.00000  Uiso   1.00
C199   C     0.17937   0.46048   0.09432   0.00000  Uiso   1.00
C200   C     0.16667   0.49990   0.11683   0.00000  Uiso   1.00
C201   C     0.16685   0.49991   0.38320   0.00000  Uiso   1.00
C202   C     0.16685   0.49973   0.02432   0.00000  Uiso   1.00
C203   C     0.16696   0.49972   0.47573   0.00000  Uiso   1.00
C204   C     0.29040   0.50066   0.24900   0.00000  Uiso   1.00
C205   C     0.04293   0.49934   0.25098   0.00000  Uiso   1.00
C206   C     0.16658   0.49999   0.16510   0.00000  Uiso   1.00
C207   C     0.16680   0.49999   0.33490   0.00000  Uiso   1.00
C208   C     0.14642   0.35763   0.21673   0.00000  Uiso   1.00
C209   C     0.18699   0.64241   0.28322   0.00000  Uiso   1.00
C210   C     0.18691   0.35794   0.28328   0.00000  Uiso   1.00
C211   C     0.14635   0.64209   0.21677   0.00000  Uiso   1.00
C212   C     0.02056   0.47617   0.21672   0.00000  Uiso   1.00
Cu213  Cu    0.16667   0.54689   0.25000   0.00000  Uiso   1.00
Cu214  Cu    0.16667   0.45311   0.25000   0.00000  Uiso   1.00
H215   H     0.14309   0.56941   0.02913   0.00000  Uiso   1.00
H216   H     0.22068   0.59281   0.30595   0.00000  Uiso   1.00
H217   H     0.22099   0.40771   0.30633   0.00000  Uiso   1.00
H218   H     0.11233   0.59219   0.19381   0.00000  Uiso   1.00
H219   H     0.02302   0.43878   0.16279   0.00000  Uiso   1.00
H220   H     0.31030   0.56119   0.33721   0.00000  Uiso   1.00
H221   H     0.26082   0.46855   0.17653   0.00000  Uiso   1.00
H222   H     0.07249   0.53135   0.32349   0.00000  Uiso   1.00
H223   H     0.14443   0.42921   0.46839   0.00000  Uiso   1.00
H224   H     0.18954   0.57023   0.47080   0.00000  Uiso   1.00
H225   H     0.19055   0.43005   0.03178   0.00000  Uiso   1.00
H226   H     0.14379   0.56987   0.10954   0.00000  Uiso   1.00
H227   H     0.14518   0.42907   0.38798   0.00000  Uiso   1.00
H228   H     0.18860   0.57067   0.39038   0.00000  Uiso   1.00
H229   H     0.18959   0.42989   0.11221   0.00000  Uiso   1.00
H230   H     0.11266   0.40710   0.19391   0.00000  Uiso   1.00
N231   N     0.16667   0.61736   0.25000   0.00000  Uiso   1.00
N232   N     0.16667   0.38264   0.25000   0.00000  Uiso   1.00
O233   O     0.10655   0.53958   0.24999   0.00000  Uiso   1.00
O234   O     0.20909   0.62142   0.31739   0.00000  Uiso   1.00
O235   O     0.20859   0.37932   0.31775   0.00000  Uiso   1.00
O236   O     0.12439   0.62079   0.18245   0.00000  Uiso   1.00
O237   O     0.04228   0.45460   0.18426   0.00000  Uiso   1.00
O238   O     0.29105   0.54538   0.31574   0.00000  Uiso   1.00
O239   O     0.28909   0.45591   0.18006   0.00000  Uiso   1.00
O240   O     0.04423   0.54405   0.31994   0.00000  Uiso   1.00
O241   O     0.22679   0.46042   0.25000   0.00000  Uiso   1.00
O242   O     0.22679   0.53958   0.25000   0.00000  Uiso   1.00
O243   O     0.10655   0.46042   0.24999   0.00000  Uiso   1.00
O244   O     0.16666   0.53959   0.18573   0.00000  Uiso   1.00
O245   O     0.16667   0.46041   0.31427   0.00000  Uiso   1.00
O246   O     0.16667   0.53959   0.31427   0.00000  Uiso   1.00
O247   O     0.16666   0.46041   0.18573   0.00000  Uiso   1.00
O248   O     0.12459   0.37869   0.18240   0.00000  Uiso   1.00
C249   C     0.42094   0.49983   0.25018   0.00000  Uiso   1.00
C250   C     0.64610   0.52381   0.28326   0.00000  Uiso   1.00
C251   C     0.64386   0.47719   0.21520   0.00000  Uiso   1.00
C252   C     0.35613   0.52279   0.28478   0.00000  Uiso   1.00
C253   C     0.48720   0.53901   0.04694   0.00000  Uiso   1.00
C254   C     0.48804   0.46004   0.45172   0.00000  Uiso   1.00
C255   C     0.51256   0.53945   0.45304   0.00000  Uiso   1.00
C256   C     0.51306   0.46050   0.04840   0.00000  Uiso   1.00
C257   C     0.48739   0.53920   0.09287   0.00000  Uiso   1.00
C258   C     0.48824   0.46004   0.40580   0.00000  Uiso   1.00
C259   C     0.51224   0.53964   0.40710   0.00000  Uiso   1.00
C260   C     0.57906   0.50016   0.24981   0.00000  Uiso   1.00
C261   C     0.51270   0.46048   0.09432   0.00000  Uiso   1.00
C262   C     0.50000   0.49990   0.11683   0.00000  Uiso   1.00
C263   C     0.50019   0.49991   0.38320   0.00000  Uiso   1.00
C264   C     0.50019   0.49973   0.02432   0.00000  Uiso   1.00
C265   C     0.50030   0.49972   0.47573   0.00000  Uiso   1.00
C266   C     0.62373   0.50066   0.24900   0.00000  Uiso   1.00
C267   C     0.37626   0.49934   0.25098   0.00000  Uiso   1.00
C268   C     0.49991   0.49999   0.16510   0.00000  Uiso   1.00
C269   C     0.50013   0.49999   0.33490   0.00000  Uiso   1.00
C270   C     0.47975   0.35763   0.21673   0.00000  Uiso   1.00
C271   C     0.52033   0.64241   0.28322   0.00000  Uiso   1.00
C272   C     0.52024   0.35794   0.28328   0.00000  Uiso   1.00
C273   C     0.47968   0.64209   0.21677   0.00000  Uiso   1.00
C274   C     0.35389   0.47617   0.21672   0.00000  Uiso   1.00
Cu275  Cu    0.50000   0.54689   0.25000   0.00000  Uiso   1.00
Cu276  Cu    0.50000   0.45311   0.25000   0.00000  Uiso   1.00
H277   H     0.47642   0.56941   0.02913   0.00000  Uiso   1.00
H278   H     0.55401   0.59281   0.30595   0.00000  Uiso   1.00
H279   H     0.55432   0.40771   0.30633   0.00000  Uiso   1.00
H280   H     0.44567   0.59219   0.19381   0.00000  Uiso   1.00
H281   H     0.35636   0.43878   0.16279   0.00000  Uiso   1.00
H282   H     0.64364   0.56119   0.33721   0.00000  Uiso   1.00
H283   H     0.59415   0.46855   0.17653   0.00000  Uiso   1.00
H284   H     0.40582   0.53135   0.32349   0.00000  Uiso   1.00
H285   H     0.47777   0.42921   0.46839   0.00000  Uiso   1.00
H286   H     0.52287   0.57023   0.47080   0.00000  Uiso   1.00
H287   H     0.52388   0.43005   0.03178   0.00000  Uiso   1.00
H288   H     0.47713   0.56987   0.10954   0.00000  Uiso   1.00
H289   H     0.47852   0.42907   0.38798   0.00000  Uiso   1.00
H290   H     0.52193   0.57067   0.39038   0.00000  Uiso   1.00
H291   H     0.52292   0.42989   0.11221   0.00000  Uiso   1.00
H292   H     0.44600   0.40710   0.19391   0.00000  Uiso   1.00
N293   N     0.50000   0.61736   0.25000   0.00000  Uiso   1.00
N294   N     0.50000   0.38264   0.25000   0.00000  Uiso   1.00
O295   O     0.43988   0.53958   0.24999   0.00000  Uiso   1.00
O296   O     0.54243   0.62142   0.31739   0.00000  Uiso   1.00
O297   O     0.54193   0.37932   0.31775   0.00000  Uiso   1.00
O298   O     0.45773   0.62079   0.18245   0.00000  Uiso   1.00
O299   O     0.37561   0.45460   0.18426   0.00000  Uiso   1.00
O300   O     0.62438   0.54538   0.31574   0.00000  Uiso   1.00
O301   O     0.62242   0.45591   0.18006   0.00000  Uiso   1.00
O302   O     0.37757   0.54405   0.31994   0.00000  Uiso   1.00
O303   O     0.56012   0.46042   0.25000   0.00000  Uiso   1.00
O304   O     0.56012   0.53958   0.25000   0.00000  Uiso   1.00
O305   O     0.43988   0.46042   0.24999   0.00000  Uiso   1.00
O306   O     0.50000   0.53959   0.18573   0.00000  Uiso   1.00
O307   O     0.50000   0.46041   0.31427   0.00000  Uiso   1.00
O308   O     0.50000   0.53959   0.31427   0.00000  Uiso   1.00
O309   O     0.50000   0.46041   0.18573   0.00000  Uiso   1.00
O310   O     0.45792   0.37869   0.18240   0.00000  Uiso   1.00
C311   C     0.75427   0.49983   0.25018   0.00000  Uiso   1.00
C312   C     0.97943   0.52381   0.28326   0.00000  Uiso   1.00
C313   C     0.97719   0.47719   0.21520   0.00000  Uiso   1.00
C314   C     0.68947   0.52279   0.28478   0.00000  Uiso   1.00
C315   C     0.82054   0.53901   0.04694   0.00000  Uiso   1.00
C316   C     0.82137   0.46004   0.45172   0.00000  Uiso   1.00
C317   C     0.84590   0.53945   0.45304   0.00000  Uiso   1.00
C318   C     0.84639   0.46050   0.04840   0.00000  Uiso   1.00
C319   C     0.82073   0.53920   0.09287   0.00000  Uiso   1.00
C320   C     0.82158   0.46004   0.40580   0.00000  Uiso   1.00
C321   C     0.84557   0.53964   0.40710   0.00000  Uiso   1.00
C322   C     0.91239   0.50016   0.24981   0.00000  Uiso   1.00
C323   C     0.84604   0.46048   0.09432   0.00000  Uiso   1.00
C324   C     0.83334   0.49990   0.11683   0.00000  Uiso   1.00
C325   C     0.83352   0.49991   0.38320   0.00000  Uiso   1.00
C326   C     0.83352   0.49973   0.02432   0.00000  Uiso   1.00
C327   C     0.83363   0.49972   0.47573   0.00000  Uiso   1.00
C328   C     0.95707   0.50066   0.24900   0.00000  Uiso   1.00
C329   C     0.70960   0.49934   0.25098   0.00000  Uiso   1.00
C330   C     0.83325   0.49999   0.16510   0.00000  Uiso   1.00
C331   C     0.83346   0.49999   0.33490   0.00000  Uiso   1.00
C332   C     0.81309   0.35763   0.21673   0.00000  Uiso   1.00
C333   C     0.85366   0.64241   0.28322   0.00000  Uiso   1.00
C334   C     0.85357   0.35794   0.28328   0.00000  Uiso   1.00
C335   C     0.81302   0.64209   0.21677   0.00000  Uiso   1.00
C336   C     0.68723   0.47617   0.21672   0.00000  Uiso   1.00
Cu337  Cu    0.83333   0.54689   0.25000   0.00000  Uiso   1.00
Cu338  Cu    0.83333   0.45311   0.25000   0.00000  Uiso   1.00
H339   H     0.80976   0.56941   0.02913   0.00000  Uiso   1.00
H340   H     0.88735   0.59281   0.30595   0.00000  Uiso   1.00
H341   H     0.88766   0.40771   0.30633   0.00000  Uiso   1.00
H342   H     0.77900   0.59219   0.19381   0.00000  Uiso   1.00
H343   H     0.68969   0.43878   0.16279   0.00000  Uiso   1.00
H344   H     0.97697   0.56119   0.33721   0.00000  Uiso   1.00
H345   H     0.92748   0.46855   0.17653   0.00000  Uiso   1.00
H346   H     0.73916   0.53135   0.32349   0.00000  Uiso   1.00
H347   H     0.81110   0.42921   0.46839   0.00000  Uiso   1.00
H348   H     0.85620   0.57023   0.47080   0.00000  Uiso   1.00
H349   H     0.85722   0.43005   0.03178   0.00000  Uiso   1.00
H350   H     0.81046   0.56987   0.10954   0.00000  Uiso   1.00
H351   H     0.81185   0.42907   0.38798   0.00000  Uiso   1.00
H352   H     0.85527   0.57067   0.39038   0.00000  Uiso   1.00
H353   H     0.85625   0.42989   0.11221   0.00000  Uiso   1.00
H354   H     0.77933   0.40710   0.19391   0.00000  Uiso   1.00
N355   N     0.83333   0.61736   0.25000   0.00000  Uiso   1.00
N356   N     0.83333   0.38264   0.25000   0.00000  Uiso   1.00
O357   O     0.77321   0.53958   0.24999   0.00000  Uiso   1.00
O358   O     0.87576   0.62142   0.31739   0.00000  Uiso   1.00
O359   O     0.87526   0.37932   0.31775   0.00000  Uiso   1.00
O360   O     0.79106   0.62079   0.18245   0.00000  Uiso   1.00
O361   O     0.70895   0.45460   0.18426   0.00000  Uiso   1.00
O362   O     0.95771   0.54538   0.31574   0.00000  Uiso   1.00
O363   O     0.95576   0.45591   0.18006   0.00000  Uiso   1.00
O364   O     0.71090   0.54405   0.31994   0.00000  Uiso   1.00
O365   O     0.89345   0.46042   0.25000   0.00000  Uiso   1.00
O366   O     0.89345   0.53958   0.25000   0.00000  Uiso   1.00
O367   O     0.77321   0.46042   0.24999   0.00000  Uiso   1.00
O368   O     0.83333   0.53959   0.18573   0.00000  Uiso   1.00
O369   O     0.83334   0.46041   0.31427   0.00000  Uiso   1.00
O370   O     0.83334   0.53959   0.31427   0.00000  Uiso   1.00
O371   O     0.83333   0.46041   0.18573   0.00000  Uiso   1.00
O372   O     0.79126   0.37869   0.18240   0.00000  Uiso   1.00
C373   C     0.08761   0.83317   0.25018   0.00000  Uiso   1.00
C374   C     0.31277   0.85715   0.28326   0.00000  Uiso   1.00
C375   C     0.31053   0.81053   0.21520   0.00000  Uiso   1.00
C376   C     0.02280   0.85612   0.28478   0.00000  Uiso   1.00
C377   C     0.15387   0.87235   0.04694   0.00000  Uiso   1.00
C378   C     0.15470   0.79337   0.45172   0.00000  Uiso   1.00
C379   C     0.17923   0.87279   0.45304   0.00000  Uiso   1.00
C380   C     0.17972   0.79384   0.04840   0.00000  Uiso   1.00
C381   C     0.15406   0.87254   0.09287   0.00000  Uiso   1.00
C382   C     0.15491   0.79337   0.40580   0.00000  Uiso   1.00
C383   C     0.17890   0.87298   0.40710   0.00000  Uiso   1.00
C384   C     0.24572   0.83350   0.24981   0.00000  Uiso   1.00
C385   C     0.17937   0.79382   0.09432   0.00000  Uiso   1.00
C386   C     0.16667   0.83323   0.11683   0.00000  Uiso   1.00
C387   C     0.16685   0.83324   0.38320   0.00000  Uiso   1.00
C388   C     0.16685   0.83306   0.02432   0.00000  Uiso   1.00
C389   C     0.16696   0.83305   0.47573   0.00000  Uiso   1.00
C390   C     0.29040   0.83399   0.24900   0.00000  Uiso   1.00
C391   C     0.04293   0.83267   0.25098   0.00000  Uiso   1.00
C392   C     0.16658   0.83332   0.16510   0.00000  Uiso   1.00
C393   C     0.16680   0.83332   0.33490   0.00000  Uiso   1.00
C394   C     0.14642   0.69096   0.21673   0.00000  Uiso   1.00
C395   C     0.18699   0.97574   0.28322   0.00000  Uiso   1.00
C396   C     0.18691   0.69127   0.28328   0.00000  Uiso   1.00
C397   C     0.14635   0.97542   0.21677   0.00000  Uiso   1.00
C398   C     0.02056   0.80951   0.21672   0.00000  Uiso   1.00
Cu399  Cu    0.16667   0.88022   0.25000   0.00000  Uiso   1.00
Cu400  Cu    0.16667   0.78645   0.25000   0.00000  Uiso   1.00
H401   H     0.14309   0.90274   0.02913   0.00000  Uiso   1.00
H402   H     0.22068   0.92614   0.30595   0.00000  Uiso   1.00
H403   H     0.22099   0.74104   0.30633   0.00000  Uiso   1.00
H404   H     0.11233   0.92553   0.19381   0.00000  Uiso   1.00
H405   H     0.02302   0.77211   0.16279   0.00000  Uiso   1.00
H406   H     0.31030   0.89453   0.33721   0.00000  Uiso   1.00
H407   H     0.26082   0.80189   0.17653   0.00000  Uiso   1.00
H408   H     0.07249   0.86468   0.32349   0.00000  Uiso   1.00
H409   H     0.14443   0.76254   0.46839   0.00000  Uiso   1.00
H410   H     0.18954   0.90356   0.47080   0.00000  Uiso   1.00
H411   H     0.19055   0.76338   0.03178   0.00000  Uiso   1.00
H412   H     0.14379   0.90320   0.10954   0.00000  Uiso   1.00
H413   H     0.14518   0.76240   0.38798   0.00000  Uiso   1.00
H414   H     0.18860   0.90400   0.39038   0.00000  Uiso   1.00
H415   H     0.18959   0.76322   0.11221   0.00000  Uiso   1.00
H416   H     0.11266   0.74043   0.19391   0.00000  Uiso   1.00
N417   N     0.16667   0.95069   0.25000   0.00000  Uiso   1.00
N418   N     0.16667   0.71598   0.25000   0.00000  Uiso   1.00
O419   O     0.10655   0.87291   0.24999   0.00000  Uiso   1.00
O420   O     0.20909   0.95475   0.31739   0.00000  Uiso   1.00
O421   O     0.20859   0.71265   0.31775   0.00000  Uiso   1.00
O422   O     0.12439   0.95412   0.18245   0.00000  Uiso   1.00
O423   O     0.04228   0.78793   0.18426   0.00000  Uiso   1.00
O424   O     0.29105   0.87871   0.31574   0.00000  Uiso   1.00
O425   O     0.28909   0.78924   0.18006   0.00000  Uiso   1.00
O426   O     0.04423   0.87739   0.31994   0.00000  Uiso   1.00
O427   O     0.22679   0.79375   0.25000   0.00000  Uiso   1.00
O428   O     0.22679   0.87291   0.25000   0.00000  Uiso   1.00
O429   O     0.10655   0.79375   0.24999   0.00000  Uiso   1.00
O430   O     0.16666   0.87293   0.18573   0.00000  Uiso   1.00
O431   O     0.16667   0.79374   0.31427   0.00000  Uiso   1.00
O432   O     0.16667   0.87293   0.31427   0.00000  Uiso   1.00
O433   O     0.16666   0.79374   0.18573   0.00000  Uiso   1.00
O434   O     0.12459   0.71202   0.18240   0.00000  Uiso   1.00
C435   C     0.42094   0.83317   0.25018   0.00000  Uiso   1.00
C436   C     0.64610   0.85715   0.28326   0.00000  Uiso   1.00
C437   C     0.64386   0.81053   0.21520   0.00000  Uiso   1.00
C438   C     0.35613   0.85612   0.28478   0.00000  Uiso   1.00
C439   C     0.48720   0.87235   0.04694   0.00000  Uiso   1.00
C440   C     0.48804   0.79337   0.45172   0.00000  Uiso   1.00
C441   C     0.51256   0.87279   0.45304   0.00000  Uiso   1.00
C442   C     0.51306   0.79384   0.04840   0.00000  Uiso   1.00
C443   C     0.48739   0.87254   0.09287   0.00000  Uiso   1.00
C444   C     0.48824   0.79337   0.40580   0.00000  Uiso   1.00
C445   C     0.51224   0.87298   0.40710   0.00000  Uiso   1.00
C446   C     0.57906   0.83350   0.24981   0.00000  Uiso   1.00
C447   C     0.51270   0.79382   0.09432   0.00000  Uiso   1.00
C448   C     0.50000   0.83323   0.11683   0.00000  Uiso   1.00
C449   C     0.50019   0.83324   0.38320   0.00000  Uiso   1.00
C450   C     0.50019   0.83306   0.02432   0.00000  Uiso   1.00
C451   C     0.50030   0.83305   0.47573   0.00000  Uiso   1.00
C452   C     0.62373   0.83399   0.24900   0.00000  Uiso   1.00
C453   C     0.37626   0.83267   0.25098   0.00000  Uiso   1.00
C454   C     0.49991   0.83332   0.16510   0.00000  Uiso   1.00
C455   C     0.50013   0.83332   0.33490   0.00000  Uiso   1.00
C456   C     0.47975   0.69096   0.21673   0.00000  Uiso   1.00
C457   C     0.52033   0.97574   0.28322   0.00000  Uiso   1.00
C458   C     0.52024   0.69127   0.28328   0.00000  Uiso   1.00
C459   C     0.47968   0.97542   0.21677   0.00000  Uiso   1.00
C460   C     0.35389   0.80951   0.21672   0.00000  Uiso   1.00
Cu461  Cu    0.50000   0.88022   0.25000   0.00000  Uiso   1.00
Cu462  Cu    0.50000   0.78645   0.25000   0.00000  Uiso   1.00
H463   H     0.47642   0.90274   0.02913   0.00000  Uiso   1.00
H464   H     0.55401   0.92614   0.30595   0.00000  Uiso   1.00
H465   H     0.55432   0.74104   0.30633   0.00000  Uiso   1.00
H466   H     0.44567   0.92553   0.19381   0.00000  Uiso   1.00
H467   H     0.35636   0.77211   0.16279   0.00000  Uiso   1.00
H468   H     0.64364   0.89453   0.33721   0.00000  Uiso   1.00
H469   H     0.59415   0.80189   0.17653   0.00000  Uiso   1.00
H470   H     0.40582   0.86468   0.32349   0.00000  Uiso   1.00
H471   H     0.47777   0.76254   0.46839   0.00000  Uiso   1.00
H472   H     0.52287   0.90356   0.47080   0.00000  Uiso   1.00
H473   H     0.52388   0.76338   0.03178   0.00000  Uiso   1.00
H474   H     0.47713   0.90320   0.10954   0.00000  Uiso   1.00
H475   H     0.47852   0.76240   0.38798   0.00000  Uiso   1.00
H476   H     0.52193   0.90400   0.39038   0.00000  Uiso   1.00
H477   H     0.52292   0.76322   0.11221   0.00000  Uiso   1.00
H478   H     0.44600   0.74043   0.19391   0.00000  Uiso   1.00
N479   N     0.50000   0.95069   0.25000   0.00000  Uiso   1.00
N480   N     0.50000   0.71598   0.25000   0.00000  Uiso   1.00
O481   O     0.43988   0.87291   0.24999   0.00000  Uiso   1.00
O482   O     0.54243   0.95475   0.31739   0.00000  Uiso   1.00
O483   O     0.54193   0.71265   0.31775   0.00000  Uiso   1.00
O484   O     0.45773   0.95412   0.18245   0.00000  Uiso   1.00
O485   O     0.37561   0.78793   0.18426   0.00000  Uiso   1.00
O486   O     0.62438   0.87871   0.31574   0.00000  Uiso   1.00
O487   O     0.62242   0.78924   0.18006   0.00000  Uiso   1.00
O488   O     0.37757   0.87739   0.31994   0.00000  Uiso   1.00
O489   O     0.56012   0.79375   0.25000   0.00000  Uiso   1.00
O490   O     0.56012   0.87291   0.25000   0.00000  Uiso   1.00
O491   O     0.43988   0.79375   0.24999   0.00000  Uiso   1.00
O492   O     0.50000   0.87293   0.18573   0.00000  Uiso   1.00
O493   O     0.50000   0.79374   0.31427   0.00000  Uiso   1.00
O494   O     0.50000   0.87293   0.31427   0.00000  Uiso   1.00
O495   O     0.50000   0.79374   0.18573   0.00000  Uiso   1.00
O496   O     0.45792   0.71202   0.18240   0.00000  Uiso   1.00
C497   C     0.75427   0.83317   0.25018   0.00000  Uiso   1.00
C498   C     0.97943   0.85715   0.28326   0.00000  Uiso   1.00
C499   C     0.97719   0.81053   0.21520   0.00000  Uiso   1.00
C500   C     0.68947   0.85612   0.28478   0.00000  Uiso   1.00
C501   C     0.82054   0.87235   0.04694   0.00000  Uiso   1.00
C502   C     0.82137   0.79337   0.45172   0.00000  Uiso   1.00
C503   C     0.84590   0.87279   0.45304   0.00000  Uiso   1.00
C504   C     0.84639   0.79384   0.04840   0.00000  Uiso   1.00
C505   C     0.82073   0.87254   0.09287   0.00000  Uiso   1.00
C506   C     0.82158   0.79337   0.40580   0.00000  Uiso   1.00
C507   C     0.84557   0.87298   0.40710   0.00000  Uiso   1.00
C508   C     0.91239   0.83350   0.24981   0.00000  Uiso   1.00
C509   C     0.84604   0.79382   0.09432   0.00000  Uiso   1.00
C510   C     0.83334   0.83323   0.11683   0.00000  Uiso   1.00
C511   C     0.83352   0.83324   0.38320   0.00000  Uiso   1.00
C512   C     0.83352   0.83306   0.02432   0.00000  Uiso   1.00
C513   C     0.83363   0.83305   0.47573   0.00000  Uiso   1.00
C514   C     0.95707   0.83399   0.24900   0.00000  Uiso   1.00
C515   C     0.70960   0.83267   0.25098   0.00000  Uiso   1.00
C516   C     0.83325   0.83332   0.16510   0.00000  Uiso   1.00
C517   C     0.83346   0.83332   0.33490   0.00000  Uiso   1.00
C518   C     0.81309   0.69096   0.21673   0.00000  Uiso   1.00
C519   C     0.85366   0.97574   0.28322   0.00000  Uiso   1.00
C520   C     0.85357   0.69127   0.28328   0.00000  Uiso   1.00
C521   C     0.81302   0.97542   0.21677   0.00000  Uiso   1.00
C522   C     0.68723   0.80951   0.21672   0.00000  Uiso   1.00
Cu523  Cu    0.83333   0.88022   0.25000   0.00000  Uiso   1.00
Cu524  Cu    0.83333   0.78645   0.25000   0.00000  Uiso   1.00
H525   H     0.80976   0.90274   0.02913   0.00000  Uiso   1.00
H526   H     0.88735   0.92614   0.30595   0.00000  Uiso   1.00
H527   H     0.88766   0.74104   0.30633   0.00000  Uiso   1.00
H528   H     0.77900   0.92553   0.19381   0.00000  Uiso   1.00
H529   H     0.68969   0.77211   0.16279   0.00000  Uiso   1.00
H530   H     0.97697   0.89453   0.33721   0.00000  Uiso   1.00
H531   H     0.92748   0.80189   0.17653   0.00000  Uiso   1.00
H532   H     0.73916   0.86468   0.32349   0.00000  Uiso   1.00
H533   H     0.81110   0.76254   0.46839   0.00000  Uiso   1.00
H534   H     0.85620   0.90356   0.47080   0.00000  Uiso   1.00
H535   H     0.85722   0.76338   0.03178   0.00000  Uiso   1.00
H536   H     0.81046   0.90320   0.10954   0.00000  Uiso   1.00
H537   H     0.81185   0.76240   0.38798   0.00000  Uiso   1.00
H538   H     0.85527   0.90400   0.39038   0.00000  Uiso   1.00
H539   H     0.85625   0.76322   0.11221   0.00000  Uiso   1.00
H540   H     0.77933   0.74043   0.19391   0.00000  Uiso   1.00
N541   N     0.83333   0.95069   0.25000   0.00000  Uiso   1.00
N542   N     0.83333   0.71598   0.25000   0.00000  Uiso   1.00
O543   O     0.77321   0.87291   0.24999   0.00000  Uiso   1.00
O544   O     0.87576   0.95475   0.31739   0.00000  Uiso   1.00
O545   O     0.87526   0.71265   0.31775   0.00000  Uiso   1.00
O546   O     0.79106   0.95412   0.18245   0.00000  Uiso   1.00
O547   O     0.70895   0.78793   0.18426   0.00000  Uiso   1.00
O548   O     0.95771   0.87871   0.31574   0.00000  Uiso   1.00
O549   O     0.95576   0.78924   0.18006   0.00000  Uiso   1.00
O550   O     0.71090   0.87739   0.31994   0.00000  Uiso   1.00
O551   O     0.89345   0.79375   0.25000   0.00000  Uiso   1.00
O552   O     0.89345   0.87291   0.25000   0.00000  Uiso   1.00
O553   O     0.77321   0.79375   0.24999   0.00000  Uiso   1.00
O554   O     0.83333   0.87293   0.18573   0.00000  Uiso   1.00
O555   O     0.83334   0.79374   0.31427   0.00000  Uiso   1.00
O556   O     0.83334   0.87293   0.31427   0.00000  Uiso   1.00
O557   O     0.83333   0.79374   0.18573   0.00000  Uiso   1.00
O558   O     0.79126   0.71202   0.18240   0.00000  Uiso   1.00
C559   C     0.08761   0.16650   0.75018   0.00000  Uiso   1.00
C560   C     0.31277   0.19048   0.78326   0.00000  Uiso   1.00
C561   C     0.31053   0.14386   0.71520   0.00000  Uiso   1.00
C562   C     0.02280   0.18945   0.78478   0.00000  Uiso   1.00
C563   C     0.15387   0.20568   0.54694   0.00000  Uiso   1.00
C564   C     0.15470   0.12671   0.95172   0.00000  Uiso   1.00
C565   C     0.17923   0.20612   0.95304   0.00000  Uiso   1.00
C566   C     0.17972   0.12717   0.54840   0.00000  Uiso   1.00
C567   C     0.15406   0.20587   0.59287   0.00000  Uiso   1.00
C568   C     0.15491   0.12671   0.90580   0.00000  Uiso   1.00
C569   C     0.17890   0.20631   0.90710   0.00000  Uiso   1.00
C570   C     0.24572   0.16683   0.74981   0.00000  Uiso   1.00
C571   C     0.17937   0.12715   0.59432   0.00000  Uiso   1.00
C572   C     0.16667   0.16657   0.61683   0.00000  Uiso   1.00
C573   C     0.16685   0.16657   0.88320   0.00000  Uiso   1.00
C574   C     0.16685   0.16640   0.52432   0.00000  Uiso   1.00
C575   C     0.16696   0.16638   0.97573   0.00000  Uiso   1.00
C576   C     0.29040   0.16732   0.74900   0.00000  Uiso   1.00
C577   C     0.04293   0.16600   0.75098   0.00000  Uiso   1.00
C578   C     0.16658   0.16665   0.66510   0.00000  Uiso   1.00
C579   C     0.16680   0.16666   0.83490   0.00000  Uiso   1.00
C580   C     0.14642   0.02429   0.71673   0.00000  Uiso   1.00
C581   C     0.18699   0.30907   0.78322   0.00000  Uiso   1.00
C582   C     0.18691   0.02461   0.78328   0.00000  Uiso   1.00
C583   C     0.14635   0.30876   0.71677   0.00000  Uiso   1.00
C584   C     0.02056   0.14284   0.71672   0.00000  Uiso   1.00
Cu585  Cu    0.16667   0.21355   0.75000   0.00000  Uiso   1.00
Cu586  Cu    0.16667   0.11978   0.75000   0.00000  Uiso   1.00
H587   H     0.14309   0.23607   0.52913   0.00000  Uiso   1.00
H588   H     0.22068   0.25947   0.80595   0.00000  Uiso   1.00
H589   H     0.22099   0.07438   0.80633   0.00000  Uiso   1.00
H590   H     0.11233   0.25886   0.69381   0.00000  Uiso   1.00
H591   H     0.02302   0.10545   0.66279   0.00000  Uiso   1.00
H592   H     0.31030   0.22786   0.83721   0.00000  Uiso   1.00
H593   H     0.26082   0.13522   0.67653   0.00000  Uiso   1.00
H594   H     0.07249   0.19802   0.82349   0.00000  Uiso   1.00
H595   H     0.14443   0.09587   0.96839   0.00000  Uiso   1.00
H596   H     0.18954   0.23689   0.97080   0.00000  Uiso   1.00
H597   H     0.19055   0.09672   0.53178   0.00000  Uiso   1.00
H598   H     0.14379   0.23653   0.60954   0.00000  Uiso   1.00
H599   H     0.14518   0.09573   0.88798   0.00000  Uiso   1.00
H600   H     0.18860   0.23734   0.89038   0.00000  Uiso   1.00
H601   H     0.18959   0.09655   0.61221   0.00000  Uiso   1.00
H602   H     0.11266   0.07376   0.69391   0.00000  Uiso   1.00
N603   N     0.16667   0.28402   0.75000   0.00000  Uiso   1.00
N604   N     0.16667   0.04931   0.75000   0.00000  Uiso   1.00
O605   O     0.10655   0.20625   0.74999   0.00000  Uiso   1.00
O606   O     0.20909   0.28809   0.81739   0.00000  Uiso   1.00
O607   O     0.20859   0.04598   0.81775   0.00000  Uiso   1.00
O608   O     0.12439   0.28745   0.68245   0.00000  Uiso   1.00
O609   O     0.04228   0.12127   0.68426   0.00000  Uiso   1.00
O610   O     0.29105   0.21205   0.81574   0.00000  Uiso   1.00
O611   O     0.28909   0.12257   0.68006   0.00000  Uiso   1.00
O612   O     0.04423   0.21072   0.81994   0.00000  Uiso   1.00
O613   O     0.22679   0.12709   0.75000   0.00000  Uiso   1.00
O614   O     0.22679   0.20625   0.75000   0.00000  Uiso   1.00
O615   O     0.10655   0.12709   0.74999   0.00000  Uiso   1.00
O616   O     0.16666   0.20626   0.68573   0.00000  Uiso   1.00
O617   O     0.16667   0.12707   0.81427   0.00000  Uiso   1.00
O618   O     0.16667   0.20626   0.81427   0.00000  Uiso   1.00
O619   O     0.16666   0.12707   0.68573   0.00000  Uiso   1.00
O620   O     0.12459   0.04535   0.68240   0.00000  Uiso   1.00
C621   C     0.42094   0.16650   0.75018   0.00000  Uiso   1.00
C622   C     0.64610   0.19048   0.78326   0.00000  Uiso   1.00
C623   C     0.64386   0.14386   0.71520   0.00000  Uiso   1.00
C624   C     0.35613   0.18945   0.78478   0.00000  Uiso   1.00
C625   C     0.48720   0.20568   0.54694   0.00000  Uiso   1.00
C626   C     0.48804   0.12671   0.95172   0.00000  Uiso   1.00
C627   C     0.51256   0.20612   0.95304   0.00000  Uiso   1.00
C628   C     0.51306   0.12717   0.54840   0.00000  Uiso   1.00
C629   C     0.48739   0.20587   0.59287   0.00000  Uiso   1.00
C630   C     0.48824   0.12671   0.90580   0.00000  Uiso   1.00
C631   C     0.51224   0.20631   0.90710   0.00000  Uiso   1.00
C632   C     0.57906   0.16683   0.74981   0.00000  Uiso   1.00
C633   C     0.51270   0.12715   0.59432   0.00000  Uiso   1.00
C634   C     0.50000   0.16657   0.61683   0.00000  Uiso   1.00
C635   C     0.50019   0.16657   0.88320   0.00000  Uiso   1.00
C636   C     0.50019   0.16640   0.52432   0.00000  Uiso   1.00
C637   C     0.50030   0.16638   0.97573   0.00000  Uiso   1.00
C638   C     0.62373   0.16732   0.74900   0.00000  Uiso   1.00
C639   C     0.37626   0.16600   0.75098   0.00000  Uiso   1.00
C640   C     0.49991   0.16665   0.66510   0.00000  Uiso   1.00
C641   C     0.50013   0.16666   0.83490   0.00000  Uiso   1.00
C642   C     0.47975   0.02429   0.71673   0.00000  Uiso   1.00
C643   C     0.52033   0.30907   0.78322   0.00000  Uiso   1.00
C644   C     0.52024   0.02461   0.78328   0.00000  Uiso   1.00
C645   C     0.47968   0.30876   0.71677   0.00000  Uiso   1.00
C646   C     0.35389   0.14284   0.71672   0.00000  Uiso   1.00
Cu647  Cu    0.50000   0.21355   0.75000   0.00000  Uiso   1.00
Cu648  Cu    0.50000   0.11978   0.75000   0.00000  Uiso   1.00
H649   H     0.47642   0.23607   0.52913   0.00000  Uiso   1.00
H650   H     0.55401   0.25947   0.80595   0.00000  Uiso   1.00
H651   H     0.55432   0.07438   0.80633   0.00000  Uiso   1.00
H652   H     0.44567   0.25886   0.69381   0.00000  Uiso   1.00
H653   H     0.35636   0.10545   0.66279   0.00000  Uiso   1.00
H654   H     0.64364   0.22786   0.83721   0.00000  Uiso   1.00
H655   H     0.59415   0.13522   0.67653   0.00000  Uiso   1.00
H656   H     0.40582   0.19802   0.82349   0.00000  Uiso   1.00
H657   H     0.47777   0.09587   0.96839   0.00000  Uiso   1.00
H658   H     0.52287   0.23689   0.97080   0.00000  Uiso   1.00
H659   H     0.52388   0.09672   0.53178   0.00000  Uiso   1.00
H660   H     0.47713   0.23653   0.60954   0.00000  Uiso   1.00
H661   H     0.47852   0.09573   0.88798   0.00000  Uiso   1.00
H662   H     0.52193   0.23734   0.89038   0.00000  Uiso   1.00
H663   H     0.52292   0.09655   0.61221   0.00000  Uiso   1.00
H664   H     0.44600   0.07376   0.69391   0.00000  Uiso   1.00
N665   N     0.50000   0.28402   0.75000   0.00000  Uiso   1.00
N666   N     0.50000   0.04931   0.75000   0.00000  Uiso   1.00
O667   O     0.43988   0.20625   0.74999   0.00000  Uiso   1.00
O668   O     0.54243   0.28809   0.81739   0.00000  Uiso   1.00
O669   O     0.54193   0.04598   0.81775   0.00000  Uiso   1.00
O670   O     0.45773   0.28745   0.68245   0.00000  Uiso   1.00
O671   O     0.37561   0.12127   0.68426   0.00000  Uiso   1.00
O672   O     0.62438   0.21205   0.81574   0.00000  Uiso   1.00
O673   O     0.62242   0.12257   0.68006   0.00000  Uiso   1.00
O674   O     0.37757   0.21072   0.81994   0.00000  Uiso   1.00
O675   O     0.56012   0.12709   0.75000   0.00000  Uiso   1.00
O676   O     0.56012   0.20625   0.75000   0.00000  Uiso   1.00
O677   O     0.43988   0.12709   0.74999   0.00000  Uiso   1.00
O678   O     0.50000   0.20626   0.68573   0.00000  Uiso   1.00
O679   O     0.50000   0.12707   0.81427   0.00000  Uiso   1.00
O680   O     0.50000   0.20626   0.81427   0.00000  Uiso   1.00
O681   O     0.50000   0.12707   0.68573   0.00000  Uiso   1.00
O682   O     0.45792   0.04535   0.68240   0.00000  Uiso   1.00
C683   C     0.75427   0.16650   0.75018   0.00000  Uiso   1.00
C684   C     0.97943   0.19048   0.78326   0.00000  Uiso   1.00
C685   C     0.97719   0.14386   0.71520   0.00000  Uiso   1.00
C686   C     0.68947   0.18945   0.78478   0.00000  Uiso   1.00
C687   C     0.82054   0.20568   0.54694   0.00000  Uiso   1.00
C688   C     0.82137   0.12671   0.95172   0.00000  Uiso   1.00
C689   C     0.84590   0.20612   0.95304   0.00000  Uiso   1.00
C690   C     0.84639   0.12717   0.54840   0.00000  Uiso   1.00
C691   C     0.82073   0.20587   0.59287   0.00000  Uiso   1.00
C692   C     0.82158   0.12671   0.90580   0.00000  Uiso   1.00
C693   C     0.84557   0.20631   0.90710   0.00000  Uiso   1.00
C694   C     0.91239   0.16683   0.74981   0.00000  Uiso   1.00
C695   C     0.84604   0.12715   0.59432   0.00000  Uiso   1.00
C696   C     0.83334   0.16657   0.61683   0.00000  Uiso   1.00
C697   C     0.83352   0.16657   0.88320   0.00000  Uiso   1.00
C698   C     0.83352   0.16640   0.52432   0.00000  Uiso   1.00
C699   C     0.83363   0.16638   0.97573   0.00000  Uiso   1.00
C700   C     0.95707   0.16732   0.74900   0.00000  Uiso   1.00
C701   C     0.70960   0.16600   0.75098   0.00000  Uiso   1.00
C702   C     0.83325   0.16665   0.66510   0.00000  Uiso   1.00
C703   C     0.83346   0.16666   0.83490   0.00000  Uiso   1.00
C704   C     0.81309   0.02429   0.71673   0.00000  Uiso   1.00
C705   C     0.85366   0.30907   0.78322   0.00000  Uiso   1.00
C706   C     0.85357   0.02461   0.78328   0.00000  Uiso   1.00
C707   C     0.81302   0.30876   0.71677   0.00000  Uiso   1.00
C708   C     0.68723   0.14284   0.71672   0.00000  Uiso   1.00
Cu709  Cu    0.83333   0.21355   0.75000   0.00000  Uiso   1.00
Cu710  Cu    0.83333   0.11978   0.75000   0.00000  Uiso   1.00
H711   H     0.80976   0.23607   0.52913   0.00000  Uiso   1.00
H712   H     0.88735   0.25947   0.80595   0.00000  Uiso   1.00
H713   H     0.88766   0.07438   0.80633   0.00000  Uiso   1.00
H714   H     0.77900   0.25886   0.69381   0.00000  Uiso   1.00
H715   H     0.68969   0.10545   0.66279   0.00000  Uiso   1.00
H716   H     0.97697   0.22786   0.83721   0.00000  Uiso   1.00
H717   H     0.92748   0.13522   0.67653   0.00000  Uiso   1.00
H718   H     0.73916   0.19802   0.82349   0.00000  Uiso   1.00
H719   H     0.81110   0.09587   0.96839   0.00000  Uiso   1.00
H720   H     0.85620   0.23689   0.97080   0.00000  Uiso   1.00
H721   H     0.85722   0.09672   0.53178   0.00000  Uiso   1.00
H722   H     0.81046   0.23653   0.60954   0.00000  Uiso   1.00
H723   H     0.81185   0.09573   0.88798   0.00000  Uiso   1.00
H724   H     0.85527   0.23734   0.89038   0.00000  Uiso   1.00
H725   H     0.85625   0.09655   0.61221   0.00000  Uiso   1.00
H726   H     0.77933   0.07376   0.69391   0.00000  Uiso   1.00
N727   N     0.83333   0.28402   0.75000   0.00000  Uiso   1.00
N728   N     0.83333   0.04931   0.75000   0.00000  Uiso   1.00
O729   O     0.77321   0.20625   0.74999   0.00000  Uiso   1.00
O730   O     0.87576   0.28809   0.81739   0.00000  Uiso   1.00
O731   O     0.87526   0.04598   0.81775   0.00000  Uiso   1.00
O732   O     0.79106   0.28745   0.68245   0.00000  Uiso   1.00
O733   O     0.70895   0.12127   0.68426   0.00000  Uiso   1.00
O734   O     0.95771   0.21205   0.81574   0.00000  Uiso   1.00
O735   O     0.95576   0.12257   0.68006   0.00000  Uiso   1.00
O736   O     0.71090   0.21072   0.81994   0.00000  Uiso   1.00
O737   O     0.89345   0.12709   0.75000   0.00000  Uiso   1.00
O738   O     0.89345   0.20625   0.75000   0.00000  Uiso   1.00
O739   O     0.77321   0.12709   0.74999   0.00000  Uiso   1.00
O740   O     0.83333   0.20626   0.68573   0.00000  Uiso   1.00
O741   O     0.83334   0.12707   0.81427   0.00000  Uiso   1.00
O742   O     0.83334   0.20626   0.81427   0.00000  Uiso   1.00
O743   O     0.83333   0.12707   0.68573   0.00000  Uiso   1.00
O744   O     0.79126   0.04535   0.68240   0.00000  Uiso   1.00
C745   C     0.08761   0.49983   0.75018   0.00000  Uiso   1.00
C746   C     0.31277   0.52381   0.78326   0.00000  Uiso   1.00
C747   C     0.31053   0.47719   0.71520   0.00000  Uiso   1.00
C748   C     0.02280   0.52279   0.78478   0.00000  Uiso   1.00
C749   C     0.15387   0.53901   0.54694   0.00000  Uiso   1.00
C750   C     0.15470   0.46004   0.95172   0.00000  Uiso   1.00
C751   C     0.17923   0.53945   0.95304   0.00000  Uiso   1.00
C752   C     0.17972   0.46050   0.54840   0.00000  Uiso   1.00
C753   C     0.15406   0.53920   0.59287   0.00000  Uiso   1.00
C754   C     0.15491   0.46004   0.90580   0.00000  Uiso   1.00
C755   C     0.17890   0.53964   0.90710   0.00000  Uiso   1.00
C756   C     0.24572   0.50016   0.74981   0.00000  Uiso   1.00
C757   C     0.17937   0.46048   0.59432   0.00000  Uiso   1.00
C758   C     0.16667   0.49990   0.61683   0.00000  Uiso   1.00
C759   C     0.16685   0.49991   0.88320   0.00000  Uiso   1.00
C760   C     0.16685   0.49973   0.52432   0.00000  Uiso   1.00
C761   C     0.16696   0.49972   0.97573   0.00000  Uiso   1.00
C762   C     0.29040   0.50066   0.74900   0.00000  Uiso   1.00
C763   C     0.04293   0.49934   0.75098   0.00000  Uiso   1.00
C764   C     0.16658   0.49999   0.66510   0.00000  Uiso   1.00
C765   C     0.16680   0.49999   0.83490   0.00000  Uiso   1.00
C766   C     0.14642   0.35763   0.71673   0.00000  Uiso   1.00
C767   C     0.18699   0.64241   0.78322   0.00000  Uiso   1.00
C768   C     0.18691   0.35794   0.78328   0.00000  Uiso   1.00
C769   C     0.14635   0.64209   0.71677   0.00000  Uiso   1.00
C770   C     0.02056   0.47617   0.71672   0.00000  Uiso   1.00
Cu771  Cu    0.16667   0.54689   0.75000   0.00000  Uiso   1.00
Cu772  Cu    0.16667   0.45311   0.75000   0.00000  Uiso   1.00
H773   H     0.14309   0.56941   0.52913   0.00000  Uiso   1.00
H774   H     0.22068   0.59281   0.80595   0.00000  Uiso   1.00
H775   H     0.22099   0.40771   0.80633   0.00000  Uiso   1.00
H776   H     0.11233   0.59219   0.69381   0.00000  Uiso   1.00
H777   H     0.02302   0.43878   0.66279   0.00000  Uiso   1.00
H778   H     0.31030   0.56119   0.83721   0.00000  Uiso   1.00
H779   H     0.26082   0.46855   0.67653   0.00000  Uiso   1.00
H780   H     0.07249   0.53135   0.82349   0.00000  Uiso   1.00
H781   H     0.14443   0.42921   0.96839   0.00000  Uiso   1.00
H782   H     0.18954   0.57023   0.97080   0.00000  Uiso   1.00
H783   H     0.19055   0.43005   0.53178   0.00000  Uiso   1.00
H784   H     0.14379   0.56987   0.60954   0.00000  Uiso   1.00
H785   H     0.14518   0.42907   0.88798   0.00000  Uiso   1.00
H786   H     0.18860   0.57067   0.89038   0.00000  Uiso   1.00
H787   H     0.18959   0.42989   0.61221   0.00000  Uiso   1.00
H788   H     0.11266   0.40710   0.69391   0.00000  Uiso   1.00
N789   N     0.16667   0.61736   0.75000   0.00000  Uiso   1.00
N790   N     0.16667   0.38264   0.75000   0.00000  Uiso   1.00
O791   O     0.10655   0.53958   0.74999   0.00000  Uiso   1.00
O792   O     0.20909   0.62142   0.81739   0.00000  Uiso   1.00
O793   O     0.20859   0.37932   0.81775   0.00000  Uiso   1.00
O794   O     0.12439   0.62079   0.68245   0.00000  Uiso   1.00
O795   O     0.04228   0.45460   0.68426   0.00000  Uiso   1.00
O796   O     0.29105   0.54538   0.81574   0.00000  Uiso   1.00
O797   O     0.28909   0.45591   0.68006   0.00000  Uiso   1.00
O798   O     0.04423   0.54405   0.81994   0.00000  Uiso   1.00
O799   O     0.22679   0.46042   0.75000   0.00000  Uiso   1.00
O800   O     0.22679   0.53958   0.75000   0.00000  Uiso   1.00
O801   O     0.10655   0.46042   0.74999   0.00000  Uiso   1.00
O802   O     0.16666   0.53959   0.68573   0.00000  Uiso   1.00
O803   O     0.16667   0.46041   0.81427   0.00000  Uiso   1.00
O804   O     0.16667   0.53959   0.81427   0.00000  Uiso   1.00
O805   O     0.16666   0.46041   0.68573   0.00000  Uiso   1.00
O806   O     0.12459   0.37869   0.68240   0.00000  Uiso   1.00
C807   C     0.42094   0.49983   0.75018   0.00000  Uiso   1.00
C808   C     0.64610   0.52381   0.78326   0.00000  Uiso   1.00
C809   C     0.64386   0.47719   0.71520   0.00000  Uiso   1.00
C810   C     0.35613   0.52279   0.78478   0.00000  Uiso   1.00
C811   C     0.48720   0.53901   0.54694   0.00000  Uiso   1.00
C812   C     0.48804   0.46004   0.95172   0.00000  Uiso   1.00
C813   C     0.51256   0.53945   0.95304   0.00000  Uiso   1.00
C814   C     0.51306   0.46050   0.54840   0.00000  Uiso   1.00
C815   C     0.48739   0.53920   0.59287   0.00000  Uiso   1.00
C816   C     0.48824   0.46004   0.90580   0.00000  Uiso   1.00
C817   C     0.51224   0.53964   0.90710   0.00000  Uiso   1.00
C818   C     0.57906   0.50016   0.74981   0.00000  Uiso   1.00
C819   C     0.51270   0.46048   0.59432   0.00000  Uiso   1.00
C820   C     0.50000   0.49990   0.61683   0.00000  Uiso   1.00
C821   C     0.50019   0.49991   0.88320   0.00000  Uiso   1.00
C822   C     0.50019   0.49973   0.52432   0.00000  Uiso   1.00
C823   C     0.50030   0.49972   0.97573   0.00000  Uiso   1.00
C824   C     0.62373   0.50066   0.74900   0.00000  Uiso   1.00
C825   C     0.37626   0.49934   0.75098   0.00000  Uiso   1.00
C826   C     0.49991   0.49999   0.66510   0.00000  Uiso   1.00
C827   C     0.50013   0.49999   0.83490   0.00000  Uiso   1.00
C828   C     0.47975   0.35763   0.71673   0.00000  Uiso   1.00
C829   C     0.52033   0.64241   0.78322   0.00000  Uiso   1.00
C830   C     0.52024   0.35794   0.78328   0.00000  Uiso   1.00
C831   C     0.47968   0.64209   0.71677   0.00000  Uiso   1.00
C832   C     0.35389   0.47617   0.71672   0.00000  Uiso   1.00
Cu833  Cu    0.50000   0.54689   0.75000   0.00000  Uiso   1.00
Cu834  Cu    0.50000   0.45311   0.75000   0.00000  Uiso   1.00
H835   H     0.47642   0.56941   0.52913   0.00000  Uiso   1.00
H836   H     0.55401   0.59281   0.80595   0.00000  Uiso   1.00
H837   H     0.55432   0.40771   0.80633   0.00000  Uiso   1.00
H838   H     0.44567   0.59219   0.69381   0.00000  Uiso   1.00
H839   H     0.35636   0.43878   0.66279   0.00000  Uiso   1.00
H840   H     0.64364   0.56119   0.83721   0.00000  Uiso   1.00
H841   H     0.59415   0.46855   0.67653   0.00000  Uiso   1.00
H842   H     0.40582   0.53135   0.82349   0.00000  Uiso   1.00
H843   H     0.47777   0.42921   0.96839   0.00000  Uiso   1.00
H844   H     0.52287   0.57023   0.97080   0.00000  Uiso   1.00
H845   H     0.52388   0.43005   0.53178   0.00000  Uiso   1.00
H846   H     0.47713   0.56987   0.60954   0.00000  Uiso   1.00
H847   H     0.47852   0.42907   0.88798   0.00000  Uiso   1.00
H848   H     0.52193   0.57067   0.89038   0.00000  Uiso   1.00
H849   H     0.52292   0.42989   0.61221   0.00000  Uiso   1.00
H850   H     0.44600   0.40710   0.69391   0.00000  Uiso   1.00
N851   N     0.50000   0.61736   0.75000   0.00000  Uiso   1.00
N852   N     0.50000   0.38264   0.75000   0.00000  Uiso   1.00
O853   O     0.43988   0.53958   0.74999   0.00000  Uiso   1.00
O854   O     0.54243   0.62142   0.81739   0.00000  Uiso   1.00
O855   O     0.54193   0.37932   0.81775   0.00000  Uiso   1.00
O856   O     0.45773   0.62079   0.68245   0.00000  Uiso   1.00
O857   O     0.37561   0.45460   0.68426   0.00000  Uiso   1.00
O858   O     0.62438   0.54538   0.81574   0.00000  Uiso   1.00
O859   O     0.62242   0.45591   0.68006   0.00000  Uiso   1.00
O860   O     0.37757   0.54405   0.81994   0.00000  Uiso   1.00
O861   O     0.56012   0.46042   0.75000   0.00000  Uiso   1.00
O862   O     0.56012   0.53958   0.75000   0.00000  Uiso   1.00
O863   O     0.43988   0.46042   0.74999   0.00000  Uiso   1.00
O864   O     0.50000   0.53959   0.68573   0.00000  Uiso   1.00
O865   O     0.50000   0.46041   0.81427   0.00000  Uiso   1.00
O866   O     0.50000   0.53959   0.81427   0.00000  Uiso   1.00
O867   O     0.50000   0.46041   0.68573   0.00000  Uiso   1.00
O868   O     0.45792   0.37869   0.68240   0.00000  Uiso   1.00
C869   C     0.75427   0.49983   0.75018   0.00000  Uiso   1.00
C870   C     0.97943   0.52381   0.78326   0.00000  Uiso   1.00
C871   C     0.97719   0.47719   0.71520   0.00000  Uiso   1.00
C872   C     0.68947   0.52279   0.78478   0.00000  Uiso   1.00
C873   C     0.82054   0.53901   0.54694   0.00000  Uiso   1.00
C874   C     0.82137   0.46004   0.95172   0.00000  Uiso   1.00
C875   C     0.84590   0.53945   0.95304   0.00000  Uiso   1.00
C876   C     0.84639   0.46050   0.54840   0.00000  Uiso   1.00
C877   C     0.82073   0.53920   0.59287   0.00000  Uiso   1.00
C878   C     0.82158   0.46004   0.90580   0.00000  Uiso   1.00
C879   C     0.84557   0.53964   0.90710   0.00000  Uiso   1.00
C880   C     0.91239   0.50016   0.74981   0.00000  Uiso   1.00
C881   C     0.84604   0.46048   0.59432   0.00000  Uiso   1.00
C882   C     0.83334   0.49990   0.61683   0.00000  Uiso   1.00
C883   C     0.83352   0.49991   0.88320   0.00000  Uiso   1.00
C884   C     0.83352   0.49973   0.52432   0.00000  Uiso   1.00
C885   C     0.83363   0.49972   0.97573   0.00000  Uiso   1.00
C886   C     0.95707   0.50066   0.74900   0.00000  Uiso   1.00
C887   C     0.70960   0.49934   0.75098   0.00000  Uiso   1.00
C888   C     0.83325   0.49999   0.66510   0.00000  Uiso   1.00
C889   C     0.83346   0.49999   0.83490   0.00000  Uiso   1.00
C890   C     0.81309   0.35763   0.71673   0.00000  Uiso   1.00
C891   C     0.85366   0.64241   0.78322   0.00000  Uiso   1.00
C892   C     0.85357   0.35794   0.78328   0.00000  Uiso   1.00
C893   C     0.81302   0.64209   0.71677   0.00000  Uiso   1.00
C894   C     0.68723   0.47617   0.71672   0.00000  Uiso   1.00
Cu895  Cu    0.83333   0.54689   0.75000   0.00000  Uiso   1.00
Cu896  Cu    0.83333   0.45311   0.75000   0.00000  Uiso   1.00
H897   H     0.80976   0.56941   0.52913   0.00000  Uiso   1.00
H898   H     0.88735   0.59281   0.80595   0.00000  Uiso   1.00
H899   H     0.88766   0.40771   0.80633   0.00000  Uiso   1.00
H900   H     0.77900   0.59219   0.69381   0.00000  Uiso   1.00
H901   H     0.68969   0.43878   0.66279   0.00000  Uiso   1.00
H902   H     0.97697   0.56119   0.83721   0.00000  Uiso   1.00
H903   H     0.92748   0.46855   0.67653   0.00000  Uiso   1.00
H904   H     0.73916   0.53135   0.82349   0.00000  Uiso   1.00
H905   H     0.81110   0.42921   0.96839   0.00000  Uiso   1.00
H906   H     0.85620   0.57023   0.97080   0.00000  Uiso   1.00
H907   H     0.85722   0.43005   0.53178   0.00000  Uiso   1.00
H908   H     0.81046   0.56987   0.60954   0.00000  Uiso   1.00
H909   H     0.81185   0.42907   0.88798   0.00000  Uiso   1.00
H910   H     0.85527   0.57067   0.89038   0.00000  Uiso   1.00
H911   H     0.85625   0.42989   0.61221   0.00000  Uiso   1.00
H912   H     0.77933   0.40710   0.69391   0.00000  Uiso   1.00
N913   N     0.83333   0.61736   0.75000   0.00000  Uiso   1.00
N914   N     0.83333   0.38264   0.75000   0.00000  Uiso   1.00
O915   O     0.77321   0.53958   0.74999   0.00000  Uiso   1.00
O916   O     0.87576   0.62142   0.81739   0.00000  Uiso   1.00
O917   O     0.87526   0.37932   0.81775   0.00000  Uiso   1.00
O918   O     0.79106   0.62079   0.68245   0.00000  Uiso   1.00
O919   O     0.70895   0.45460   0.68426   0.00000  Uiso   1.00
O920   O     0.95771   0.54538   0.81574   0.00000  Uiso   1.00
O921   O     0.95576   0.45591   0.68006   0.00000  Uiso   1.00
O922   O     0.71090   0.54405   0.81994   0.00000  Uiso   1.00
O923   O     0.89345   0.46042   0.75000   0.00000  Uiso   1.00
O924   O     0.89345   0.53958   0.75000   0.00000  Uiso   1.00
O925   O     0.77321   0.46042   0.74999   0.00000  Uiso   1.00
O926   O     0.83333   0.53959   0.68573   0.00000  Uiso   1.00
O927   O     0.83334   0.46041   0.81427   0.00000  Uiso   1.00
O928   O     0.83334   0.53959   0.81427   0.00000  Uiso   1.00
O929   O     0.83333   0.46041   0.68573   0.00000  Uiso   1.00
O930   O     0.79126   0.37869   0.68240   0.00000  Uiso   1.00
C931   C     0.08761   0.83317   0.75018   0.00000  Uiso   1.00
C932   C     0.31277   0.85715   0.78326   0.00000  Uiso   1.00
C933   C     0.31053   0.81053   0.71520   0.00000  Uiso   1.00
C934   C     0.02280   0.85612   0.78478   0.00000  Uiso   1.00
C935   C     0.15387   0.87235   0.54694   0.00000  Uiso   1.00
C936   C     0.15470   0.79337   0.95172   0.00000  Uiso   1.00
C937   C     0.17923   0.87279   0.95304   0.00000  Uiso   1.00
C938   C     0.17972   0.79384   0.54840   0.00000  Uiso   1.00
C939   C     0.15406   0.87254   0.59287   0.00000  Uiso   1.00
C940   C     0.15491   0.79337   0.90580   0.00000  Uiso   1.00
C941   C     0.17890   0.87298   0.90710   0.00000  Uiso   1.00
C942   C     0.24572   0.83350   0.74981   0.00000  Uiso   1.00
C943   C     0.17937   0.79382   0.59432   0.00000  Uiso   1.00
C944   C     0.16667   0.83323   0.61683   0.00000  Uiso   1.00
C945   C     0.16685   0.83324   0.88320   0.00000  Uiso   1.00
C946   C     0.16685   0.83306   0.52432   0.00000  Uiso   1.00
C947   C     0.16696   0.83305   0.97573   0.00000  Uiso   1.00
C948   C     0.29040   0.83399   0.74900   0.00000  Uiso   1.00
C949   C     0.04293   0.83267   0.75098   0.00000  Uiso   1.00
C950   C     0.16658   0.83332   0.66510   0.00000  Uiso   1.00
C951   C     0.16680   0.83332   0.83490   0.00000  Uiso   1.00
C952   C     0.14642   0.69096   0.71673   0.00000  Uiso   1.00
C953   C     0.18699   0.97574   0.78322   0.00000  Uiso   1.00
C954   C     0.18691   0.69127   0.78328   0.00000  Uiso   1.00
C955   C     0.14635   0.97542   0.71677   0.00000  Uiso   1.00
C956   C     0.02056   0.80951   0.71672   0.00000  Uiso   1.00
Cu957  Cu    0.16667   0.88022   0.75000   0.00000  Uiso   1.00
Cu958  Cu    0.16667   0.78645   0.75000   0.00000  Uiso   1.00
H959   H     0.14309   0.90274   0.52913   0.00000  Uiso   1.00
H960   H     0.22068   0.92614   0.80595   0.00000  Uiso   1.00
H961   H     0.22099   0.74104   0.80633   0.00000  Uiso   1.00
H962   H     0.11233   0.92553   0.69381   0.00000  Uiso   1.00
H963   H     0.02302   0.77211   0.66279   0.00000  Uiso   1.00
H964   H     0.31030   0.89453   0.83721   0.00000  Uiso   1.00
H965   H     0.26082   0.80189   0.67653   0.00000  Uiso   1.00
H966   H     0.07249   0.86468   0.82349   0.00000  Uiso   1.00
H967   H     0.14443   0.76254   0.96839   0.00000  Uiso   1.00
H968   H     0.18954   0.90356   0.97080   0.00000  Uiso   1.00
H969   H     0.19055   0.76338   0.53178   0.00000  Uiso   1.00
H970   H     0.14379   0.90320   0.60954   0.00000  Uiso   1.00
H971   H     0.14518   0.76240   0.88798   0.00000  Uiso   1.00
H972   H     0.18860   0.90400   0.89038   0.00000  Uiso   1.00
H973   H     0.18959   0.76322   0.61221   0.00000  Uiso   1.00
H974   H     0.11266   0.74043   0.69391   0.00000  Uiso   1.00
N975   N     0.16667   0.95069   0.75000   0.00000  Uiso   1.00
N976   N     0.16667   0.71598   0.75000   0.00000  Uiso   1.00
O977   O     0.10655   0.87291   0.74999   0.00000  Uiso   1.00
O978   O     0.20909   0.95475   0.81739   0.00000  Uiso   1.00
O979   O     0.20859   0.71265   0.81775   0.00000  Uiso   1.00
O980   O     0.12439   0.95412   0.68245   0.00000  Uiso   1.00
O981   O     0.04228   0.78793   0.68426   0.00000  Uiso   1.00
O982   O     0.29105   0.87871   0.81574   0.00000  Uiso   1.00
O983   O     0.28909   0.78924   0.68006   0.00000  Uiso   1.00
O984   O     0.04423   0.87739   0.81994   0.00000  Uiso   1.00
O985   O     0.22679   0.79375   0.75000   0.00000  Uiso   1.00
O986   O     0.22679   0.87291   0.75000   0.00000  Uiso   1.00
O987   O     0.10655   0.79375   0.74999   0.00000  Uiso   1.00
O988   O     0.16666   0.87293   0.68573   0.00000  Uiso   1.00
O989   O     0.16667   0.79374   0.81427   0.00000  Uiso   1.00
O990   O     0.16667   0.87293   0.81427   0.00000  Uiso   1.00
O991   O     0.16666   0.79374   0.68573   0.00000  Uiso   1.00
O992   O     0.12459   0.71202   0.68240   0.00000  Uiso   1.00
C993   C     0.42094   0.83317   0.75018   0.00000  Uiso   1.00
C994   C     0.64610   0.85715   0.78326   0.00000  Uiso   1.00
C995   C     0.64386   0.81053   0.71520   0.00000  Uiso   1.00
C996   C     0.35613   0.85612   0.78478   0.00000  Uiso   1.00
C997   C     0.48720   0.87235   0.54694   0.00000  Uiso   1.00
C998   C     0.48804   0.79337   0.95172   0.00000  Uiso   1.00
C999   C     0.51256   0.87279   0.95304   0.00000  Uiso   1.00
C1000  C     0.51306   0.79384   0.54840   0.00000  Uiso   1.00
C1001  C     0.48739   0.87254   0.59287   0.00000  Uiso   1.00
C1002  C     0.48824   0.79337   0.90580   0.00000  Uiso   1.00
C1003  C     0.51224   0.87298   0.90710   0.00000  Uiso   1.00
C1004  C     0.57906   0.83350   0.74981   0.00000  Uiso   1.00
C1005  C     0.51270   0.79382   0.59432   0.00000  Uiso   1.00
C1006  C     0.50000   0.83323   0.61683   0.00000  Uiso   1.00
C1007  C     0.50019   0.83324   0.88320   0.00000  Uiso   1.00
C1008  C     0.50019   0.83306   0.52432   0.00000  Uiso   1.00
C1009  C     0.50030   0.83305   0.97573   0.00000  Uiso   1.00
C1010  C     0.62373   0.83399   0.74900   0.00000  Uiso   1.00
C1011  C     0.37626   0.83267   0.75098   0.00000  Uiso   1.00
C1012  C     0.49991   0.83332   0.66510   0.00000  Uiso   1.00
C1013  C     0.50013   0.83332   0.83490   0.00000  Uiso   1.00
C1014  C     0.47975   0.69096   0.71673   0.00000  Uiso   1.00
C1015  C     0.52033   0.97574   0.78322   0.00000  Uiso   1.00
C1016  C     0.52024   0.69127   0.78328   0.00000  Uiso   1.00
C1017  C     0.47968   0.97542   0.71677   0.00000  Uiso   1.00
C1018  C     0.35389   0.80951   0.71672   0.00000  Uiso   1.00
Cu1019 Cu    0.50000   0.88022   0.75000   0.00000  Uiso   1.00
Cu1020 Cu    0.50000   0.78645   0.75000   0.00000  Uiso   1.00
H1021  H     0.47642   0.90274   0.52913   0.00000  Uiso   1.00
H1022  H     0.55401   0.92614   0.80595   0.00000  Uiso   1.00
H1023  H     0.55432   0.74104   0.80633   0.00000  Uiso   1.00
H1024  H     0.44567   0.92553   0.69381   0.00000  Uiso   1.00
H1025  H     0.35636   0.77211   0.66279   0.00000  Uiso   1.00
H1026  H     0.64364   0.89453   0.83721   0.00000  Uiso   1.00
H1027  H     0.59415   0.80189   0.67653   0.00000  Uiso   1.00
H1028  H     0.40582   0.86468   0.82349   0.00000  Uiso   1.00
H1029  H     0.47777   0.76254   0.96839   0.00000  Uiso   1.00
H1030  H     0.52287   0.90356   0.97080   0.00000  Uiso   1.00
H1031  H     0.52388   0.76338   0.53178   0.00000  Uiso   1.00
H1032  H     0.47713   0.90320   0.60954   0.00000  Uiso   1.00
H1033  H     0.47852   0.76240   0.88798   0.00000  Uiso   1.00
H1034  H     0.52193   0.90400   0.89038   0.00000  Uiso   1.00
H1035  H     0.52292   0.76322   0.61221   0.00000  Uiso   1.00
H1036  H     0.44600   0.74043   0.69391   0.00000  Uiso   1.00
N1037  N     0.50000   0.95069   0.75000   0.00000  Uiso   1.00
N1038  N     0.50000   0.71598   0.75000   0.00000  Uiso   1.00
O1039  O     0.43988   0.87291   0.74999   0.00000  Uiso   1.00
O1040  O     0.54243   0.95475   0.81739   0.00000  Uiso   1.00
O1041  O     0.54193   0.71265   0.81775   0.00000  Uiso   1.00
O1042  O     0.45773   0.95412   0.68245   0.00000  Uiso   1.00
O1043  O     0.37561   0.78793   0.68426   0.00000  Uiso   1.00
O1044  O     0.62438   0.87871   0.81574   0.00000  Uiso   1.00
O1045  O     0.62242   0.78924   0.68006   0.00000  Uiso   1.00
O1046  O     0.37757   0.87739   0.81994   0.00000  Uiso   1.00
O1047  O     0.56012   0.79375   0.75000   0.00000  Uiso   1.00
O1048  O     0.56012   0.87291   0.75000   0.00000  Uiso   1.00
O1049  O     0.43988   0.79375   0.74999   0.00000  Uiso   1.00
O1050  O     0.50000   0.87293   0.68573   0.00000  Uiso   1.00
O1051  O     0.50000   0.79374   0.81427   0.00000  Uiso   1.00
O1052  O     0.50000   0.87293   0.81427   0.00000  Uiso   1.00
O1053  O     0.50000   0.79374   0.68573   0.00000  Uiso   1.00
O1054  O     0.45792   0.71202   0.68240   0.00000  Uiso   1.00
C1055  C     0.75427   0.83317   0.75018   0.00000  Uiso   1.00
C1056  C     0.97943   0.85715   0.78326   0.00000  Uiso   1.00
C1057  C     0.97719   0.81053   0.71520   0.00000  Uiso   1.00
C1058  C     0.68947   0.85612   0.78478   0.00000  Uiso   1.00
C1059  C     0.82054   0.87235   0.54694   0.00000  Uiso   1.00
C1060  C     0.82137   0.79337   0.95172   0.00000  Uiso   1.00
C1061  C     0.84590   0.87279   0.95304   0.00000  Uiso   1.00
C1062  C     0.84639   0.79384   0.54840   0.00000  Uiso   1.00
C1063  C     0.82073   0.87254   0.59287   0.00000  Uiso   1.00
C1064  C     0.82158   0.79337   0.90580   0.00000  Uiso   1.00
C1065  C     0.84557   0.87298   0.90710   0.00000  Uiso   1.00
C1066  C     0.91239   0.83350   0.74981   0.00000  Uiso   1.00
C1067  C     0.84604   0.79382   0.59432   0.00000  Uiso   1.00
C1068  C     0.83334   0.83323   0.61683   0.00000  Uiso   1.00
C1069  C     0.83352   0.83324   0.88320   0.00000  Uiso   1.00
C1070  C     0.83352   0.83306   0.52432   0.00000  Uiso   1.00
C1071  C     0.83363   0.83305   0.97573   0.00000  Uiso   1.00
C1072  C     0.95707   0.83399   0.74900   0.00000  Uiso   1.00
C1073  C     0.70960   0.83267   0.75098   0.00000  Uiso   1.00
C1074  C     0.83325   0.83332   0.66510   0.00000  Uiso   1.00
C1075  C     0.83346   0.83332   0.83490   0.00000  Uiso   1.00
C1076  C     0.81309   0.69096   0.71673   0.00000  Uiso   1.00
C1077  C     0.85366   0.97574   0.78322   0.00000  Uiso   1.00
C1078  C     0.85357   0.69127   0.78328   0.00000  Uiso   1.00
C1079  C     0.81302   0.97542   0.71677   0.00000  Uiso   1.00
C1080  C     0.68723   0.80951   0.71672   0.00000  Uiso   1.00
Cu1081 Cu    0.83333   0.88022   0.75000   0.00000  Uiso   1.00
Cu1082 Cu    0.83333   0.78645   0.75000   0.00000  Uiso   1.00
H1083  H     0.80976   0.90274   0.52913   0.00000  Uiso   1.00
H1084  H     0.88735   0.92614   0.80595   0.00000  Uiso   1.00
H1085  H     0.88766   0.74104   0.80633   0.00000  Uiso   1.00
H1086  H     0.77900   0.92553   0.69381   0.00000  Uiso   1.00
H1087  H     0.68969   0.77211   0.66279   0.00000  Uiso   1.00
H1088  H     0.97697   0.89453   0.83721   0.00000  Uiso   1.00
H1089  H     0.92748   0.80189   0.67653   0.00000  Uiso   1.00
H1090  H     0.73916   0.86468   0.82349   0.00000  Uiso   1.00
H1091  H     0.81110   0.76254   0.96839   0.00000  Uiso   1.00
H1092  H     0.85620   0.90356   0.97080   0.00000  Uiso   1.00
H1093  H     0.85722   0.76338   0.53178   0.00000  Uiso   1.00
H1094  H     0.81046   0.90320   0.60954   0.00000  Uiso   1.00
H1095  H     0.81185   0.76240   0.88798   0.00000  Uiso   1.00
H1096  H     0.85527   0.90400   0.89038   0.00000  Uiso   1.00
H1097  H     0.85625   0.76322   0.61221   0.00000  Uiso   1.00
H1098  H     0.77933   0.74043   0.69391   0.00000  Uiso   1.00
N1099  N     0.83333   0.95069   0.75000   0.00000  Uiso   1.00
N1100  N     0.83333   0.71598   0.75000   0.00000  Uiso   1.00
O1101  O     0.77321   0.87291   0.74999   0.00000  Uiso   1.00
O1102  O     0.87576   0.95475   0.81739   0.00000  Uiso   1.00
O1103  O     0.87526   0.71265   0.81775   0.00000  Uiso   1.00
O1104  O     0.79106   0.95412   0.68245   0.00000  Uiso   1.00
O1105  O     0.70895   0.78793   0.68426   0.00000  Uiso   1.00
O1106  O     0.95771   0.87871   0.81574   0.00000  Uiso   1.00
O1107  O     0.95576   0.78924   0.68006   0.00000  Uiso   1.00
O1108  O     0.71090   0.87739   0.81994   0.00000  Uiso   1.00
O1109  O     0.89345   0.79375   0.75000   0.00000  Uiso   1.00
O1110  O     0.89345   0.87291   0.75000   0.00000  Uiso   1.00
O1111  O     0.77321   0.79375   0.74999   0.00000  Uiso   1.00
O1112  O     0.83333   0.87293   0.68573   0.00000  Uiso   1.00
O1113  O     0.83334   0.79374   0.81427   0.00000  Uiso   1.00
O1114  O     0.83334   0.87293   0.81427   0.00000  Uiso   1.00
O1115  O     0.83333   0.79374   0.68573   0.00000  Uiso   1.00
O1116  O     0.79126   0.71202   0.68240   0.00000  Uiso   1.00
loop_
_geom_bond_atom_site_label_1
_geom_bond_atom_site_label_2
_geom_bond_distance
_geom_bond_site_symmetry_2
_ccdc_geom_bond_type
C1     O57     1.298   .     A
C1     C19     1.447   .     S
C1     O47     1.300   .     A
C2     O52     1.385   .     S
C2     C18     1.404   .     A
C2     C66     1.402   .     S
C3     O53     1.385   .     S
C3     C18     1.414   .     A
C3     C88     1.403   .     S
C4     C19     1.414   .     A
C4     O54     1.385   .     S
C4     C126    1.402   1_455 S
C5     C9      1.390   .     A
C5     H29     1.083   .     S
C5     C16     1.404   .     A
C6     C10     1.390   .     A
C6     H37     1.083   .     S
C6     C17     1.404   .     A
C7     C11     1.390   .     A
C7     H38     1.083   .     S
C7     C17     1.404   .     A
C8     C13     1.391   .     A
C8     H39     1.083   .     S
C8     C16     1.404   .     A
C9     C14     1.402   .     A
C9     H40     1.082   .     S
C10    H41     1.083   .     S
C10    C15     1.402   .     A
C11    H42     1.082   .     S
C11    C15     1.402   .     A
C12    O56     1.298   .     A
C12    O55     1.300   .     A
C12    C18     1.447   .     S
C13    H43     1.083   .     S
C13    C14     1.402   .     A
C14    C20     1.461   .     S
C15    C21     1.462   .     S
C16    C575    1.471   1_554 S
C17    C574    1.471   .     S
C19    C26     1.404   .     A
C20    O58     1.305   .     A
C20    O61     1.304   .     A
C21    O59     1.304   .     A
C21    O60     1.305   .     A
C22    O62     1.374   .     S
C22    N46     1.378   .     A
C22    C397    1.414   1_545 S
C23    N45     1.379   .     A
C23    O48     1.374   .     S
C23    C210    1.414   .     S
C24    N46     1.378   .     A
C24    O49     1.375   .     S
C24    C395    1.414   1_545 S
C25    N45     1.379   .     A
C25    O50     1.374   .     S
C25    C208    1.414   .     S
C26    O51     1.385   .     S
C26    C127    1.403   1_455 S
Cu27   O47     1.956   .     S
Cu27   N45     2.039   .     S
Cu27   O60     1.957   .     S
Cu27   O58     1.957   .     S
Cu27   O56     1.958   .     S
Cu27   Cu28    2.713   .     S
Cu28   O61     1.957   .     S
Cu28   O57     1.958   .     S
Cu28   N46     2.039   .     S
Cu28   O59     1.957   .     S
Cu28   O55     1.956   .     S
H30    O48     0.981   .     S
H31    O49     0.982   .     S
H32    O50     0.981   .     S
H33    O51     0.989   .     S
H34    O52     0.989   .     S
H35    O53     0.989   .     S
H36    O54     0.989   .     S
H44    O62     0.981   .     S
C63    O119    1.298   .     A
C63    C81     1.447   .     S
C63    O109    1.300   .     A
C64    O114    1.385   .     S
C64    C80     1.404   .     A
C64    C128    1.402   .     S
C65    O115    1.385   .     S
C65    C80     1.414   .     A
C65    C150    1.403   .     S
C66    C81     1.414   .     A
C66    O116    1.385   .     S
C67    C71     1.390   .     A
C67    H91     1.083   .     S
C67    C78     1.404   .     A
C68    C72     1.390   .     A
C68    H99     1.083   .     S
C68    C79     1.404   .     A
C69    C73     1.390   .     A
C69    H100    1.083   .     S
C69    C79     1.404   .     A
C70    C75     1.391   .     A
C70    H101    1.083   .     S
C70    C78     1.404   .     A
C71    C76     1.402   .     A
C71    H102    1.082   .     S
C72    H103    1.083   .     S
C72    C77     1.402   .     A
C73    H104    1.082   .     S
C73    C77     1.402   .     A
C74    O118    1.298   .     A
C74    O117    1.300   .     A
C74    C80     1.447   .     S
C75    H105    1.083   .     S
C75    C76     1.402   .     A
C76    C82     1.461   .     S
C77    C83     1.462   .     S
C78    C637    1.471   1_554 S
C79    C636    1.471   .     S
C81    C88     1.404   .     A
C82    O120    1.305   .     A
C82    O123    1.304   .     A
C83    O121    1.304   .     A
C83    O122    1.305   .     A
C84    O124    1.374   .     S
C84    N108    1.378   .     A
C84    C459    1.414   1_545 S
C85    N107    1.379   .     A
C85    O110    1.374   .     S
C85    C272    1.414   .     S
C86    N108    1.378   .     A
C86    O111    1.375   .     S
C86    C457    1.414   1_545 S
C87    N107    1.379   .     A
C87    O112    1.374   .     S
C87    C270    1.414   .     S
C88    O113    1.385   .     S
Cu89   O109    1.956   .     S
Cu89   N107    2.039   .     S
Cu89   O122    1.957   .     S
Cu89   O120    1.957   .     S
Cu89   O118    1.958   .     S
Cu89   Cu90    2.713   .     S
Cu90   O123    1.957   .     S
Cu90   O119    1.958   .     S
Cu90   N108    2.039   .     S
Cu90   O121    1.957   .     S
Cu90   O117    1.956   .     S
H92    O110    0.981   .     S
H93    O111    0.982   .     S
H94    O112    0.981   .     S
H95    O113    0.989   .     S
H96    O114    0.989   .     S
H97    O115    0.989   .     S
H98    O116    0.989   .     S
H106   O124    0.981   .     S
C125   O181    1.298   .     A
C125   C143    1.447   .     S
C125   O171    1.300   .     A
C126   O176    1.385   .     S
C126   C142    1.404   .     A
C126   C4      1.402   1_655 S
C127   O177    1.385   .     S
C127   C142    1.414   .     A
C127   C26     1.403   1_655 S
C128   C143    1.414   .     A
C128   O178    1.385   .     S
C129   C133    1.390   .     A
C129   H153    1.083   .     S
C129   C140    1.404   .     A
C130   C134    1.390   .     A
C130   H161    1.083   .     S
C130   C141    1.404   .     A
C131   C135    1.390   .     A
C131   H162    1.083   .     S
C131   C141    1.404   .     A
C132   C137    1.391   .     A
C132   H163    1.083   .     S
C132   C140    1.404   .     A
C133   C138    1.402   .     A
C133   H164    1.082   .     S
C134   H165    1.083   .     S
C134   C139    1.402   .     A
C135   H166    1.082   .     S
C135   C139    1.402   .     A
C136   O180    1.298   .     A
C136   O179    1.300   .     A
C136   C142    1.447   .     S
C137   H167    1.083   .     S
C137   C138    1.402   .     A
C138   C144    1.461   .     S
C139   C145    1.462   .     S
C140   C699    1.471   1_554 S
C141   C698    1.471   .     S
C143   C150    1.404   .     A
C144   O182    1.305   .     A
C144   O185    1.304   .     A
C145   O183    1.304   .     A
C145   O184    1.305   .     A
C146   O186    1.374   .     S
C146   N170    1.378   .     A
C146   C521    1.414   1_545 S
C147   N169    1.379   .     A
C147   O172    1.374   .     S
C147   C334    1.414   .     S
C148   N170    1.378   .     A
C148   O173    1.375   .     S
C148   C519    1.414   1_545 S
C149   N169    1.379   .     A
C149   O174    1.374   .     S
C149   C332    1.414   .     S
C150   O175    1.385   .     S
Cu151  O171    1.956   .     S
Cu151  N169    2.039   .     S
Cu151  O184    1.957   .     S
Cu151  O182    1.957   .     S
Cu151  O180    1.958   .     S
Cu151  Cu152   2.713   .     S
Cu152  O185    1.957   .     S
Cu152  O181    1.958   .     S
Cu152  N170    2.039   .     S
Cu152  O183    1.957   .     S
Cu152  O179    1.956   .     S
H154   O172    0.981   .     S
H155   O173    0.982   .     S
H156   O174    0.981   .     S
H157   O175    0.989   .     S
H158   O176    0.989   .     S
H159   O177    0.989   .     S
H160   O178    0.989   .     S
H168   O186    0.981   .     S
C187   O243    1.298   .     A
C187   C205    1.447   .     S
C187   O233    1.300   .     A
C188   O238    1.385   .     S
C188   C204    1.404   .     A
C188   C252    1.402   .     S
C189   O239    1.385   .     S
C189   C204    1.414   .     A
C189   C274    1.403   .     S
C190   C205    1.414   .     A
C190   O240    1.385   .     S
C190   C312    1.402   1_455 S
C191   C195    1.390   .     A
C191   H215    1.083   .     S
C191   C202    1.404   .     A
C192   C196    1.390   .     A
C192   H223    1.083   .     S
C192   C203    1.404   .     A
C193   C197    1.390   .     A
C193   H224    1.083   .     S
C193   C203    1.404   .     A
C194   C199    1.391   .     A
C194   H225    1.083   .     S
C194   C202    1.404   .     A
C195   C200    1.402   .     A
C195   H226    1.082   .     S
C196   H227    1.083   .     S
C196   C201    1.402   .     A
C197   H228    1.082   .     S
C197   C201    1.402   .     A
C198   O242    1.298   .     A
C198   O241    1.300   .     A
C198   C204    1.447   .     S
C199   H229    1.083   .     S
C199   C200    1.402   .     A
C200   C206    1.461   .     S
C201   C207    1.462   .     S
C202   C761    1.471   1_554 S
C203   C760    1.471   .     S
C205   C212    1.404   .     A
C206   O244    1.305   .     A
C206   O247    1.304   .     A
C207   O245    1.304   .     A
C207   O246    1.305   .     A
C208   O248    1.374   .     S
C208   N232    1.378   .     A
C209   N231    1.379   .     A
C209   O234    1.374   .     S
C209   C396    1.414   .     S
C210   N232    1.378   .     A
C210   O235    1.375   .     S
C211   N231    1.379   .     A
C211   O236    1.374   .     S
C211   C394    1.414   .     S
C212   O237    1.385   .     S
C212   C313    1.403   1_455 S
Cu213  O233    1.956   .     S
Cu213  N231    2.039   .     S
Cu213  O246    1.957   .     S
Cu213  O244    1.957   .     S
Cu213  O242    1.958   .     S
Cu213  Cu214   2.713   .     S
Cu214  O247    1.957   .     S
Cu214  O243    1.958   .     S
Cu214  N232    2.039   .     S
Cu214  O245    1.957   .     S
Cu214  O241    1.956   .     S
H216   O234    0.981   .     S
H217   O235    0.982   .     S
H218   O236    0.981   .     S
H219   O237    0.989   .     S
H220   O238    0.989   .     S
H221   O239    0.989   .     S
H222   O240    0.989   .     S
H230   O248    0.981   .     S
C249   O305    1.298   .     A
C249   C267    1.447   .     S
C249   O295    1.300   .     A
C250   O300    1.385   .     S
C250   C266    1.404   .     A
C250   C314    1.402   .     S
C251   O301    1.385   .     S
C251   C266    1.414   .     A
C251   C336    1.403   .     S
C252   C267    1.414   .     A
C252   O302    1.385   .     S
C253   C257    1.390   .     A
C253   H277    1.083   .     S
C253   C264    1.404   .     A
C254   C258    1.390   .     A
C254   H285    1.083   .     S
C254   C265    1.404   .     A
C255   C259    1.390   .     A
C255   H286    1.083   .     S
C255   C265    1.404   .     A
C256   C261    1.391   .     A
C256   H287    1.083   .     S
C256   C264    1.404   .     A
C257   C262    1.402   .     A
C257   H288    1.082   .     S
C258   H289    1.083   .     S
C258   C263    1.402   .     A
C259   H290    1.082   .     S
C259   C263    1.402   .     A
C260   O304    1.298   .     A
C260   O303    1.300   .     A
C260   C266    1.447   .     S
C261   H291    1.083   .     S
C261   C262    1.402   .     A
C262   C268    1.461   .     S
C263   C269    1.462   .     S
C264   C823    1.471   1_554 S
C265   C822    1.471   .     S
C267   C274    1.404   .     A
C268   O306    1.305   .     A
C268   O309    1.304   .     A
C269   O307    1.304   .     A
C269   O308    1.305   .     A
C270   O310    1.374   .     S
C270   N294    1.378   .     A
C271   N293    1.379   .     A
C271   O296    1.374   .     S
C271   C458    1.414   .     S
C272   N294    1.378   .     A
C272   O297    1.375   .     S
C273   N293    1.379   .     A
C273   O298    1.374   .     S
C273   C456    1.414   .     S
C274   O299    1.385   .     S
Cu275  O295    1.956   .     S
Cu275  N293    2.039   .     S
Cu275  O308    1.957   .     S
Cu275  O306    1.957   .     S
Cu275  O304    1.958   .     S
Cu275  Cu276   2.713   .     S
Cu276  O309    1.957   .     S
Cu276  O305    1.958   .     S
Cu276  N294    2.039   .     S
Cu276  O307    1.957   .     S
Cu276  O303    1.956   .     S
H278   O296    0.981   .     S
H279   O297    0.982   .     S
H280   O298    0.981   .     S
H281   O299    0.989   .     S
H282   O300    0.989   .     S
H283   O301    0.989   .     S
H284   O302    0.989   .     S
H292   O310    0.981   .     S
C311   O367    1.298   .     A
C311   C329    1.447   .     S
C311   O357    1.300   .     A
C312   O362    1.385   .     S
C312   C328    1.404   .     A
C312   C190    1.402   1_655 S
C313   O363    1.385   .     S
C313   C328    1.414   .     A
C313   C212    1.403   1_655 S
C314   C329    1.414   .     A
C314   O364    1.385   .     S
C315   C319    1.390   .     A
C315   H339    1.083   .     S
C315   C326    1.404   .     A
C316   C320    1.390   .     A
C316   H347    1.083   .     S
C316   C327    1.404   .     A
C317   C321    1.390   .     A
C317   H348    1.083   .     S
C317   C327    1.404   .     A
C318   C323    1.391   .     A
C318   H349    1.083   .     S
C318   C326    1.404   .     A
C319   C324    1.402   .     A
C319   H350    1.082   .     S
C320   H351    1.083   .     S
C320   C325    1.402   .     A
C321   H352    1.082   .     S
C321   C325    1.402   .     A
C322   O366    1.298   .     A
C322   O365    1.300   .     A
C322   C328    1.447   .     S
C323   H353    1.083   .     S
C323   C324    1.402   .     A
C324   C330    1.461   .     S
C325   C331    1.462   .     S
C326   C885    1.471   1_554 S
C327   C884    1.471   .     S
C329   C336    1.404   .     A
C330   O368    1.305   .     A
C330   O371    1.304   .     A
C331   O369    1.304   .     A
C331   O370    1.305   .     A
C332   O372    1.374   .     S
C332   N356    1.378   .     A
C333   N355    1.379   .     A
C333   O358    1.374   .     S
C333   C520    1.414   .     S
C334   N356    1.378   .     A
C334   O359    1.375   .     S
C335   N355    1.379   .     A
C335   O360    1.374   .     S
C335   C518    1.414   .     S
C336   O361    1.385   .     S
Cu337  O357    1.956   .     S
Cu337  N355    2.039   .     S
Cu337  O370    1.957   .     S
Cu337  O368    1.957   .     S
Cu337  O366    1.958   .     S
Cu337  Cu338   2.713   .     S
Cu338  O371    1.957   .     S
Cu338  O367    1.958   .     S
Cu338  N356    2.039   .     S
Cu338  O369    1.957   .     S
Cu338  O365    1.956   .     S
H340   O358    0.981   .     S
H341   O359    0.982   .     S
H342   O360    0.981   .     S
H343   O361    0.989   .     S
H344   O362    0.989   .     S
H345   O363    0.989   .     S
H346   O364    0.989   .     S
H354   O372    0.981   .     S
C373   O429    1.298   .     A
C373   C391    1.447   .     S
C373   O419    1.300   .     A
C374   O424    1.385   .     S
C374   C390    1.404   .     A
C374   C438    1.402   .     S
C375   O425    1.385   .     S
C375   C390    1.414   .     A
C375   C460    1.403   .     S
C376   C391    1.414   .     A
C376   O426    1.385   .     S
C376   C498    1.402   1_455 S
C377   C381    1.390   .     A
C377   H401    1.083   .     S
C377   C388    1.404   .     A
C378   C382    1.390   .     A
C378   H409    1.083   .     S
C378   C389    1.404   .     A
C379   C383    1.390   .     A
C379   H410    1.083   .     S
C379   C389    1.404   .     A
C380   C385    1.391   .     A
C380   H411    1.083   .     S
C380   C388    1.404   .     A
C381   C386    1.402   .     A
C381   H412    1.082   .     S
C382   H413    1.083   .     S
C382   C387    1.402   .     A
C383   H414    1.082   .     S
C383   C387    1.402   .     A
C384   O428    1.298   .     A
C384   O427    1.300   .     A
C384   C390    1.447   .     S
C385   H415    1.083   .     S
C385   C386    1.402   .     A
C386   C392    1.461   .     S
C387   C393    1.462   .     S
C388   C947    1.471   1_554 S
C389   C946    1.471   .     S
C391   C398    1.404   .     A
C392   O430    1.305   .     A
C392   O433    1.304   .     A
C393   O431    1.304   .     A
C393   O432    1.305   .     A
C394   O434    1.374   .     S
C394   N418    1.378   .     A
C395   N417    1.379   .     A
C395   O420    1.374   .     S
C395   C24     1.414   1_565 S
C396   N418    1.378   .     A
C396   O421    1.375   .     S
C397   N417    1.379   .     A
C397   O422    1.374   .     S
C397   C22     1.414   1_565 S
C398   O423    1.385   .     S
C398   C499    1.403   1_455 S
Cu399  O419    1.956   .     S
Cu399  N417    2.039   .     S
Cu399  O432    1.957   .     S
Cu399  O430    1.957   .     S
Cu399  O428    1.958   .     S
Cu399  Cu400   2.713   .     S
Cu400  O433    1.957   .     S
Cu400  O429    1.958   .     S
Cu400  N418    2.039   .     S
Cu400  O431    1.957   .     S
Cu400  O427    1.956   .     S
H402   O420    0.981   .     S
H403   O421    0.982   .     S
H404   O422    0.981   .     S
H405   O423    0.989   .     S
H406   O424    0.989   .     S
H407   O425    0.989   .     S
H408   O426    0.989   .     S
H416   O434    0.981   .     S
C435   O491    1.298   .     A
C435   C453    1.447   .     S
C435   O481    1.300   .     A
C436   O486    1.385   .     S
C436   C452    1.404   .     A
C436   C500    1.402   .     S
C437   O487    1.385   .     S
C437   C452    1.414   .     A
C437   C522    1.403   .     S
C438   C453    1.414   .     A
C438   O488    1.385   .     S
C439   C443    1.390   .     A
C439   H463    1.083   .     S
C439   C450    1.404   .     A
C440   C444    1.390   .     A
C440   H471    1.083   .     S
C440   C451    1.404   .     A
C441   C445    1.390   .     A
C441   H472    1.083   .     S
C441   C451    1.404   .     A
C442   C447    1.391   .     A
C442   H473    1.083   .     S
C442   C450    1.404   .     A
C443   C448    1.402   .     A
C443   H474    1.082   .     S
C444   H475    1.083   .     S
C444   C449    1.402   .     A
C445   H476    1.082   .     S
C445   C449    1.402   .     A
C446   O490    1.298   .     A
C446   O489    1.300   .     A
C446   C452    1.447   .     S
C447   H477    1.083   .     S
C447   C448    1.402   .     A
C448   C454    1.461   .     S
C449   C455    1.462   .     S
C450   C1009   1.471   1_554 S
C451   C1008   1.471   .     S
C453   C460    1.404   .     A
C454   O492    1.305   .     A
C454   O495    1.304   .     A
C455   O493    1.304   .     A
C455   O494    1.305   .     A
C456   O496    1.374   .     S
C456   N480    1.378   .     A
C457   N479    1.379   .     A
C457   O482    1.374   .     S
C457   C86     1.414   1_565 S
C458   N480    1.378   .     A
C458   O483    1.375   .     S
C459   N479    1.379   .     A
C459   O484    1.374   .     S
C459   C84     1.414   1_565 S
C460   O485    1.385   .     S
Cu461  O481    1.956   .     S
Cu461  N479    2.039   .     S
Cu461  O494    1.957   .     S
Cu461  O492    1.957   .     S
Cu461  O490    1.958   .     S
Cu461  Cu462   2.713   .     S
Cu462  O495    1.957   .     S
Cu462  O491    1.958   .     S
Cu462  N480    2.039   .     S
Cu462  O493    1.957   .     S
Cu462  O489    1.956   .     S
H464   O482    0.981   .     S
H465   O483    0.982   .     S
H466   O484    0.981   .     S
H467   O485    0.989   .     S
H468   O486    0.989   .     S
H469   O487    0.989   .     S
H470   O488    0.989   .     S
H478   O496    0.981   .     S
C497   O553    1.298   .     A
C497   C515    1.447   .     S
C497   O543    1.300   .     A
C498   O548    1.385   .     S
C498   C514    1.404   .     A
C498   C376    1.402   1_655 S
C499   O549    1.385   .     S
C499   C514    1.414   .     A
C499   C398    1.403   1_655 S
C500   C515    1.414   .     A
C500   O550    1.385   .     S
C501   C505    1.390   .     A
C501   H525    1.083   .     S
C501   C512    1.404   .     A
C502   C506    1.390   .     A
C502   H533    1.083   .     S
C502   C513    1.404   .     A
C503   C507    1.390   .     A
C503   H534    1.083   .     S
C503   C513    1.404   .     A
C504   C509    1.391   .     A
C504   H535    1.083   .     S
C504   C512    1.404   .     A
C505   C510    1.402   .     A
C505   H536    1.082   .     S
C506   H537    1.083   .     S
C506   C511    1.402   .     A
C507   H538    1.082   .     S
C507   C511    1.402   .     A
C508   O552    1.298   .     A
C508   O551    1.300   .     A
C508   C514    1.447   .     S
C509   H539    1.083   .     S
C509   C510    1.402   .     A
C510   C516    1.461   .     S
C511   C517    1.462   .     S
C512   C1071   1.471   1_554 S
C513   C1070   1.471   .     S
C515   C522    1.404   .     A
C516   O554    1.305   .     A
C516   O557    1.304   .     A
C517   O555    1.304   .     A
C517   O556    1.305   .     A
C518   O558    1.374   .     S
C518   N542    1.378   .     A
C519   N541    1.379   .     A
C519   O544    1.374   .     S
C519   C148    1.414   1_565 S
C520   N542    1.378   .     A
C520   O545    1.375   .     S
C521   N541    1.379   .     A
C521   O546    1.374   .     S
C521   C146    1.414   1_565 S
C522   O547    1.385   .     S
Cu523  O543    1.956   .     S
Cu523  N541    2.039   .     S
Cu523  O556    1.957   .     S
Cu523  O554    1.957   .     S
Cu523  O552    1.958   .     S
Cu523  Cu524   2.713   .     S
Cu524  O557    1.957   .     S
Cu524  O553    1.958   .     S
Cu524  N542    2.039   .     S
Cu524  O555    1.957   .     S
Cu524  O551    1.956   .     S
H526   O544    0.981   .     S
H527   O545    0.982   .     S
H528   O546    0.981   .     S
H529   O547    0.989   .     S
H530   O548    0.989   .     S
H531   O549    0.989   .     S
H532   O550    0.989   .     S
H540   O558    0.981   .     S
C559   O615    1.298   .     A
C559   C577    1.447   .     S
C559   O605    1.300   .     A
C560   O610    1.385   .     S
C560   C576    1.404   .     A
C560   C624    1.402   .     S
C561   O611    1.385   .     S
C561   C576    1.414   .     A
C561   C646    1.403   .     S
C562   C577    1.414   .     A
C562   O612    1.385   .     S
C562   C684    1.402   1_455 S
C563   C567    1.390   .     A
C563   H587    1.083   .     S
C563   C574    1.404   .     A
C564   C568    1.390   .     A
C564   H595    1.083   .     S
C564   C575    1.404   .     A
C565   C569    1.390   .     A
C565   H596    1.083   .     S
C565   C575    1.404   .     A
C566   C571    1.391   .     A
C566   H597    1.083   .     S
C566   C574    1.404   .     A
C567   C572    1.402   .     A
C567   H598    1.082   .     S
C568   H599    1.083   .     S
C568   C573    1.402   .     A
C569   H600    1.082   .     S
C569   C573    1.402   .     A
C570   O614    1.298   .     A
C570   O613    1.300   .     A
C570   C576    1.447   .     S
C571   H601    1.083   .     S
C571   C572    1.402   .     A
C572   C578    1.461   .     S
C573   C579    1.462   .     S
C575   C16     1.471   1_556 S
C577   C584    1.404   .     A
C578   O616    1.305   .     A
C578   O619    1.304   .     A
C579   O617    1.304   .     A
C579   O618    1.305   .     A
C580   O620    1.374   .     S
C580   N604    1.378   .     A
C580   C955    1.414   1_545 S
C581   N603    1.379   .     A
C581   O606    1.374   .     S
C581   C768    1.414   .     S
C582   N604    1.378   .     A
C582   O607    1.375   .     S
C582   C953    1.414   1_545 S
C583   N603    1.379   .     A
C583   O608    1.374   .     S
C583   C766    1.414   .     S
C584   O609    1.385   .     S
C584   C685    1.403   1_455 S
Cu585  O605    1.956   .     S
Cu585  N603    2.039   .     S
Cu585  O618    1.957   .     S
Cu585  O616    1.957   .     S
Cu585  O614    1.958   .     S
Cu585  Cu586   2.713   .     S
Cu586  O619    1.957   .     S
Cu586  O615    1.958   .     S
Cu586  N604    2.039   .     S
Cu586  O617    1.957   .     S
Cu586  O613    1.956   .     S
H588   O606    0.981   .     S
H589   O607    0.982   .     S
H590   O608    0.981   .     S
H591   O609    0.989   .     S
H592   O610    0.989   .     S
H593   O611    0.989   .     S
H594   O612    0.989   .     S
H602   O620    0.981   .     S
C621   O677    1.298   .     A
C621   C639    1.447   .     S
C621   O667    1.300   .     A
C622   O672    1.385   .     S
C622   C638    1.404   .     A
C622   C686    1.402   .     S
C623   O673    1.385   .     S
C623   C638    1.414   .     A
C623   C708    1.403   .     S
C624   C639    1.414   .     A
C624   O674    1.385   .     S
C625   C629    1.390   .     A
C625   H649    1.083   .     S
C625   C636    1.404   .     A
C626   C630    1.390   .     A
C626   H657    1.083   .     S
C626   C637    1.404   .     A
C627   C631    1.390   .     A
C627   H658    1.083   .     S
C627   C637    1.404   .     A
C628   C633    1.391   .     A
C628   H659    1.083   .     S
C628   C636    1.404   .     A
C629   C634    1.402   .     A
C629   H660    1.082   .     S
C630   H661    1.083   .     S
C630   C635    1.402   .     A
C631   H662    1.082   .     S
C631   C635    1.402   .     A
C632   O676    1.298   .     A
C632   O675    1.300   .     A
C632   C638    1.447   .     S
C633   H663    1.083   .     S
C633   C634    1.402   .     A
C634   C640    1.461   .     S
C635   C641    1.462   .     S
C637   C78     1.471   1_556 S
C639   C646    1.404   .     A
C640   O678    1.305   .     A
C640   O681    1.304   .     A
C641   O679    1.304   .     A
C641   O680    1.305   .     A
C642   O682    1.374   .     S
C642   N666    1.378   .     A
C642   C1017   1.414   1_545 S
C643   N665    1.379   .     A
C643   O668    1.374   .     S
C643   C830    1.414   .     S
C644   N666    1.378   .     A
C644   O669    1.375   .     S
C644   C1015   1.414   1_545 S
C645   N665    1.379   .     A
C645   O670    1.374   .     S
C645   C828    1.414   .     S
C646   O671    1.385   .     S
Cu647  O667    1.956   .     S
Cu647  N665    2.039   .     S
Cu647  O680    1.957   .     S
Cu647  O678    1.957   .     S
Cu647  O676    1.958   .     S
Cu647  Cu648   2.713   .     S
Cu648  O681    1.957   .     S
Cu648  O677    1.958   .     S
Cu648  N666    2.039   .     S
Cu648  O679    1.957   .     S
Cu648  O675    1.956   .     S
H650   O668    0.981   .     S
H651   O669    0.982   .     S
H652   O670    0.981   .     S
H653   O671    0.989   .     S
H654   O672    0.989   .     S
H655   O673    0.989   .     S
H656   O674    0.989   .     S
H664   O682    0.981   .     S
C683   O739    1.298   .     A
C683   C701    1.447   .     S
C683   O729    1.300   .     A
C684   O734    1.385   .     S
C684   C700    1.404   .     A
C684   C562    1.402   1_655 S
C685   O735    1.385   .     S
C685   C700    1.414   .     A
C685   C584    1.403   1_655 S
C686   C701    1.414   .     A
C686   O736    1.385   .     S
C687   C691    1.390   .     A
C687   H711    1.083   .     S
C687   C698    1.404   .     A
C688   C692    1.390   .     A
C688   H719    1.083   .     S
C688   C699    1.404   .     A
C689   C693    1.390   .     A
C689   H720    1.083   .     S
C689   C699    1.404   .     A
C690   C695    1.391   .     A
C690   H721    1.083   .     S
C690   C698    1.404   .     A
C691   C696    1.402   .     A
C691   H722    1.082   .     S
C692   H723    1.083   .     S
C692   C697    1.402   .     A
C693   H724    1.082   .     S
C693   C697    1.402   .     A
C694   O738    1.298   .     A
C694   O737    1.300   .     A
C694   C700    1.447   .     S
C695   H725    1.083   .     S
C695   C696    1.402   .     A
C696   C702    1.461   .     S
C697   C703    1.462   .     S
C699   C140    1.471   1_556 S
C701   C708    1.404   .     A
C702   O740    1.305   .     A
C702   O743    1.304   .     A
C703   O741    1.304   .     A
C703   O742    1.305   .     A
C704   O744    1.374   .     S
C704   N728    1.378   .     A
C704   C1079   1.414   1_545 S
C705   N727    1.379   .     A
C705   O730    1.374   .     S
C705   C892    1.414   .     S
C706   N728    1.378   .     A
C706   O731    1.375   .     S
C706   C1077   1.414   1_545 S
C707   N727    1.379   .     A
C707   O732    1.374   .     S
C707   C890    1.414   .     S
C708   O733    1.385   .     S
Cu709  O729    1.956   .     S
Cu709  N727    2.039   .     S
Cu709  O742    1.957   .     S
Cu709  O740    1.957   .     S
Cu709  O738    1.958   .     S
Cu709  Cu710   2.713   .     S
Cu710  O743    1.957   .     S
Cu710  O739    1.958   .     S
Cu710  N728    2.039   .     S
Cu710  O741    1.957   .     S
Cu710  O737    1.956   .     S
H712   O730    0.981   .     S
H713   O731    0.982   .     S
H714   O732    0.981   .     S
H715   O733    0.989   .     S
H716   O734    0.989   .     S
H717   O735    0.989   .     S
H718   O736    0.989   .     S
H726   O744    0.981   .     S
C745   O801    1.298   .     A
C745   C763    1.447   .     S
C745   O791    1.300   .     A
C746   O796    1.385   .     S
C746   C762    1.404   .     A
C746   C810    1.402   .     S
C747   O797    1.385   .     S
C747   C762    1.414   .     A
C747   C832    1.403   .     S
C748   C763    1.414   .     A
C748   O798    1.385   .     S
C748   C870    1.402   1_455 S
C749   C753    1.390   .     A
C749   H773    1.083   .     S
C749   C760    1.404   .     A
C750   C754    1.390   .     A
C750   H781    1.083   .     S
C750   C761    1.404   .     A
C751   C755    1.390   .     A
C751   H782    1.083   .     S
C751   C761    1.404   .     A
C752   C757    1.391   .     A
C752   H783    1.083   .     S
C752   C760    1.404   .     A
C753   C758    1.402   .     A
C753   H784    1.082   .     S
C754   H785    1.083   .     S
C754   C759    1.402   .     A
C755   H786    1.082   .     S
C755   C759    1.402   .     A
C756   O800    1.298   .     A
C756   O799    1.300   .     A
C756   C762    1.447   .     S
C757   H787    1.083   .     S
C757   C758    1.402   .     A
C758   C764    1.461   .     S
C759   C765    1.462   .     S
C761   C202    1.471   1_556 S
C763   C770    1.404   .     A
C764   O802    1.305   .     A
C764   O805    1.304   .     A
C765   O803    1.304   .     A
C765   O804    1.305   .     A
C766   O806    1.374   .     S
C766   N790    1.378   .     A
C767   N789    1.379   .     A
C767   O792    1.374   .     S
C767   C954    1.414   .     S
C768   N790    1.378   .     A
C768   O793    1.375   .     S
C769   N789    1.379   .     A
C769   O794    1.374   .     S
C769   C952    1.414   .     S
C770   O795    1.385   .     S
C770   C871    1.403   1_455 S
Cu771  O791    1.956   .     S
Cu771  N789    2.039   .     S
Cu771  O804    1.957   .     S
Cu771  O802    1.957   .     S
Cu771  O800    1.958   .     S
Cu771  Cu772   2.713   .     S
Cu772  O805    1.957   .     S
Cu772  O801    1.958   .     S
Cu772  N790    2.039   .     S
Cu772  O803    1.957   .     S
Cu772  O799    1.956   .     S
H774   O792    0.981   .     S
H775   O793    0.982   .     S
H776   O794    0.981   .     S
H777   O795    0.989   .     S
H778   O796    0.989   .     S
H779   O797    0.989   .     S
H780   O798    0.989   .     S
H788   O806    0.981   .     S
C807   O863    1.298   .     A
C807   C825    1.447   .     S
C807   O853    1.300   .     A
C808   O858    1.385   .     S
C808   C824    1.404   .     A
C808   C872    1.402   .     S
C809   O859    1.385   .     S
C809   C824    1.414   .     A
C809   C894    1.403   .     S
C810   C825    1.414   .     A
C810   O860    1.385   .     S
C811   C815    1.390   .     A
C811   H835    1.083   .     S
C811   C822    1.404   .     A
C812   C816    1.390   .     A
C812   H843    1.083   .     S
C812   C823    1.404   .     A
C813   C817    1.390   .     A
C813   H844    1.083   .     S
C813   C823    1.404   .     A
C814   C819    1.391   .     A
C814   H845    1.083   .     S
C814   C822    1.404   .     A
C815   C820    1.402   .     A
C815   H846    1.082   .     S
C816   H847    1.083   .     S
C816   C821    1.402   .     A
C817   H848    1.082   .     S
C817   C821    1.402   .     A
C818   O862    1.298   .     A
C818   O861    1.300   .     A
C818   C824    1.447   .     S
C819   H849    1.083   .     S
C819   C820    1.402   .     A
C820   C826    1.461   .     S
C821   C827    1.462   .     S
C823   C264    1.471   1_556 S
C825   C832    1.404   .     A
C826   O864    1.305   .     A
C826   O867    1.304   .     A
C827   O865    1.304   .     A
C827   O866    1.305   .     A
C828   O868    1.374   .     S
C828   N852    1.378   .     A
C829   N851    1.379   .     A
C829   O854    1.374   .     S
C829   C1016   1.414   .     S
C830   N852    1.378   .     A
C830   O855    1.375   .     S
C831   N851    1.379   .     A
C831   O856    1.374   .     S
C831   C1014   1.414   .     S
C832   O857    1.385   .     S
Cu833  O853    1.956   .     S
Cu833  N851    2.039   .     S
Cu833  O866    1.957   .     S
Cu833  O864    1.957   .     S
Cu833  O862    1.958   .     S
Cu833  Cu834   2.713   .     S
Cu834  O867    1.957   .     S
Cu834  O863    1.958   .     S
Cu834  N852    2.039   .     S
Cu834  O865    1.957   .     S
Cu834  O861    1.956   .     S
H836   O854    0.981   .     S
H837   O855    0.982   .     S
H838   O856    0.981   .     S
H839   O857    0.989   .     S
H840   O858    0.989   .     S
H841   O859    0.989   .     S
H842   O860    0.989   .     S
H850   O868    0.981   .     S
C869   O925    1.298   .     A
C869   C887    1.447   .     S
C869   O915    1.300   .     A
C870   O920    1.385   .     S
C870   C886    1.404   .     A
C870   C748    1.402   1_655 S
C871   O921    1.385   .     S
C871   C886    1.414   .     A
C871   C770    1.403   1_655 S
C872   C887    1.414   .     A
C872   O922    1.385   .     S
C873   C877    1.390   .     A
C873   H897    1.083   .     S
C873   C884    1.404   .     A
C874   C878    1.390   .     A
C874   H905    1.083   .     S
C874   C885    1.404   .     A
C875   C879    1.390   .     A
C875   H906    1.083   .     S
C875   C885    1.404   .     A
C876   C881    1.391   .     A
C876   H907    1.083   .     S
C876   C884    1.404   .     A
C877   C882    1.402   .     A
C877   H908    1.082   .     S
C878   H909    1.083   .     S
C878   C883    1.402   .     A
C879   H910    1.082   .     S
C879   C883    1.402   .     A
C880   O924    1.298   .     A
C880   O923    1.300   .     A
C880   C886    1.447   .     S
C881   H911    1.083   .     S
C881   C882    1.402   .     A
C882   C888    1.461   .     S
C883   C889    1.462   .     S
C885   C326    1.471   1_556 S
C887   C894    1.404   .     A
C888   O926    1.305   .     A
C888   O929    1.304   .     A
C889   O927    1.304   .     A
C889   O928    1.305   .     A
C890   O930    1.374   .     S
C890   N914    1.378   .     A
C891   N913    1.379   .     A
C891   O916    1.374   .     S
C891   C1078   1.414   .     S
C892   N914    1.378   .     A
C892   O917    1.375   .     S
C893   N913    1.379   .     A
C893   O918    1.374   .     S
C893   C1076   1.414   .     S
C894   O919    1.385   .     S
Cu895  O915    1.956   .     S
Cu895  N913    2.039   .     S
Cu895  O928    1.957   .     S
Cu895  O926    1.957   .     S
Cu895  O924    1.958   .     S
Cu895  Cu896   2.713   .     S
Cu896  O929    1.957   .     S
Cu896  O925    1.958   .     S
Cu896  N914    2.039   .     S
Cu896  O927    1.957   .     S
Cu896  O923    1.956   .     S
H898   O916    0.981   .     S
H899   O917    0.982   .     S
H900   O918    0.981   .     S
H901   O919    0.989   .     S
H902   O920    0.989   .     S
H903   O921    0.989   .     S
H904   O922    0.989   .     S
H912   O930    0.981   .     S
C931   O987    1.298   .     A
C931   C949    1.447   .     S
C931   O977    1.300   .     A
C932   O982    1.385   .     S
C932   C948    1.404   .     A
C932   C996    1.402   .     S
C933   O983    1.385   .     S
C933   C948    1.414   .     A
C933   C1018   1.403   .     S
C934   C949    1.414   .     A
C934   O984    1.385   .     S
C934   C1056   1.402   1_455 S
C935   C939    1.390   .     A
C935   H959    1.083   .     S
C935   C946    1.404   .     A
C936   C940    1.390   .     A
C936   H967    1.083   .     S
C936   C947    1.404   .     A
C937   C941    1.390   .     A
C937   H968    1.083   .     S
C937   C947    1.404   .     A
C938   C943    1.391   .     A
C938   H969    1.083   .     S
C938   C946    1.404   .     A
C939   C944    1.402   .     A
C939   H970    1.082   .     S
C940   H971    1.083   .     S
C940   C945    1.402   .     A
C941   H972    1.082   .     S
C941   C945    1.402   .     A
C942   O986    1.298   .     A
C942   O985    1.300   .     A
C942   C948    1.447   .     S
C943   H973    1.083   .     S
C943   C944    1.402   .     A
C944   C950    1.461   .     S
C945   C951    1.462   .     S
C947   C388    1.471   1_556 S
C949   C956    1.404   .     A
C950   O988    1.305   .     A
C950   O991    1.304   .     A
C951   O989    1.304   .     A
C951   O990    1.305   .     A
C952   O992    1.374   .     S
C952   N976    1.378   .     A
C953   N975    1.379   .     A
C953   O978    1.374   .     S
C953   C582    1.414   1_565 S
C954   N976    1.378   .     A
C954   O979    1.375   .     S
C955   N975    1.379   .     A
C955   O980    1.374   .     S
C955   C580    1.414   1_565 S
C956   O981    1.385   .     S
C956   C1057   1.403   1_455 S
Cu957  O977    1.956   .     S
Cu957  N975    2.039   .     S
Cu957  O990    1.957   .     S
Cu957  O988    1.957   .     S
Cu957  O986    1.958   .     S
Cu957  Cu958   2.713   .     S
Cu958  O991    1.957   .     S
Cu958  O987    1.958   .     S
Cu958  N976    2.039   .     S
Cu958  O989    1.957   .     S
Cu958  O985    1.956   .     S
H960   O978    0.981   .     S
H961   O979    0.982   .     S
H962   O980    0.981   .     S
H963   O981    0.989   .     S
H964   O982    0.989   .     S
H965   O983    0.989   .     S
H966   O984    0.989   .     S
H974   O992    0.981   .     S
C993   O1049   1.298   .     A
C993   C1011   1.447   .     S
C993   O1039   1.300   .     A
C994   O1044   1.385   .     S
C994   C1010   1.404   .     A
C994   C1058   1.402   .     S
C995   O1045   1.385   .     S
C995   C1010   1.414   .     A
C995   C1080   1.403   .     S
C996   C1011   1.414   .     A
C996   O1046   1.385   .     S
C997   C1001   1.390   .     A
C997   H1021   1.083   .     S
C997   C1008   1.404   .     A
C998   C1002   1.390   .     A
C998   H1029   1.083   .     S
C998   C1009   1.404   .     A
C999   C1003   1.390   .     A
C999   H1030   1.083   .     S
C999   C1009   1.404   .     A
C1000  C1005   1.391   .     A
C1000  H1031   1.083   .     S
C1000  C1008   1.404   .     A
C1001  C1006   1.402   .     A
C1001  H1032   1.082   .     S
C1002  H1033   1.083   .     S
C1002  C1007   1.402   .     A
C1003  H1034   1.082   .     S
C1003  C1007   1.402   .     A
C1004  O1048   1.298   .     A
C1004  O1047   1.300   .     A
C1004  C1010   1.447   .     S
C1005  H1035   1.083   .     S
C1005  C1006   1.402   .     A
C1006  C1012   1.461   .     S
C1007  C1013   1.462   .     S
C1009  C450    1.471   1_556 S
C1011  C1018   1.404   .     A
C1012  O1050   1.305   .     A
C1012  O1053   1.304   .     A
C1013  O1051   1.304   .     A
C1013  O1052   1.305   .     A
C1014  O1054   1.374   .     S
C1014  N1038   1.378   .     A
C1015  N1037   1.379   .     A
C1015  O1040   1.374   .     S
C1015  C644    1.414   1_565 S
C1016  N1038   1.378   .     A
C1016  O1041   1.375   .     S
C1017  N1037   1.379   .     A
C1017  O1042   1.374   .     S
C1017  C642    1.414   1_565 S
C1018  O1043   1.385   .     S
Cu1019 O1039   1.956   .     S
Cu1019 N1037   2.039   .     S
Cu1019 O1052   1.957   .     S
Cu1019 O1050   1.957   .     S
Cu1019 O1048   1.958   .     S
Cu1019 Cu1020  2.713   .     S
Cu1020 O1053   1.957   .     S
Cu1020 O1049   1.958   .     S
Cu1020 N1038   2.039   .     S
Cu1020 O1051   1.957   .     S
Cu1020 O1047   1.956   .     S
H1022  O1040   0.981   .     S
H1023  O1041   0.982   .     S
H1024  O1042   0.981   .     S
H1025  O1043   0.989   .     S
H1026  O1044   0.989   .     S
H1027  O1045   0.989   .     S
H1028  O1046   0.989   .     S
H1036  O1054   0.981   .     S
C1055  O1111   1.298   .     A
C1055  C1073   1.447   .     S
C1055  O1101   1.300   .     A
C1056  O1106   1.385   .     S
C1056  C1072   1.404   .     A
C1056  C934    1.402   1_655 S
C1057  O1107   1.385   .     S
C1057  C1072   1.414   .     A
C1057  C956    1.403   1_655 S
C1058  C1073   1.414   .     A
C1058  O1108   1.385   .     S
C1059  C1063   1.390   .     A
C1059  H1083   1.083   .     S
C1059  C1070   1.404   .     A
C1060  C1064   1.390   .     A
C1060  H1091   1.083   .     S
C1060  C1071   1.404   .     A
C1061  C1065   1.390   .     A
C1061  H1092   1.083   .     S
C1061  C1071   1.404   .     A
C1062  C1067   1.391   .     A
C1062  H1093   1.083   .     S
C1062  C1070   1.404   .     A
C1063  C1068   1.402   .     A
C1063  H1094   1.082   .     S
C1064  H1095   1.083   .     S
C1064  C1069   1.402   .     A
C1065  H1096   1.082   .     S
C1065  C1069   1.402   .     A
C1066  O1110   1.298   .     A
C1066  O1109   1.300   .     A
C1066  C1072   1.447   .     S
C1067  H1097   1.083   .     S
C1067  C1068   1.402   .     A
C1068  C1074   1.461   .     S
C1069  C1075   1.462   .     S
C1071  C512    1.471   1_556 S
C1073  C1080   1.404   .     A
C1074  O1112   1.305   .     A
C1074  O1115   1.304   .     A
C1075  O1113   1.304   .     A
C1075  O1114   1.305   .     A
C1076  O1116   1.374   .     S
C1076  N1100   1.378   .     A
C1077  N1099   1.379   .     A
C1077  O1102   1.374   .     S
C1077  C706    1.414   1_565 S
C1078  N1100   1.378   .     A
C1078  O1103   1.375   .     S
C1079  N1099   1.379   .     A
C1079  O1104   1.374   .     S
C1079  C704    1.414   1_565 S
C1080  O1105   1.385   .     S
Cu1081 O1101   1.956   .     S
Cu1081 N1099   2.039   .     S
Cu1081 O1114   1.957   .     S
Cu1081 O1112   1.957   .     S
Cu1081 O1110   1.958   .     S
Cu1081 Cu1082  2.713   .     S
Cu1082 O1115   1.957   .     S
Cu1082 O1111   1.958   .     S
Cu1082 N1100   2.039   .     S
Cu1082 O1113   1.957   .     S
Cu1082 O1109   1.956   .     S
H1084  O1102   0.981   .     S
H1085  O1103   0.982   .     S
H1086  O1104   0.981   .     S
H1087  O1105   0.989   .     S
H1088  O1106   0.989   .     S
H1089  O1107   0.989   .     S
H1090  O1108   0.989   .     S
H1098  O1116   0.981   .     S
