data_str_m3_o1_o17_pcu_sym.207
_audit_creation_date              2020-01-03
_audit_creation_method            'Materials Studio'
_symmetry_space_group_name_H-M    'P1'
_symmetry_Int_Tables_number       1
_symmetry_cell_setting            triclinic
loop_
_symmetry_equiv_pos_as_xyz
  x,y,z
_cell_length_a                    32.0063
_cell_length_b                    29.5281
_cell_length_c                    29.7752
_cell_angle_alpha                 90.1840
_cell_angle_beta                  90.5167
_cell_angle_gamma                 90.0618
loop_
_atom_site_label
_atom_site_type_symbol
_atom_site_fract_x
_atom_site_fract_y
_atom_site_fract_z
_atom_site_U_iso_or_equiv
_atom_site_adp_type
_atom_site_occupancy
O1     O     0.10559   0.20487   0.24999   0.00000  Uiso   1.00
O2     O     0.22774   0.12846   0.25000   0.00000  Uiso   1.00
O3     O     0.22774   0.20487   0.25000   0.00000  Uiso   1.00
O4     O     0.10559   0.12846   0.24999   0.00000  Uiso   1.00
C5     C     0.08666   0.16666   0.24986   0.00000  Uiso   1.00
C6     C     0.24668   0.16669   0.24989   0.00000  Uiso   1.00
O7     O     0.16666   0.20489   0.18392   0.00000  Uiso   1.00
O8     O     0.16667   0.12844   0.31607   0.00000  Uiso   1.00
O9     O     0.16667   0.20489   0.31607   0.00000  Uiso   1.00
O10    O     0.16666   0.12844   0.18392   0.00000  Uiso   1.00
C11    C     0.16784   0.16658   0.16344   0.00000  Uiso   1.00
C12    C     0.16651   0.16678   0.33643   0.00000  Uiso   1.00
Zn13   Zn    0.16667   0.21771   0.25000   0.00000  Uiso   1.00
Zn14   Zn    0.16667   0.11563   0.25000   0.00000  Uiso   1.00
C15    C     0.20303   0.15888   0.40619   0.00000  Uiso   1.00
C16    C     0.13764   0.19000   0.09355   0.00000  Uiso   1.00
C17    C     0.16568   0.16756   0.38412   0.00000  Uiso   1.00
C18    C     0.16953   0.16705   0.11553   0.00000  Uiso   1.00
C19    C     0.12922   0.18048   0.40675   0.00000  Uiso   1.00
C20    C     0.20316   0.14749   0.09225   0.00000  Uiso   1.00
C21    C     0.13211   0.18896   0.45348   0.00000  Uiso   1.00
C22    C     0.20689   0.15718   0.04597   0.00000  Uiso   1.00
C23    C     0.16944   0.17537   0.47631   0.00000  Uiso   1.00
C24    C     0.17118   0.17492   0.02319   0.00000  Uiso   1.00
C25    C     0.20481   0.16105   0.45234   0.00000  Uiso   1.00
C26    C     0.13679   0.19132   0.04735   0.00000  Uiso   1.00
C27    C     0.09953   0.20949   0.47869   0.00000  Uiso   1.00
C28    C     0.24414   0.14971   0.02127   0.00000  Uiso   1.00
C29    C     0.10228   0.20983   0.02537   0.00000  Uiso   1.00
C30    C     0.24211   0.15054   0.47450   0.00000  Uiso   1.00
H31    H     0.23055   0.14956   0.38717   0.00000  Uiso   1.00
H32    H     0.11217   0.20461   0.11262   0.00000  Uiso   1.00
H33    H     0.07731   0.22496   0.04475   0.00000  Uiso   1.00
H34    H     0.27003   0.14378   0.45518   0.00000  Uiso   1.00
C35    C     0.02122   0.12902   0.23263   0.00000  Uiso   1.00
C36    C     0.31213   0.20449   0.26653   0.00000  Uiso   1.00
C37    C     0.31175   0.12906   0.23259   0.00000  Uiso   1.00
C38    C     0.02158   0.20444   0.26661   0.00000  Uiso   1.00
H39    H     0.03756   0.09997   0.21904   0.00000  Uiso   1.00
H40    H     0.29581   0.23356   0.28013   0.00000  Uiso   1.00
H41    H     0.29511   0.10002   0.21898   0.00000  Uiso   1.00
H42    H     0.03820   0.23347   0.28027   0.00000  Uiso   1.00
C43    C     0.29081   0.16676   0.24963   0.00000  Uiso   1.00
C44    C     0.04253   0.16668   0.24971   0.00000  Uiso   1.00
C45    C     0.19321   0.02410   0.27751   0.00000  Uiso   1.00
C46    C     0.14013   0.30923   0.22247   0.00000  Uiso   1.00
C47    C     0.14013   0.02387   0.22247   0.00000  Uiso   1.00
C48    C     0.19321   0.30947   0.27752   0.00000  Uiso   1.00
H49    H     0.21444   0.04237   0.29951   0.00000  Uiso   1.00
H50    H     0.11892   0.29096   0.20047   0.00000  Uiso   1.00
H51    H     0.11892   0.04195   0.20046   0.00000  Uiso   1.00
H52    H     0.21443   0.29139   0.29951   0.00000  Uiso   1.00
N53    N     0.16667   0.28573   0.25000   0.00000  Uiso   1.00
N54    N     0.16667   0.04760   0.25000   0.00000  Uiso   1.00
C55    C     0.08776   0.17903   0.38151   0.00000  Uiso   1.00
H56    H     0.08843   0.15424   0.35341   0.00000  Uiso   1.00
H57    H     0.06231   0.16688   0.40343   0.00000  Uiso   1.00
H58    H     0.08030   0.21271   0.36716   0.00000  Uiso   1.00
C59    C     0.23123   0.11365   0.11618   0.00000  Uiso   1.00
H60    H     0.21210   0.08818   0.13395   0.00000  Uiso   1.00
H61    H     0.24987   0.09280   0.09290   0.00000  Uiso   1.00
H62    H     0.25196   0.13125   0.14073   0.00000  Uiso   1.00
C63    C     0.06456   0.23548   0.45851   0.00000  Uiso   1.00
C64    C     0.07260   0.27451   0.43313   0.00000  Uiso   1.00
C65    C     0.03949   0.29950   0.41488   0.00000  Uiso   1.00
C66    C     0.33157   0.28601   0.42229   0.00000  Uiso   1.00
C67    C     0.32333   0.24764   0.44815   0.00000  Uiso   1.00
C68    C     0.02300   0.22258   0.46644   0.00000  Uiso   1.00
H69    H     0.10444   0.28535   0.42732   0.00000  Uiso   1.00
H70    H     0.04582   0.32935   0.39506   0.00000  Uiso   1.00
H71    H     0.30599   0.30539   0.40814   0.00000  Uiso   1.00
H72    H     0.29138   0.23736   0.45405   0.00000  Uiso   1.00
H73    H     0.01630   0.19288   0.48631   0.00000  Uiso   1.00
C74    C     0.28631   0.14664   0.04246   0.00000  Uiso   1.00
C75    C     0.29938   0.17906   0.07436   0.00000  Uiso   1.00
C76    C     0.00519   0.17531   0.09525   0.00000  Uiso   1.00
C77    C     0.03178   0.13959   0.08409   0.00000  Uiso   1.00
C78    C     0.01955   0.10790   0.05161   0.00000  Uiso   1.00
C79    C     0.31370   0.11136   0.03078   0.00000  Uiso   1.00
H80    H     0.27907   0.20689   0.08337   0.00000  Uiso   1.00
H81    H     0.01487   0.20000   0.12021   0.00000  Uiso   1.00
H82    H     0.06189   0.13645   0.10058   0.00000  Uiso   1.00
H83    H     0.04031   0.08042   0.04282   0.00000  Uiso   1.00
H84    H     0.30440   0.08609   0.00620   0.00000  Uiso   1.00
O85    O     0.43892   0.20487   0.24999   0.00000  Uiso   1.00
O86    O     0.56108   0.12846   0.25000   0.00000  Uiso   1.00
O87    O     0.56108   0.20487   0.25000   0.00000  Uiso   1.00
O88    O     0.43892   0.12846   0.24999   0.00000  Uiso   1.00
C89    C     0.41999   0.16666   0.24986   0.00000  Uiso   1.00
C90    C     0.58001   0.16669   0.24989   0.00000  Uiso   1.00
O91    O     0.49999   0.20489   0.18392   0.00000  Uiso   1.00
O92    O     0.50001   0.12844   0.31607   0.00000  Uiso   1.00
O93    O     0.50001   0.20489   0.31607   0.00000  Uiso   1.00
O94    O     0.49999   0.12844   0.18392   0.00000  Uiso   1.00
C95    C     0.50118   0.16658   0.16344   0.00000  Uiso   1.00
C96    C     0.49985   0.16678   0.33643   0.00000  Uiso   1.00
Zn97   Zn    0.50000   0.21771   0.25000   0.00000  Uiso   1.00
Zn98   Zn    0.50000   0.11563   0.25000   0.00000  Uiso   1.00
C99    C     0.53636   0.15888   0.40619   0.00000  Uiso   1.00
C100   C     0.47098   0.19000   0.09355   0.00000  Uiso   1.00
C101   C     0.49902   0.16756   0.38412   0.00000  Uiso   1.00
C102   C     0.50287   0.16705   0.11553   0.00000  Uiso   1.00
C103   C     0.46256   0.18048   0.40675   0.00000  Uiso   1.00
C104   C     0.53649   0.14749   0.09225   0.00000  Uiso   1.00
C105   C     0.46544   0.18896   0.45348   0.00000  Uiso   1.00
C106   C     0.54022   0.15718   0.04597   0.00000  Uiso   1.00
C107   C     0.50277   0.17537   0.47631   0.00000  Uiso   1.00
C108   C     0.50452   0.17492   0.02319   0.00000  Uiso   1.00
C109   C     0.53815   0.16105   0.45234   0.00000  Uiso   1.00
C110   C     0.47012   0.19132   0.04735   0.00000  Uiso   1.00
C111   C     0.43286   0.20949   0.47869   0.00000  Uiso   1.00
C112   C     0.57747   0.14971   0.02127   0.00000  Uiso   1.00
C113   C     0.43561   0.20983   0.02537   0.00000  Uiso   1.00
C114   C     0.57544   0.15054   0.47450   0.00000  Uiso   1.00
H115   H     0.56388   0.14956   0.38717   0.00000  Uiso   1.00
H116   H     0.44550   0.20461   0.11262   0.00000  Uiso   1.00
H117   H     0.41065   0.22496   0.04475   0.00000  Uiso   1.00
H118   H     0.60336   0.14378   0.45518   0.00000  Uiso   1.00
C119   C     0.35455   0.12902   0.23263   0.00000  Uiso   1.00
C120   C     0.64547   0.20449   0.26653   0.00000  Uiso   1.00
C121   C     0.64508   0.12906   0.23259   0.00000  Uiso   1.00
C122   C     0.35492   0.20444   0.26661   0.00000  Uiso   1.00
H123   H     0.37089   0.09997   0.21904   0.00000  Uiso   1.00
H124   H     0.62915   0.23356   0.28013   0.00000  Uiso   1.00
H125   H     0.62844   0.10002   0.21898   0.00000  Uiso   1.00
H126   H     0.37154   0.23347   0.28027   0.00000  Uiso   1.00
C127   C     0.62414   0.16676   0.24963   0.00000  Uiso   1.00
C128   C     0.37586   0.16668   0.24971   0.00000  Uiso   1.00
C129   C     0.52655   0.02410   0.27751   0.00000  Uiso   1.00
C130   C     0.47346   0.30923   0.22247   0.00000  Uiso   1.00
C131   C     0.47347   0.02387   0.22247   0.00000  Uiso   1.00
C132   C     0.52654   0.30947   0.27752   0.00000  Uiso   1.00
H133   H     0.54777   0.04237   0.29951   0.00000  Uiso   1.00
H134   H     0.45225   0.29096   0.20047   0.00000  Uiso   1.00
H135   H     0.45225   0.04195   0.20046   0.00000  Uiso   1.00
H136   H     0.54777   0.29139   0.29951   0.00000  Uiso   1.00
N137   N     0.50000   0.28573   0.25000   0.00000  Uiso   1.00
N138   N     0.50000   0.04760   0.25000   0.00000  Uiso   1.00
C139   C     0.42109   0.17903   0.38151   0.00000  Uiso   1.00
H140   H     0.42176   0.15424   0.35341   0.00000  Uiso   1.00
H141   H     0.39564   0.16688   0.40343   0.00000  Uiso   1.00
H142   H     0.41363   0.21271   0.36716   0.00000  Uiso   1.00
C143   C     0.56457   0.11365   0.11618   0.00000  Uiso   1.00
H144   H     0.54544   0.08818   0.13395   0.00000  Uiso   1.00
H145   H     0.58320   0.09280   0.09290   0.00000  Uiso   1.00
H146   H     0.58530   0.13125   0.14073   0.00000  Uiso   1.00
C147   C     0.39789   0.23548   0.45851   0.00000  Uiso   1.00
C148   C     0.40593   0.27451   0.43313   0.00000  Uiso   1.00
C149   C     0.37283   0.29950   0.41488   0.00000  Uiso   1.00
C150   C     0.66490   0.28601   0.42229   0.00000  Uiso   1.00
C151   C     0.65666   0.24764   0.44815   0.00000  Uiso   1.00
C152   C     0.35633   0.22258   0.46644   0.00000  Uiso   1.00
H153   H     0.43777   0.28535   0.42732   0.00000  Uiso   1.00
H154   H     0.37915   0.32935   0.39506   0.00000  Uiso   1.00
H155   H     0.63933   0.30539   0.40814   0.00000  Uiso   1.00
H156   H     0.62471   0.23736   0.45405   0.00000  Uiso   1.00
H157   H     0.34963   0.19288   0.48631   0.00000  Uiso   1.00
C158   C     0.61964   0.14664   0.04246   0.00000  Uiso   1.00
C159   C     0.63271   0.17906   0.07436   0.00000  Uiso   1.00
C160   C     0.33853   0.17531   0.09525   0.00000  Uiso   1.00
C161   C     0.36512   0.13959   0.08409   0.00000  Uiso   1.00
C162   C     0.35288   0.10790   0.05161   0.00000  Uiso   1.00
C163   C     0.64703   0.11136   0.03078   0.00000  Uiso   1.00
H164   H     0.61240   0.20689   0.08337   0.00000  Uiso   1.00
H165   H     0.34821   0.20000   0.12021   0.00000  Uiso   1.00
H166   H     0.39522   0.13645   0.10058   0.00000  Uiso   1.00
H167   H     0.37365   0.08042   0.04282   0.00000  Uiso   1.00
H168   H     0.63773   0.08609   0.00620   0.00000  Uiso   1.00
O169   O     0.77226   0.20487   0.24999   0.00000  Uiso   1.00
O170   O     0.89441   0.12846   0.25000   0.00000  Uiso   1.00
O171   O     0.89441   0.20487   0.25000   0.00000  Uiso   1.00
O172   O     0.77226   0.12846   0.24999   0.00000  Uiso   1.00
C173   C     0.75332   0.16666   0.24986   0.00000  Uiso   1.00
C174   C     0.91335   0.16669   0.24989   0.00000  Uiso   1.00
O175   O     0.83333   0.20489   0.18392   0.00000  Uiso   1.00
O176   O     0.83334   0.12844   0.31607   0.00000  Uiso   1.00
O177   O     0.83334   0.20489   0.31607   0.00000  Uiso   1.00
O178   O     0.83333   0.12844   0.18392   0.00000  Uiso   1.00
C179   C     0.83451   0.16658   0.16344   0.00000  Uiso   1.00
C180   C     0.83318   0.16678   0.33643   0.00000  Uiso   1.00
Zn181  Zn    0.83333   0.21771   0.25000   0.00000  Uiso   1.00
Zn182  Zn    0.83333   0.11563   0.25000   0.00000  Uiso   1.00
C183   C     0.86970   0.15888   0.40619   0.00000  Uiso   1.00
C184   C     0.80431   0.19000   0.09355   0.00000  Uiso   1.00
C185   C     0.83235   0.16756   0.38412   0.00000  Uiso   1.00
C186   C     0.83620   0.16705   0.11553   0.00000  Uiso   1.00
C187   C     0.79589   0.18048   0.40675   0.00000  Uiso   1.00
C188   C     0.86982   0.14749   0.09225   0.00000  Uiso   1.00
C189   C     0.79878   0.18896   0.45348   0.00000  Uiso   1.00
C190   C     0.87355   0.15718   0.04597   0.00000  Uiso   1.00
C191   C     0.83610   0.17537   0.47631   0.00000  Uiso   1.00
C192   C     0.83785   0.17492   0.02319   0.00000  Uiso   1.00
C193   C     0.87148   0.16105   0.45234   0.00000  Uiso   1.00
C194   C     0.80346   0.19132   0.04735   0.00000  Uiso   1.00
C195   C     0.76620   0.20949   0.47869   0.00000  Uiso   1.00
C196   C     0.91081   0.14971   0.02127   0.00000  Uiso   1.00
C197   C     0.76895   0.20983   0.02537   0.00000  Uiso   1.00
C198   C     0.90878   0.15054   0.47450   0.00000  Uiso   1.00
H199   H     0.89721   0.14956   0.38717   0.00000  Uiso   1.00
H200   H     0.77884   0.20461   0.11262   0.00000  Uiso   1.00
H201   H     0.74398   0.22496   0.04475   0.00000  Uiso   1.00
H202   H     0.93669   0.14378   0.45518   0.00000  Uiso   1.00
C203   C     0.68788   0.12902   0.23263   0.00000  Uiso   1.00
C204   C     0.97880   0.20449   0.26653   0.00000  Uiso   1.00
C205   C     0.97841   0.12906   0.23259   0.00000  Uiso   1.00
C206   C     0.68825   0.20444   0.26661   0.00000  Uiso   1.00
H207   H     0.70423   0.09997   0.21904   0.00000  Uiso   1.00
H208   H     0.96248   0.23356   0.28013   0.00000  Uiso   1.00
H209   H     0.96178   0.10002   0.21898   0.00000  Uiso   1.00
H210   H     0.70487   0.23347   0.28027   0.00000  Uiso   1.00
C211   C     0.95748   0.16676   0.24963   0.00000  Uiso   1.00
C212   C     0.70920   0.16668   0.24971   0.00000  Uiso   1.00
C213   C     0.85988   0.02410   0.27751   0.00000  Uiso   1.00
C214   C     0.80680   0.30923   0.22247   0.00000  Uiso   1.00
C215   C     0.80680   0.02387   0.22247   0.00000  Uiso   1.00
C216   C     0.85988   0.30947   0.27752   0.00000  Uiso   1.00
H217   H     0.88110   0.04237   0.29951   0.00000  Uiso   1.00
H218   H     0.78558   0.29096   0.20047   0.00000  Uiso   1.00
H219   H     0.78559   0.04195   0.20046   0.00000  Uiso   1.00
H220   H     0.88110   0.29139   0.29951   0.00000  Uiso   1.00
N221   N     0.83333   0.28573   0.25000   0.00000  Uiso   1.00
N222   N     0.83333   0.04760   0.25000   0.00000  Uiso   1.00
C223   C     0.75442   0.17903   0.38151   0.00000  Uiso   1.00
H224   H     0.75509   0.15424   0.35341   0.00000  Uiso   1.00
H225   H     0.72897   0.16688   0.40343   0.00000  Uiso   1.00
H226   H     0.74697   0.21271   0.36716   0.00000  Uiso   1.00
C227   C     0.89790   0.11365   0.11618   0.00000  Uiso   1.00
H228   H     0.87877   0.08818   0.13395   0.00000  Uiso   1.00
H229   H     0.91653   0.09280   0.09290   0.00000  Uiso   1.00
H230   H     0.91863   0.13125   0.14073   0.00000  Uiso   1.00
C231   C     0.73123   0.23548   0.45851   0.00000  Uiso   1.00
C232   C     0.73927   0.27451   0.43313   0.00000  Uiso   1.00
C233   C     0.70616   0.29950   0.41488   0.00000  Uiso   1.00
C234   C     0.99824   0.28601   0.42229   0.00000  Uiso   1.00
C235   C     0.98999   0.24764   0.44815   0.00000  Uiso   1.00
C236   C     0.68966   0.22258   0.46644   0.00000  Uiso   1.00
H237   H     0.77110   0.28535   0.42732   0.00000  Uiso   1.00
H238   H     0.71248   0.32935   0.39506   0.00000  Uiso   1.00
H239   H     0.97266   0.30539   0.40814   0.00000  Uiso   1.00
H240   H     0.95804   0.23736   0.45405   0.00000  Uiso   1.00
H241   H     0.68296   0.19288   0.48631   0.00000  Uiso   1.00
C242   C     0.95297   0.14664   0.04246   0.00000  Uiso   1.00
C243   C     0.96605   0.17906   0.07436   0.00000  Uiso   1.00
C244   C     0.67186   0.17531   0.09525   0.00000  Uiso   1.00
C245   C     0.69845   0.13959   0.08409   0.00000  Uiso   1.00
C246   C     0.68622   0.10790   0.05161   0.00000  Uiso   1.00
C247   C     0.98037   0.11136   0.03078   0.00000  Uiso   1.00
H248   H     0.94574   0.20689   0.08337   0.00000  Uiso   1.00
H249   H     0.68154   0.20000   0.12021   0.00000  Uiso   1.00
H250   H     0.72855   0.13645   0.10058   0.00000  Uiso   1.00
H251   H     0.70698   0.08042   0.04282   0.00000  Uiso   1.00
H252   H     0.97107   0.08609   0.00620   0.00000  Uiso   1.00
O253   O     0.10559   0.53821   0.24999   0.00000  Uiso   1.00
O254   O     0.22774   0.46179   0.25000   0.00000  Uiso   1.00
O255   O     0.22774   0.53821   0.25000   0.00000  Uiso   1.00
O256   O     0.10559   0.46179   0.24999   0.00000  Uiso   1.00
C257   C     0.08666   0.49999   0.24986   0.00000  Uiso   1.00
C258   C     0.24668   0.50002   0.24989   0.00000  Uiso   1.00
O259   O     0.16666   0.53823   0.18392   0.00000  Uiso   1.00
O260   O     0.16667   0.46177   0.31607   0.00000  Uiso   1.00
O261   O     0.16667   0.53823   0.31607   0.00000  Uiso   1.00
O262   O     0.16666   0.46177   0.18392   0.00000  Uiso   1.00
C263   C     0.16784   0.49991   0.16344   0.00000  Uiso   1.00
C264   C     0.16651   0.50011   0.33643   0.00000  Uiso   1.00
Zn265  Zn    0.16667   0.55104   0.25000   0.00000  Uiso   1.00
Zn266  Zn    0.16667   0.44896   0.25000   0.00000  Uiso   1.00
C267   C     0.20303   0.49221   0.40619   0.00000  Uiso   1.00
C268   C     0.13764   0.52333   0.09355   0.00000  Uiso   1.00
C269   C     0.16568   0.50089   0.38412   0.00000  Uiso   1.00
C270   C     0.16953   0.50038   0.11553   0.00000  Uiso   1.00
C271   C     0.12922   0.51381   0.40675   0.00000  Uiso   1.00
C272   C     0.20316   0.48083   0.09225   0.00000  Uiso   1.00
C273   C     0.13211   0.52230   0.45348   0.00000  Uiso   1.00
C274   C     0.20689   0.49051   0.04597   0.00000  Uiso   1.00
C275   C     0.16944   0.50871   0.47631   0.00000  Uiso   1.00
C276   C     0.17118   0.50825   0.02319   0.00000  Uiso   1.00
C277   C     0.20481   0.49439   0.45234   0.00000  Uiso   1.00
C278   C     0.13679   0.52465   0.04735   0.00000  Uiso   1.00
C279   C     0.09953   0.54283   0.47869   0.00000  Uiso   1.00
C280   C     0.24414   0.48304   0.02127   0.00000  Uiso   1.00
C281   C     0.10228   0.54317   0.02537   0.00000  Uiso   1.00
C282   C     0.24211   0.48387   0.47450   0.00000  Uiso   1.00
H283   H     0.23055   0.48289   0.38717   0.00000  Uiso   1.00
H284   H     0.11217   0.53794   0.11262   0.00000  Uiso   1.00
H285   H     0.07731   0.55830   0.04475   0.00000  Uiso   1.00
H286   H     0.27003   0.47711   0.45518   0.00000  Uiso   1.00
C287   C     0.02122   0.46235   0.23263   0.00000  Uiso   1.00
C288   C     0.31213   0.53783   0.26653   0.00000  Uiso   1.00
C289   C     0.31175   0.46239   0.23259   0.00000  Uiso   1.00
C290   C     0.02158   0.53778   0.26661   0.00000  Uiso   1.00
H291   H     0.03756   0.43331   0.21904   0.00000  Uiso   1.00
H292   H     0.29581   0.56690   0.28013   0.00000  Uiso   1.00
H293   H     0.29511   0.43336   0.21898   0.00000  Uiso   1.00
H294   H     0.03820   0.56680   0.28027   0.00000  Uiso   1.00
C295   C     0.29081   0.50009   0.24963   0.00000  Uiso   1.00
C296   C     0.04253   0.50002   0.24971   0.00000  Uiso   1.00
C297   C     0.19321   0.35743   0.27751   0.00000  Uiso   1.00
C298   C     0.14013   0.64257   0.22247   0.00000  Uiso   1.00
C299   C     0.14013   0.35720   0.22247   0.00000  Uiso   1.00
C300   C     0.19321   0.64280   0.27752   0.00000  Uiso   1.00
H301   H     0.21444   0.37570   0.29951   0.00000  Uiso   1.00
H302   H     0.11892   0.62430   0.20047   0.00000  Uiso   1.00
H303   H     0.11892   0.37528   0.20046   0.00000  Uiso   1.00
H304   H     0.21443   0.62472   0.29951   0.00000  Uiso   1.00
N305   N     0.16667   0.61907   0.25000   0.00000  Uiso   1.00
N306   N     0.16667   0.38093   0.25000   0.00000  Uiso   1.00
C307   C     0.08776   0.51237   0.38151   0.00000  Uiso   1.00
H308   H     0.08843   0.48758   0.35341   0.00000  Uiso   1.00
H309   H     0.06231   0.50021   0.40343   0.00000  Uiso   1.00
H310   H     0.08030   0.54604   0.36716   0.00000  Uiso   1.00
C311   C     0.23123   0.44698   0.11618   0.00000  Uiso   1.00
H312   H     0.21210   0.42152   0.13395   0.00000  Uiso   1.00
H313   H     0.24987   0.42613   0.09290   0.00000  Uiso   1.00
H314   H     0.25196   0.46458   0.14073   0.00000  Uiso   1.00
C315   C     0.06456   0.56881   0.45851   0.00000  Uiso   1.00
C316   C     0.07260   0.60784   0.43313   0.00000  Uiso   1.00
C317   C     0.03949   0.63283   0.41488   0.00000  Uiso   1.00
C318   C     0.33157   0.61935   0.42229   0.00000  Uiso   1.00
C319   C     0.32333   0.58098   0.44815   0.00000  Uiso   1.00
C320   C     0.02300   0.55591   0.46644   0.00000  Uiso   1.00
H321   H     0.10444   0.61868   0.42732   0.00000  Uiso   1.00
H322   H     0.04582   0.66269   0.39506   0.00000  Uiso   1.00
H323   H     0.30599   0.63872   0.40814   0.00000  Uiso   1.00
H324   H     0.29138   0.57069   0.45405   0.00000  Uiso   1.00
H325   H     0.01630   0.52621   0.48631   0.00000  Uiso   1.00
C326   C     0.28631   0.47997   0.04246   0.00000  Uiso   1.00
C327   C     0.29938   0.51240   0.07436   0.00000  Uiso   1.00
C328   C     0.00519   0.50864   0.09525   0.00000  Uiso   1.00
C329   C     0.03178   0.47292   0.08409   0.00000  Uiso   1.00
C330   C     0.01955   0.44123   0.05161   0.00000  Uiso   1.00
C331   C     0.31370   0.44469   0.03078   0.00000  Uiso   1.00
H332   H     0.27907   0.54023   0.08337   0.00000  Uiso   1.00
H333   H     0.01487   0.53333   0.12021   0.00000  Uiso   1.00
H334   H     0.06189   0.46978   0.10058   0.00000  Uiso   1.00
H335   H     0.04031   0.41375   0.04282   0.00000  Uiso   1.00
H336   H     0.30440   0.41942   0.00620   0.00000  Uiso   1.00
O337   O     0.43892   0.53821   0.24999   0.00000  Uiso   1.00
O338   O     0.56108   0.46179   0.25000   0.00000  Uiso   1.00
O339   O     0.56108   0.53821   0.25000   0.00000  Uiso   1.00
O340   O     0.43892   0.46179   0.24999   0.00000  Uiso   1.00
C341   C     0.41999   0.49999   0.24986   0.00000  Uiso   1.00
C342   C     0.58001   0.50002   0.24989   0.00000  Uiso   1.00
O343   O     0.49999   0.53823   0.18392   0.00000  Uiso   1.00
O344   O     0.50001   0.46177   0.31607   0.00000  Uiso   1.00
O345   O     0.50001   0.53823   0.31607   0.00000  Uiso   1.00
O346   O     0.49999   0.46177   0.18392   0.00000  Uiso   1.00
C347   C     0.50118   0.49991   0.16344   0.00000  Uiso   1.00
C348   C     0.49985   0.50011   0.33643   0.00000  Uiso   1.00
Zn349  Zn    0.50000   0.55104   0.25000   0.00000  Uiso   1.00
Zn350  Zn    0.50000   0.44896   0.25000   0.00000  Uiso   1.00
C351   C     0.53636   0.49221   0.40619   0.00000  Uiso   1.00
C352   C     0.47098   0.52333   0.09355   0.00000  Uiso   1.00
C353   C     0.49902   0.50089   0.38412   0.00000  Uiso   1.00
C354   C     0.50287   0.50038   0.11553   0.00000  Uiso   1.00
C355   C     0.46256   0.51381   0.40675   0.00000  Uiso   1.00
C356   C     0.53649   0.48083   0.09225   0.00000  Uiso   1.00
C357   C     0.46544   0.52230   0.45348   0.00000  Uiso   1.00
C358   C     0.54022   0.49051   0.04597   0.00000  Uiso   1.00
C359   C     0.50277   0.50871   0.47631   0.00000  Uiso   1.00
C360   C     0.50452   0.50825   0.02319   0.00000  Uiso   1.00
C361   C     0.53815   0.49439   0.45234   0.00000  Uiso   1.00
C362   C     0.47012   0.52465   0.04735   0.00000  Uiso   1.00
C363   C     0.43286   0.54283   0.47869   0.00000  Uiso   1.00
C364   C     0.57747   0.48304   0.02127   0.00000  Uiso   1.00
C365   C     0.43561   0.54317   0.02537   0.00000  Uiso   1.00
C366   C     0.57544   0.48387   0.47450   0.00000  Uiso   1.00
H367   H     0.56388   0.48289   0.38717   0.00000  Uiso   1.00
H368   H     0.44550   0.53794   0.11262   0.00000  Uiso   1.00
H369   H     0.41065   0.55830   0.04475   0.00000  Uiso   1.00
H370   H     0.60336   0.47711   0.45518   0.00000  Uiso   1.00
C371   C     0.35455   0.46235   0.23263   0.00000  Uiso   1.00
C372   C     0.64547   0.53783   0.26653   0.00000  Uiso   1.00
C373   C     0.64508   0.46239   0.23259   0.00000  Uiso   1.00
C374   C     0.35492   0.53778   0.26661   0.00000  Uiso   1.00
H375   H     0.37089   0.43331   0.21904   0.00000  Uiso   1.00
H376   H     0.62915   0.56690   0.28013   0.00000  Uiso   1.00
H377   H     0.62844   0.43336   0.21898   0.00000  Uiso   1.00
H378   H     0.37154   0.56680   0.28027   0.00000  Uiso   1.00
C379   C     0.62414   0.50009   0.24963   0.00000  Uiso   1.00
C380   C     0.37586   0.50002   0.24971   0.00000  Uiso   1.00
C381   C     0.52655   0.35743   0.27751   0.00000  Uiso   1.00
C382   C     0.47346   0.64257   0.22247   0.00000  Uiso   1.00
C383   C     0.47347   0.35720   0.22247   0.00000  Uiso   1.00
C384   C     0.52654   0.64280   0.27752   0.00000  Uiso   1.00
H385   H     0.54777   0.37570   0.29951   0.00000  Uiso   1.00
H386   H     0.45225   0.62430   0.20047   0.00000  Uiso   1.00
H387   H     0.45225   0.37528   0.20046   0.00000  Uiso   1.00
H388   H     0.54777   0.62472   0.29951   0.00000  Uiso   1.00
N389   N     0.50000   0.61907   0.25000   0.00000  Uiso   1.00
N390   N     0.50000   0.38093   0.25000   0.00000  Uiso   1.00
C391   C     0.42109   0.51237   0.38151   0.00000  Uiso   1.00
H392   H     0.42176   0.48758   0.35341   0.00000  Uiso   1.00
H393   H     0.39564   0.50021   0.40343   0.00000  Uiso   1.00
H394   H     0.41363   0.54604   0.36716   0.00000  Uiso   1.00
C395   C     0.56457   0.44698   0.11618   0.00000  Uiso   1.00
H396   H     0.54544   0.42152   0.13395   0.00000  Uiso   1.00
H397   H     0.58320   0.42613   0.09290   0.00000  Uiso   1.00
H398   H     0.58530   0.46458   0.14073   0.00000  Uiso   1.00
C399   C     0.39789   0.56881   0.45851   0.00000  Uiso   1.00
C400   C     0.40593   0.60784   0.43313   0.00000  Uiso   1.00
C401   C     0.37283   0.63283   0.41488   0.00000  Uiso   1.00
C402   C     0.66490   0.61935   0.42229   0.00000  Uiso   1.00
C403   C     0.65666   0.58098   0.44815   0.00000  Uiso   1.00
C404   C     0.35633   0.55591   0.46644   0.00000  Uiso   1.00
H405   H     0.43777   0.61868   0.42732   0.00000  Uiso   1.00
H406   H     0.37915   0.66269   0.39506   0.00000  Uiso   1.00
H407   H     0.63933   0.63872   0.40814   0.00000  Uiso   1.00
H408   H     0.62471   0.57069   0.45405   0.00000  Uiso   1.00
H409   H     0.34963   0.52621   0.48631   0.00000  Uiso   1.00
C410   C     0.61964   0.47997   0.04246   0.00000  Uiso   1.00
C411   C     0.63271   0.51240   0.07436   0.00000  Uiso   1.00
C412   C     0.33853   0.50864   0.09525   0.00000  Uiso   1.00
C413   C     0.36512   0.47292   0.08409   0.00000  Uiso   1.00
C414   C     0.35288   0.44123   0.05161   0.00000  Uiso   1.00
C415   C     0.64703   0.44469   0.03078   0.00000  Uiso   1.00
H416   H     0.61240   0.54023   0.08337   0.00000  Uiso   1.00
H417   H     0.34821   0.53333   0.12021   0.00000  Uiso   1.00
H418   H     0.39522   0.46978   0.10058   0.00000  Uiso   1.00
H419   H     0.37365   0.41375   0.04282   0.00000  Uiso   1.00
H420   H     0.63773   0.41942   0.00620   0.00000  Uiso   1.00
O421   O     0.77226   0.53821   0.24999   0.00000  Uiso   1.00
O422   O     0.89441   0.46179   0.25000   0.00000  Uiso   1.00
O423   O     0.89441   0.53821   0.25000   0.00000  Uiso   1.00
O424   O     0.77226   0.46179   0.24999   0.00000  Uiso   1.00
C425   C     0.75332   0.49999   0.24986   0.00000  Uiso   1.00
C426   C     0.91335   0.50002   0.24989   0.00000  Uiso   1.00
O427   O     0.83333   0.53823   0.18392   0.00000  Uiso   1.00
O428   O     0.83334   0.46177   0.31607   0.00000  Uiso   1.00
O429   O     0.83334   0.53823   0.31607   0.00000  Uiso   1.00
O430   O     0.83333   0.46177   0.18392   0.00000  Uiso   1.00
C431   C     0.83451   0.49991   0.16344   0.00000  Uiso   1.00
C432   C     0.83318   0.50011   0.33643   0.00000  Uiso   1.00
Zn433  Zn    0.83333   0.55104   0.25000   0.00000  Uiso   1.00
Zn434  Zn    0.83333   0.44896   0.25000   0.00000  Uiso   1.00
C435   C     0.86970   0.49221   0.40619   0.00000  Uiso   1.00
C436   C     0.80431   0.52333   0.09355   0.00000  Uiso   1.00
C437   C     0.83235   0.50089   0.38412   0.00000  Uiso   1.00
C438   C     0.83620   0.50038   0.11553   0.00000  Uiso   1.00
C439   C     0.79589   0.51381   0.40675   0.00000  Uiso   1.00
C440   C     0.86982   0.48083   0.09225   0.00000  Uiso   1.00
C441   C     0.79878   0.52230   0.45348   0.00000  Uiso   1.00
C442   C     0.87355   0.49051   0.04597   0.00000  Uiso   1.00
C443   C     0.83610   0.50871   0.47631   0.00000  Uiso   1.00
C444   C     0.83785   0.50825   0.02319   0.00000  Uiso   1.00
C445   C     0.87148   0.49439   0.45234   0.00000  Uiso   1.00
C446   C     0.80346   0.52465   0.04735   0.00000  Uiso   1.00
C447   C     0.76620   0.54283   0.47869   0.00000  Uiso   1.00
C448   C     0.91081   0.48304   0.02127   0.00000  Uiso   1.00
C449   C     0.76895   0.54317   0.02537   0.00000  Uiso   1.00
C450   C     0.90878   0.48387   0.47450   0.00000  Uiso   1.00
H451   H     0.89721   0.48289   0.38717   0.00000  Uiso   1.00
H452   H     0.77884   0.53794   0.11262   0.00000  Uiso   1.00
H453   H     0.74398   0.55830   0.04475   0.00000  Uiso   1.00
H454   H     0.93669   0.47711   0.45518   0.00000  Uiso   1.00
C455   C     0.68788   0.46235   0.23263   0.00000  Uiso   1.00
C456   C     0.97880   0.53783   0.26653   0.00000  Uiso   1.00
C457   C     0.97841   0.46239   0.23259   0.00000  Uiso   1.00
C458   C     0.68825   0.53778   0.26661   0.00000  Uiso   1.00
H459   H     0.70423   0.43331   0.21904   0.00000  Uiso   1.00
H460   H     0.96248   0.56690   0.28013   0.00000  Uiso   1.00
H461   H     0.96178   0.43336   0.21898   0.00000  Uiso   1.00
H462   H     0.70487   0.56680   0.28027   0.00000  Uiso   1.00
C463   C     0.95748   0.50009   0.24963   0.00000  Uiso   1.00
C464   C     0.70920   0.50002   0.24971   0.00000  Uiso   1.00
C465   C     0.85988   0.35743   0.27751   0.00000  Uiso   1.00
C466   C     0.80680   0.64257   0.22247   0.00000  Uiso   1.00
C467   C     0.80680   0.35720   0.22247   0.00000  Uiso   1.00
C468   C     0.85988   0.64280   0.27752   0.00000  Uiso   1.00
H469   H     0.88110   0.37570   0.29951   0.00000  Uiso   1.00
H470   H     0.78558   0.62430   0.20047   0.00000  Uiso   1.00
H471   H     0.78559   0.37528   0.20046   0.00000  Uiso   1.00
H472   H     0.88110   0.62472   0.29951   0.00000  Uiso   1.00
N473   N     0.83333   0.61907   0.25000   0.00000  Uiso   1.00
N474   N     0.83333   0.38093   0.25000   0.00000  Uiso   1.00
C475   C     0.75442   0.51237   0.38151   0.00000  Uiso   1.00
H476   H     0.75509   0.48758   0.35341   0.00000  Uiso   1.00
H477   H     0.72897   0.50021   0.40343   0.00000  Uiso   1.00
H478   H     0.74697   0.54604   0.36716   0.00000  Uiso   1.00
C479   C     0.89790   0.44698   0.11618   0.00000  Uiso   1.00
H480   H     0.87877   0.42152   0.13395   0.00000  Uiso   1.00
H481   H     0.91653   0.42613   0.09290   0.00000  Uiso   1.00
H482   H     0.91863   0.46458   0.14073   0.00000  Uiso   1.00
C483   C     0.73123   0.56881   0.45851   0.00000  Uiso   1.00
C484   C     0.73927   0.60784   0.43313   0.00000  Uiso   1.00
C485   C     0.70616   0.63283   0.41488   0.00000  Uiso   1.00
C486   C     0.99824   0.61935   0.42229   0.00000  Uiso   1.00
C487   C     0.98999   0.58098   0.44815   0.00000  Uiso   1.00
C488   C     0.68966   0.55591   0.46644   0.00000  Uiso   1.00
H489   H     0.77110   0.61868   0.42732   0.00000  Uiso   1.00
H490   H     0.71248   0.66269   0.39506   0.00000  Uiso   1.00
H491   H     0.97266   0.63872   0.40814   0.00000  Uiso   1.00
H492   H     0.95804   0.57069   0.45405   0.00000  Uiso   1.00
H493   H     0.68296   0.52621   0.48631   0.00000  Uiso   1.00
C494   C     0.95297   0.47997   0.04246   0.00000  Uiso   1.00
C495   C     0.96605   0.51240   0.07436   0.00000  Uiso   1.00
C496   C     0.67186   0.50864   0.09525   0.00000  Uiso   1.00
C497   C     0.69845   0.47292   0.08409   0.00000  Uiso   1.00
C498   C     0.68622   0.44123   0.05161   0.00000  Uiso   1.00
C499   C     0.98037   0.44469   0.03078   0.00000  Uiso   1.00
H500   H     0.94574   0.54023   0.08337   0.00000  Uiso   1.00
H501   H     0.68154   0.53333   0.12021   0.00000  Uiso   1.00
H502   H     0.72855   0.46978   0.10058   0.00000  Uiso   1.00
H503   H     0.70698   0.41375   0.04282   0.00000  Uiso   1.00
H504   H     0.97107   0.41942   0.00620   0.00000  Uiso   1.00
O505   O     0.10559   0.87154   0.24999   0.00000  Uiso   1.00
O506   O     0.22774   0.79513   0.25000   0.00000  Uiso   1.00
O507   O     0.22774   0.87154   0.25000   0.00000  Uiso   1.00
O508   O     0.10559   0.79513   0.24999   0.00000  Uiso   1.00
C509   C     0.08666   0.83332   0.24986   0.00000  Uiso   1.00
C510   C     0.24668   0.83336   0.24989   0.00000  Uiso   1.00
O511   O     0.16666   0.87156   0.18392   0.00000  Uiso   1.00
O512   O     0.16667   0.79511   0.31607   0.00000  Uiso   1.00
O513   O     0.16667   0.87156   0.31607   0.00000  Uiso   1.00
O514   O     0.16666   0.79511   0.18392   0.00000  Uiso   1.00
C515   C     0.16784   0.83324   0.16344   0.00000  Uiso   1.00
C516   C     0.16651   0.83344   0.33643   0.00000  Uiso   1.00
Zn517  Zn    0.16667   0.88437   0.25000   0.00000  Uiso   1.00
Zn518  Zn    0.16667   0.78229   0.25000   0.00000  Uiso   1.00
C519   C     0.20303   0.82555   0.40619   0.00000  Uiso   1.00
C520   C     0.13764   0.85667   0.09355   0.00000  Uiso   1.00
C521   C     0.16568   0.83423   0.38412   0.00000  Uiso   1.00
C522   C     0.16953   0.83372   0.11553   0.00000  Uiso   1.00
C523   C     0.12922   0.84714   0.40675   0.00000  Uiso   1.00
C524   C     0.20316   0.81416   0.09225   0.00000  Uiso   1.00
C525   C     0.13211   0.85563   0.45348   0.00000  Uiso   1.00
C526   C     0.20689   0.82385   0.04597   0.00000  Uiso   1.00
C527   C     0.16944   0.84204   0.47631   0.00000  Uiso   1.00
C528   C     0.17118   0.84159   0.02319   0.00000  Uiso   1.00
C529   C     0.20481   0.82772   0.45234   0.00000  Uiso   1.00
C530   C     0.13679   0.85798   0.04735   0.00000  Uiso   1.00
C531   C     0.09953   0.87616   0.47869   0.00000  Uiso   1.00
C532   C     0.24414   0.81638   0.02127   0.00000  Uiso   1.00
C533   C     0.10228   0.87650   0.02537   0.00000  Uiso   1.00
C534   C     0.24211   0.81721   0.47450   0.00000  Uiso   1.00
H535   H     0.23055   0.81623   0.38717   0.00000  Uiso   1.00
H536   H     0.11217   0.87127   0.11262   0.00000  Uiso   1.00
H537   H     0.07731   0.89163   0.04475   0.00000  Uiso   1.00
H538   H     0.27003   0.81045   0.45518   0.00000  Uiso   1.00
C539   C     0.02122   0.79569   0.23263   0.00000  Uiso   1.00
C540   C     0.31213   0.87116   0.26653   0.00000  Uiso   1.00
C541   C     0.31175   0.79572   0.23259   0.00000  Uiso   1.00
C542   C     0.02158   0.87111   0.26661   0.00000  Uiso   1.00
H543   H     0.03756   0.76664   0.21904   0.00000  Uiso   1.00
H544   H     0.29581   0.90023   0.28013   0.00000  Uiso   1.00
H545   H     0.29511   0.76669   0.21898   0.00000  Uiso   1.00
H546   H     0.03820   0.90014   0.28027   0.00000  Uiso   1.00
C547   C     0.29081   0.83342   0.24963   0.00000  Uiso   1.00
C548   C     0.04253   0.83335   0.24971   0.00000  Uiso   1.00
C549   C     0.19321   0.69077   0.27751   0.00000  Uiso   1.00
C550   C     0.14013   0.97590   0.22247   0.00000  Uiso   1.00
C551   C     0.14013   0.69053   0.22247   0.00000  Uiso   1.00
C552   C     0.19321   0.97614   0.27752   0.00000  Uiso   1.00
H553   H     0.21444   0.70903   0.29951   0.00000  Uiso   1.00
H554   H     0.11892   0.95763   0.20047   0.00000  Uiso   1.00
H555   H     0.11892   0.70862   0.20046   0.00000  Uiso   1.00
H556   H     0.21443   0.95806   0.29951   0.00000  Uiso   1.00
N557   N     0.16667   0.95240   0.25000   0.00000  Uiso   1.00
N558   N     0.16667   0.71427   0.25000   0.00000  Uiso   1.00
C559   C     0.08776   0.84570   0.38151   0.00000  Uiso   1.00
H560   H     0.08843   0.82091   0.35341   0.00000  Uiso   1.00
H561   H     0.06231   0.83355   0.40343   0.00000  Uiso   1.00
H562   H     0.08030   0.87938   0.36716   0.00000  Uiso   1.00
C563   C     0.23123   0.78031   0.11618   0.00000  Uiso   1.00
H564   H     0.21210   0.75485   0.13395   0.00000  Uiso   1.00
H565   H     0.24987   0.75946   0.09290   0.00000  Uiso   1.00
H566   H     0.25196   0.79792   0.14073   0.00000  Uiso   1.00
C567   C     0.06456   0.90214   0.45851   0.00000  Uiso   1.00
C568   C     0.07260   0.94117   0.43313   0.00000  Uiso   1.00
C569   C     0.03949   0.96616   0.41488   0.00000  Uiso   1.00
C570   C     0.33157   0.95268   0.42229   0.00000  Uiso   1.00
C571   C     0.32333   0.91431   0.44815   0.00000  Uiso   1.00
C572   C     0.02300   0.88925   0.46644   0.00000  Uiso   1.00
H573   H     0.10444   0.95201   0.42732   0.00000  Uiso   1.00
H574   H     0.04582   0.99602   0.39506   0.00000  Uiso   1.00
H575   H     0.30599   0.97206   0.40814   0.00000  Uiso   1.00
H576   H     0.29138   0.90403   0.45405   0.00000  Uiso   1.00
H577   H     0.01630   0.85955   0.48631   0.00000  Uiso   1.00
C578   C     0.28631   0.81331   0.04246   0.00000  Uiso   1.00
C579   C     0.29938   0.84573   0.07436   0.00000  Uiso   1.00
C580   C     0.00519   0.84197   0.09525   0.00000  Uiso   1.00
C581   C     0.03178   0.80625   0.08409   0.00000  Uiso   1.00
C582   C     0.01955   0.77457   0.05161   0.00000  Uiso   1.00
C583   C     0.31370   0.77803   0.03078   0.00000  Uiso   1.00
H584   H     0.27907   0.87356   0.08337   0.00000  Uiso   1.00
H585   H     0.01487   0.86667   0.12021   0.00000  Uiso   1.00
H586   H     0.06189   0.80312   0.10058   0.00000  Uiso   1.00
H587   H     0.04031   0.74709   0.04282   0.00000  Uiso   1.00
H588   H     0.30440   0.75276   0.00620   0.00000  Uiso   1.00
O589   O     0.43892   0.87154   0.24999   0.00000  Uiso   1.00
O590   O     0.56108   0.79513   0.25000   0.00000  Uiso   1.00
O591   O     0.56108   0.87154   0.25000   0.00000  Uiso   1.00
O592   O     0.43892   0.79513   0.24999   0.00000  Uiso   1.00
C593   C     0.41999   0.83332   0.24986   0.00000  Uiso   1.00
C594   C     0.58001   0.83336   0.24989   0.00000  Uiso   1.00
O595   O     0.49999   0.87156   0.18392   0.00000  Uiso   1.00
O596   O     0.50001   0.79511   0.31607   0.00000  Uiso   1.00
O597   O     0.50001   0.87156   0.31607   0.00000  Uiso   1.00
O598   O     0.49999   0.79511   0.18392   0.00000  Uiso   1.00
C599   C     0.50118   0.83324   0.16344   0.00000  Uiso   1.00
C600   C     0.49985   0.83344   0.33643   0.00000  Uiso   1.00
Zn601  Zn    0.50000   0.88437   0.25000   0.00000  Uiso   1.00
Zn602  Zn    0.50000   0.78229   0.25000   0.00000  Uiso   1.00
C603   C     0.53636   0.82555   0.40619   0.00000  Uiso   1.00
C604   C     0.47098   0.85667   0.09355   0.00000  Uiso   1.00
C605   C     0.49902   0.83423   0.38412   0.00000  Uiso   1.00
C606   C     0.50287   0.83372   0.11553   0.00000  Uiso   1.00
C607   C     0.46256   0.84714   0.40675   0.00000  Uiso   1.00
C608   C     0.53649   0.81416   0.09225   0.00000  Uiso   1.00
C609   C     0.46544   0.85563   0.45348   0.00000  Uiso   1.00
C610   C     0.54022   0.82385   0.04597   0.00000  Uiso   1.00
C611   C     0.50277   0.84204   0.47631   0.00000  Uiso   1.00
C612   C     0.50452   0.84159   0.02319   0.00000  Uiso   1.00
C613   C     0.53815   0.82772   0.45234   0.00000  Uiso   1.00
C614   C     0.47012   0.85798   0.04735   0.00000  Uiso   1.00
C615   C     0.43286   0.87616   0.47869   0.00000  Uiso   1.00
C616   C     0.57747   0.81638   0.02127   0.00000  Uiso   1.00
C617   C     0.43561   0.87650   0.02537   0.00000  Uiso   1.00
C618   C     0.57544   0.81721   0.47450   0.00000  Uiso   1.00
H619   H     0.56388   0.81623   0.38717   0.00000  Uiso   1.00
H620   H     0.44550   0.87127   0.11262   0.00000  Uiso   1.00
H621   H     0.41065   0.89163   0.04475   0.00000  Uiso   1.00
H622   H     0.60336   0.81045   0.45518   0.00000  Uiso   1.00
C623   C     0.35455   0.79569   0.23263   0.00000  Uiso   1.00
C624   C     0.64547   0.87116   0.26653   0.00000  Uiso   1.00
C625   C     0.64508   0.79572   0.23259   0.00000  Uiso   1.00
C626   C     0.35492   0.87111   0.26661   0.00000  Uiso   1.00
H627   H     0.37089   0.76664   0.21904   0.00000  Uiso   1.00
H628   H     0.62915   0.90023   0.28013   0.00000  Uiso   1.00
H629   H     0.62844   0.76669   0.21898   0.00000  Uiso   1.00
H630   H     0.37154   0.90014   0.28027   0.00000  Uiso   1.00
C631   C     0.62414   0.83342   0.24963   0.00000  Uiso   1.00
C632   C     0.37586   0.83335   0.24971   0.00000  Uiso   1.00
C633   C     0.52655   0.69077   0.27751   0.00000  Uiso   1.00
C634   C     0.47346   0.97590   0.22247   0.00000  Uiso   1.00
C635   C     0.47347   0.69053   0.22247   0.00000  Uiso   1.00
C636   C     0.52654   0.97614   0.27752   0.00000  Uiso   1.00
H637   H     0.54777   0.70903   0.29951   0.00000  Uiso   1.00
H638   H     0.45225   0.95763   0.20047   0.00000  Uiso   1.00
H639   H     0.45225   0.70862   0.20046   0.00000  Uiso   1.00
H640   H     0.54777   0.95806   0.29951   0.00000  Uiso   1.00
N641   N     0.50000   0.95240   0.25000   0.00000  Uiso   1.00
N642   N     0.50000   0.71427   0.25000   0.00000  Uiso   1.00
C643   C     0.42109   0.84570   0.38151   0.00000  Uiso   1.00
H644   H     0.42176   0.82091   0.35341   0.00000  Uiso   1.00
H645   H     0.39564   0.83355   0.40343   0.00000  Uiso   1.00
H646   H     0.41363   0.87938   0.36716   0.00000  Uiso   1.00
C647   C     0.56457   0.78031   0.11618   0.00000  Uiso   1.00
H648   H     0.54544   0.75485   0.13395   0.00000  Uiso   1.00
H649   H     0.58320   0.75946   0.09290   0.00000  Uiso   1.00
H650   H     0.58530   0.79792   0.14073   0.00000  Uiso   1.00
C651   C     0.39789   0.90214   0.45851   0.00000  Uiso   1.00
C652   C     0.40593   0.94117   0.43313   0.00000  Uiso   1.00
C653   C     0.37283   0.96616   0.41488   0.00000  Uiso   1.00
C654   C     0.66490   0.95268   0.42229   0.00000  Uiso   1.00
C655   C     0.65666   0.91431   0.44815   0.00000  Uiso   1.00
C656   C     0.35633   0.88925   0.46644   0.00000  Uiso   1.00
H657   H     0.43777   0.95201   0.42732   0.00000  Uiso   1.00
H658   H     0.37915   0.99602   0.39506   0.00000  Uiso   1.00
H659   H     0.63933   0.97206   0.40814   0.00000  Uiso   1.00
H660   H     0.62471   0.90403   0.45405   0.00000  Uiso   1.00
H661   H     0.34963   0.85955   0.48631   0.00000  Uiso   1.00
C662   C     0.61964   0.81331   0.04246   0.00000  Uiso   1.00
C663   C     0.63271   0.84573   0.07436   0.00000  Uiso   1.00
C664   C     0.33853   0.84197   0.09525   0.00000  Uiso   1.00
C665   C     0.36512   0.80625   0.08409   0.00000  Uiso   1.00
C666   C     0.35288   0.77457   0.05161   0.00000  Uiso   1.00
C667   C     0.64703   0.77803   0.03078   0.00000  Uiso   1.00
H668   H     0.61240   0.87356   0.08337   0.00000  Uiso   1.00
H669   H     0.34821   0.86667   0.12021   0.00000  Uiso   1.00
H670   H     0.39522   0.80312   0.10058   0.00000  Uiso   1.00
H671   H     0.37365   0.74709   0.04282   0.00000  Uiso   1.00
H672   H     0.63773   0.75276   0.00620   0.00000  Uiso   1.00
O673   O     0.77226   0.87154   0.24999   0.00000  Uiso   1.00
O674   O     0.89441   0.79513   0.25000   0.00000  Uiso   1.00
O675   O     0.89441   0.87154   0.25000   0.00000  Uiso   1.00
O676   O     0.77226   0.79513   0.24999   0.00000  Uiso   1.00
C677   C     0.75332   0.83332   0.24986   0.00000  Uiso   1.00
C678   C     0.91335   0.83336   0.24989   0.00000  Uiso   1.00
O679   O     0.83333   0.87156   0.18392   0.00000  Uiso   1.00
O680   O     0.83334   0.79511   0.31607   0.00000  Uiso   1.00
O681   O     0.83334   0.87156   0.31607   0.00000  Uiso   1.00
O682   O     0.83333   0.79511   0.18392   0.00000  Uiso   1.00
C683   C     0.83451   0.83324   0.16344   0.00000  Uiso   1.00
C684   C     0.83318   0.83344   0.33643   0.00000  Uiso   1.00
Zn685  Zn    0.83333   0.88437   0.25000   0.00000  Uiso   1.00
Zn686  Zn    0.83333   0.78229   0.25000   0.00000  Uiso   1.00
C687   C     0.86970   0.82555   0.40619   0.00000  Uiso   1.00
C688   C     0.80431   0.85667   0.09355   0.00000  Uiso   1.00
C689   C     0.83235   0.83423   0.38412   0.00000  Uiso   1.00
C690   C     0.83620   0.83372   0.11553   0.00000  Uiso   1.00
C691   C     0.79589   0.84714   0.40675   0.00000  Uiso   1.00
C692   C     0.86982   0.81416   0.09225   0.00000  Uiso   1.00
C693   C     0.79878   0.85563   0.45348   0.00000  Uiso   1.00
C694   C     0.87355   0.82385   0.04597   0.00000  Uiso   1.00
C695   C     0.83610   0.84204   0.47631   0.00000  Uiso   1.00
C696   C     0.83785   0.84159   0.02319   0.00000  Uiso   1.00
C697   C     0.87148   0.82772   0.45234   0.00000  Uiso   1.00
C698   C     0.80346   0.85798   0.04735   0.00000  Uiso   1.00
C699   C     0.76620   0.87616   0.47869   0.00000  Uiso   1.00
C700   C     0.91081   0.81638   0.02127   0.00000  Uiso   1.00
C701   C     0.76895   0.87650   0.02537   0.00000  Uiso   1.00
C702   C     0.90878   0.81721   0.47450   0.00000  Uiso   1.00
H703   H     0.89721   0.81623   0.38717   0.00000  Uiso   1.00
H704   H     0.77884   0.87127   0.11262   0.00000  Uiso   1.00
H705   H     0.74398   0.89163   0.04475   0.00000  Uiso   1.00
H706   H     0.93669   0.81045   0.45518   0.00000  Uiso   1.00
C707   C     0.68788   0.79569   0.23263   0.00000  Uiso   1.00
C708   C     0.97880   0.87116   0.26653   0.00000  Uiso   1.00
C709   C     0.97841   0.79572   0.23259   0.00000  Uiso   1.00
C710   C     0.68825   0.87111   0.26661   0.00000  Uiso   1.00
H711   H     0.70423   0.76664   0.21904   0.00000  Uiso   1.00
H712   H     0.96248   0.90023   0.28013   0.00000  Uiso   1.00
H713   H     0.96178   0.76669   0.21898   0.00000  Uiso   1.00
H714   H     0.70487   0.90014   0.28027   0.00000  Uiso   1.00
C715   C     0.95748   0.83342   0.24963   0.00000  Uiso   1.00
C716   C     0.70920   0.83335   0.24971   0.00000  Uiso   1.00
C717   C     0.85988   0.69077   0.27751   0.00000  Uiso   1.00
C718   C     0.80680   0.97590   0.22247   0.00000  Uiso   1.00
C719   C     0.80680   0.69053   0.22247   0.00000  Uiso   1.00
C720   C     0.85988   0.97614   0.27752   0.00000  Uiso   1.00
H721   H     0.88110   0.70903   0.29951   0.00000  Uiso   1.00
H722   H     0.78558   0.95763   0.20047   0.00000  Uiso   1.00
H723   H     0.78559   0.70862   0.20046   0.00000  Uiso   1.00
H724   H     0.88110   0.95806   0.29951   0.00000  Uiso   1.00
N725   N     0.83333   0.95240   0.25000   0.00000  Uiso   1.00
N726   N     0.83333   0.71427   0.25000   0.00000  Uiso   1.00
C727   C     0.75442   0.84570   0.38151   0.00000  Uiso   1.00
H728   H     0.75509   0.82091   0.35341   0.00000  Uiso   1.00
H729   H     0.72897   0.83355   0.40343   0.00000  Uiso   1.00
H730   H     0.74697   0.87938   0.36716   0.00000  Uiso   1.00
C731   C     0.89790   0.78031   0.11618   0.00000  Uiso   1.00
H732   H     0.87877   0.75485   0.13395   0.00000  Uiso   1.00
H733   H     0.91653   0.75946   0.09290   0.00000  Uiso   1.00
H734   H     0.91863   0.79792   0.14073   0.00000  Uiso   1.00
C735   C     0.73123   0.90214   0.45851   0.00000  Uiso   1.00
C736   C     0.73927   0.94117   0.43313   0.00000  Uiso   1.00
C737   C     0.70616   0.96616   0.41488   0.00000  Uiso   1.00
C738   C     0.99824   0.95268   0.42229   0.00000  Uiso   1.00
C739   C     0.98999   0.91431   0.44815   0.00000  Uiso   1.00
C740   C     0.68966   0.88925   0.46644   0.00000  Uiso   1.00
H741   H     0.77110   0.95201   0.42732   0.00000  Uiso   1.00
H742   H     0.71248   0.99602   0.39506   0.00000  Uiso   1.00
H743   H     0.97266   0.97206   0.40814   0.00000  Uiso   1.00
H744   H     0.95804   0.90403   0.45405   0.00000  Uiso   1.00
H745   H     0.68296   0.85955   0.48631   0.00000  Uiso   1.00
C746   C     0.95297   0.81331   0.04246   0.00000  Uiso   1.00
C747   C     0.96605   0.84573   0.07436   0.00000  Uiso   1.00
C748   C     0.67186   0.84197   0.09525   0.00000  Uiso   1.00
C749   C     0.69845   0.80625   0.08409   0.00000  Uiso   1.00
C750   C     0.68622   0.77457   0.05161   0.00000  Uiso   1.00
C751   C     0.98037   0.77803   0.03078   0.00000  Uiso   1.00
H752   H     0.94574   0.87356   0.08337   0.00000  Uiso   1.00
H753   H     0.68154   0.86667   0.12021   0.00000  Uiso   1.00
H754   H     0.72855   0.80312   0.10058   0.00000  Uiso   1.00
H755   H     0.70698   0.74709   0.04282   0.00000  Uiso   1.00
H756   H     0.97107   0.75276   0.00620   0.00000  Uiso   1.00
O757   O     0.10559   0.20487   0.74999   0.00000  Uiso   1.00
O758   O     0.22774   0.12846   0.75000   0.00000  Uiso   1.00
O759   O     0.22774   0.20487   0.75000   0.00000  Uiso   1.00
O760   O     0.10559   0.12846   0.74999   0.00000  Uiso   1.00
C761   C     0.08666   0.16666   0.74986   0.00000  Uiso   1.00
C762   C     0.24668   0.16669   0.74989   0.00000  Uiso   1.00
O763   O     0.16666   0.20489   0.68392   0.00000  Uiso   1.00
O764   O     0.16667   0.12844   0.81607   0.00000  Uiso   1.00
O765   O     0.16667   0.20489   0.81607   0.00000  Uiso   1.00
O766   O     0.16666   0.12844   0.68392   0.00000  Uiso   1.00
C767   C     0.16784   0.16658   0.66344   0.00000  Uiso   1.00
C768   C     0.16651   0.16678   0.83643   0.00000  Uiso   1.00
Zn769  Zn    0.16667   0.21771   0.75000   0.00000  Uiso   1.00
Zn770  Zn    0.16667   0.11563   0.75000   0.00000  Uiso   1.00
C771   C     0.20303   0.15888   0.90619   0.00000  Uiso   1.00
C772   C     0.13764   0.19000   0.59355   0.00000  Uiso   1.00
C773   C     0.16568   0.16756   0.88412   0.00000  Uiso   1.00
C774   C     0.16953   0.16705   0.61553   0.00000  Uiso   1.00
C775   C     0.12922   0.18048   0.90675   0.00000  Uiso   1.00
C776   C     0.20316   0.14749   0.59225   0.00000  Uiso   1.00
C777   C     0.13211   0.18896   0.95348   0.00000  Uiso   1.00
C778   C     0.20689   0.15718   0.54597   0.00000  Uiso   1.00
C779   C     0.16944   0.17537   0.97631   0.00000  Uiso   1.00
C780   C     0.17118   0.17492   0.52319   0.00000  Uiso   1.00
C781   C     0.20481   0.16105   0.95234   0.00000  Uiso   1.00
C782   C     0.13679   0.19132   0.54735   0.00000  Uiso   1.00
C783   C     0.09953   0.20949   0.97869   0.00000  Uiso   1.00
C784   C     0.24414   0.14971   0.52127   0.00000  Uiso   1.00
C785   C     0.10228   0.20983   0.52537   0.00000  Uiso   1.00
C786   C     0.24211   0.15054   0.97450   0.00000  Uiso   1.00
H787   H     0.23055   0.14956   0.88717   0.00000  Uiso   1.00
H788   H     0.11217   0.20461   0.61262   0.00000  Uiso   1.00
H789   H     0.07731   0.22496   0.54475   0.00000  Uiso   1.00
H790   H     0.27003   0.14378   0.95518   0.00000  Uiso   1.00
C791   C     0.02122   0.12902   0.73263   0.00000  Uiso   1.00
C792   C     0.31213   0.20449   0.76653   0.00000  Uiso   1.00
C793   C     0.31175   0.12906   0.73259   0.00000  Uiso   1.00
C794   C     0.02158   0.20444   0.76661   0.00000  Uiso   1.00
H795   H     0.03756   0.09997   0.71904   0.00000  Uiso   1.00
H796   H     0.29581   0.23356   0.78013   0.00000  Uiso   1.00
H797   H     0.29511   0.10002   0.71898   0.00000  Uiso   1.00
H798   H     0.03820   0.23347   0.78027   0.00000  Uiso   1.00
C799   C     0.29081   0.16676   0.74963   0.00000  Uiso   1.00
C800   C     0.04253   0.16668   0.74971   0.00000  Uiso   1.00
C801   C     0.19321   0.02410   0.77751   0.00000  Uiso   1.00
C802   C     0.14013   0.30923   0.72247   0.00000  Uiso   1.00
C803   C     0.14013   0.02387   0.72247   0.00000  Uiso   1.00
C804   C     0.19321   0.30947   0.77752   0.00000  Uiso   1.00
H805   H     0.21444   0.04237   0.79951   0.00000  Uiso   1.00
H806   H     0.11892   0.29096   0.70047   0.00000  Uiso   1.00
H807   H     0.11892   0.04195   0.70046   0.00000  Uiso   1.00
H808   H     0.21443   0.29139   0.79951   0.00000  Uiso   1.00
N809   N     0.16667   0.28573   0.75000   0.00000  Uiso   1.00
N810   N     0.16667   0.04760   0.75000   0.00000  Uiso   1.00
C811   C     0.08776   0.17903   0.88151   0.00000  Uiso   1.00
H812   H     0.08843   0.15424   0.85341   0.00000  Uiso   1.00
H813   H     0.06231   0.16688   0.90343   0.00000  Uiso   1.00
H814   H     0.08030   0.21271   0.86716   0.00000  Uiso   1.00
C815   C     0.23123   0.11365   0.61618   0.00000  Uiso   1.00
H816   H     0.21210   0.08818   0.63395   0.00000  Uiso   1.00
H817   H     0.24987   0.09280   0.59290   0.00000  Uiso   1.00
H818   H     0.25196   0.13125   0.64073   0.00000  Uiso   1.00
C819   C     0.06456   0.23548   0.95851   0.00000  Uiso   1.00
C820   C     0.07260   0.27451   0.93313   0.00000  Uiso   1.00
C821   C     0.03949   0.29950   0.91488   0.00000  Uiso   1.00
C822   C     0.33157   0.28601   0.92229   0.00000  Uiso   1.00
C823   C     0.32333   0.24764   0.94815   0.00000  Uiso   1.00
C824   C     0.02300   0.22258   0.96644   0.00000  Uiso   1.00
H825   H     0.10444   0.28535   0.92732   0.00000  Uiso   1.00
H826   H     0.04582   0.32935   0.89506   0.00000  Uiso   1.00
H827   H     0.30599   0.30539   0.90814   0.00000  Uiso   1.00
H828   H     0.29138   0.23736   0.95405   0.00000  Uiso   1.00
H829   H     0.01630   0.19288   0.98631   0.00000  Uiso   1.00
C830   C     0.28631   0.14664   0.54246   0.00000  Uiso   1.00
C831   C     0.29938   0.17906   0.57436   0.00000  Uiso   1.00
C832   C     0.00519   0.17531   0.59525   0.00000  Uiso   1.00
C833   C     0.03178   0.13959   0.58409   0.00000  Uiso   1.00
C834   C     0.01955   0.10790   0.55161   0.00000  Uiso   1.00
C835   C     0.31370   0.11136   0.53078   0.00000  Uiso   1.00
H836   H     0.27907   0.20689   0.58337   0.00000  Uiso   1.00
H837   H     0.01487   0.20000   0.62021   0.00000  Uiso   1.00
H838   H     0.06189   0.13645   0.60058   0.00000  Uiso   1.00
H839   H     0.04031   0.08042   0.54282   0.00000  Uiso   1.00
H840   H     0.30440   0.08609   0.50620   0.00000  Uiso   1.00
O841   O     0.43892   0.20487   0.74999   0.00000  Uiso   1.00
O842   O     0.56108   0.12846   0.75000   0.00000  Uiso   1.00
O843   O     0.56108   0.20487   0.75000   0.00000  Uiso   1.00
O844   O     0.43892   0.12846   0.74999   0.00000  Uiso   1.00
C845   C     0.41999   0.16666   0.74986   0.00000  Uiso   1.00
C846   C     0.58001   0.16669   0.74989   0.00000  Uiso   1.00
O847   O     0.49999   0.20489   0.68392   0.00000  Uiso   1.00
O848   O     0.50001   0.12844   0.81607   0.00000  Uiso   1.00
O849   O     0.50001   0.20489   0.81607   0.00000  Uiso   1.00
O850   O     0.49999   0.12844   0.68392   0.00000  Uiso   1.00
C851   C     0.50118   0.16658   0.66344   0.00000  Uiso   1.00
C852   C     0.49985   0.16678   0.83643   0.00000  Uiso   1.00
Zn853  Zn    0.50000   0.21771   0.75000   0.00000  Uiso   1.00
Zn854  Zn    0.50000   0.11563   0.75000   0.00000  Uiso   1.00
C855   C     0.53636   0.15888   0.90619   0.00000  Uiso   1.00
C856   C     0.47098   0.19000   0.59355   0.00000  Uiso   1.00
C857   C     0.49902   0.16756   0.88412   0.00000  Uiso   1.00
C858   C     0.50287   0.16705   0.61553   0.00000  Uiso   1.00
C859   C     0.46256   0.18048   0.90675   0.00000  Uiso   1.00
C860   C     0.53649   0.14749   0.59225   0.00000  Uiso   1.00
C861   C     0.46544   0.18896   0.95348   0.00000  Uiso   1.00
C862   C     0.54022   0.15718   0.54597   0.00000  Uiso   1.00
C863   C     0.50277   0.17537   0.97631   0.00000  Uiso   1.00
C864   C     0.50452   0.17492   0.52319   0.00000  Uiso   1.00
C865   C     0.53815   0.16105   0.95234   0.00000  Uiso   1.00
C866   C     0.47012   0.19132   0.54735   0.00000  Uiso   1.00
C867   C     0.43286   0.20949   0.97869   0.00000  Uiso   1.00
C868   C     0.57747   0.14971   0.52127   0.00000  Uiso   1.00
C869   C     0.43561   0.20983   0.52537   0.00000  Uiso   1.00
C870   C     0.57544   0.15054   0.97450   0.00000  Uiso   1.00
H871   H     0.56388   0.14956   0.88717   0.00000  Uiso   1.00
H872   H     0.44550   0.20461   0.61262   0.00000  Uiso   1.00
H873   H     0.41065   0.22496   0.54475   0.00000  Uiso   1.00
H874   H     0.60336   0.14378   0.95518   0.00000  Uiso   1.00
C875   C     0.35455   0.12902   0.73263   0.00000  Uiso   1.00
C876   C     0.64547   0.20449   0.76653   0.00000  Uiso   1.00
C877   C     0.64508   0.12906   0.73259   0.00000  Uiso   1.00
C878   C     0.35492   0.20444   0.76661   0.00000  Uiso   1.00
H879   H     0.37089   0.09997   0.71904   0.00000  Uiso   1.00
H880   H     0.62915   0.23356   0.78013   0.00000  Uiso   1.00
H881   H     0.62844   0.10002   0.71898   0.00000  Uiso   1.00
H882   H     0.37154   0.23347   0.78027   0.00000  Uiso   1.00
C883   C     0.62414   0.16676   0.74963   0.00000  Uiso   1.00
C884   C     0.37586   0.16668   0.74971   0.00000  Uiso   1.00
C885   C     0.52655   0.02410   0.77751   0.00000  Uiso   1.00
C886   C     0.47346   0.30923   0.72247   0.00000  Uiso   1.00
C887   C     0.47347   0.02387   0.72247   0.00000  Uiso   1.00
C888   C     0.52654   0.30947   0.77752   0.00000  Uiso   1.00
H889   H     0.54777   0.04237   0.79951   0.00000  Uiso   1.00
H890   H     0.45225   0.29096   0.70047   0.00000  Uiso   1.00
H891   H     0.45225   0.04195   0.70046   0.00000  Uiso   1.00
H892   H     0.54777   0.29139   0.79951   0.00000  Uiso   1.00
N893   N     0.50000   0.28573   0.75000   0.00000  Uiso   1.00
N894   N     0.50000   0.04760   0.75000   0.00000  Uiso   1.00
C895   C     0.42109   0.17903   0.88151   0.00000  Uiso   1.00
H896   H     0.42176   0.15424   0.85341   0.00000  Uiso   1.00
H897   H     0.39564   0.16688   0.90343   0.00000  Uiso   1.00
H898   H     0.41363   0.21271   0.86716   0.00000  Uiso   1.00
C899   C     0.56457   0.11365   0.61618   0.00000  Uiso   1.00
H900   H     0.54544   0.08818   0.63395   0.00000  Uiso   1.00
H901   H     0.58320   0.09280   0.59290   0.00000  Uiso   1.00
H902   H     0.58530   0.13125   0.64073   0.00000  Uiso   1.00
C903   C     0.39789   0.23548   0.95851   0.00000  Uiso   1.00
C904   C     0.40593   0.27451   0.93313   0.00000  Uiso   1.00
C905   C     0.37283   0.29950   0.91488   0.00000  Uiso   1.00
C906   C     0.66490   0.28601   0.92229   0.00000  Uiso   1.00
C907   C     0.65666   0.24764   0.94815   0.00000  Uiso   1.00
C908   C     0.35633   0.22258   0.96644   0.00000  Uiso   1.00
H909   H     0.43777   0.28535   0.92732   0.00000  Uiso   1.00
H910   H     0.37915   0.32935   0.89506   0.00000  Uiso   1.00
H911   H     0.63933   0.30539   0.90814   0.00000  Uiso   1.00
H912   H     0.62471   0.23736   0.95405   0.00000  Uiso   1.00
H913   H     0.34963   0.19288   0.98631   0.00000  Uiso   1.00
C914   C     0.61964   0.14664   0.54246   0.00000  Uiso   1.00
C915   C     0.63271   0.17906   0.57436   0.00000  Uiso   1.00
C916   C     0.33853   0.17531   0.59525   0.00000  Uiso   1.00
C917   C     0.36512   0.13959   0.58409   0.00000  Uiso   1.00
C918   C     0.35288   0.10790   0.55161   0.00000  Uiso   1.00
C919   C     0.64703   0.11136   0.53078   0.00000  Uiso   1.00
H920   H     0.61240   0.20689   0.58337   0.00000  Uiso   1.00
H921   H     0.34821   0.20000   0.62021   0.00000  Uiso   1.00
H922   H     0.39522   0.13645   0.60058   0.00000  Uiso   1.00
H923   H     0.37365   0.08042   0.54282   0.00000  Uiso   1.00
H924   H     0.63773   0.08609   0.50620   0.00000  Uiso   1.00
O925   O     0.77226   0.20487   0.74999   0.00000  Uiso   1.00
O926   O     0.89441   0.12846   0.75000   0.00000  Uiso   1.00
O927   O     0.89441   0.20487   0.75000   0.00000  Uiso   1.00
O928   O     0.77226   0.12846   0.74999   0.00000  Uiso   1.00
C929   C     0.75332   0.16666   0.74986   0.00000  Uiso   1.00
C930   C     0.91335   0.16669   0.74989   0.00000  Uiso   1.00
O931   O     0.83333   0.20489   0.68392   0.00000  Uiso   1.00
O932   O     0.83334   0.12844   0.81607   0.00000  Uiso   1.00
O933   O     0.83334   0.20489   0.81607   0.00000  Uiso   1.00
O934   O     0.83333   0.12844   0.68392   0.00000  Uiso   1.00
C935   C     0.83451   0.16658   0.66344   0.00000  Uiso   1.00
C936   C     0.83318   0.16678   0.83643   0.00000  Uiso   1.00
Zn937  Zn    0.83333   0.21771   0.75000   0.00000  Uiso   1.00
Zn938  Zn    0.83333   0.11563   0.75000   0.00000  Uiso   1.00
C939   C     0.86970   0.15888   0.90619   0.00000  Uiso   1.00
C940   C     0.80431   0.19000   0.59355   0.00000  Uiso   1.00
C941   C     0.83235   0.16756   0.88412   0.00000  Uiso   1.00
C942   C     0.83620   0.16705   0.61553   0.00000  Uiso   1.00
C943   C     0.79589   0.18048   0.90675   0.00000  Uiso   1.00
C944   C     0.86982   0.14749   0.59225   0.00000  Uiso   1.00
C945   C     0.79878   0.18896   0.95348   0.00000  Uiso   1.00
C946   C     0.87355   0.15718   0.54597   0.00000  Uiso   1.00
C947   C     0.83610   0.17537   0.97631   0.00000  Uiso   1.00
C948   C     0.83785   0.17492   0.52319   0.00000  Uiso   1.00
C949   C     0.87148   0.16105   0.95234   0.00000  Uiso   1.00
C950   C     0.80346   0.19132   0.54735   0.00000  Uiso   1.00
C951   C     0.76620   0.20949   0.97869   0.00000  Uiso   1.00
C952   C     0.91081   0.14971   0.52127   0.00000  Uiso   1.00
C953   C     0.76895   0.20983   0.52537   0.00000  Uiso   1.00
C954   C     0.90878   0.15054   0.97450   0.00000  Uiso   1.00
H955   H     0.89721   0.14956   0.88717   0.00000  Uiso   1.00
H956   H     0.77884   0.20461   0.61262   0.00000  Uiso   1.00
H957   H     0.74398   0.22496   0.54475   0.00000  Uiso   1.00
H958   H     0.93669   0.14378   0.95518   0.00000  Uiso   1.00
C959   C     0.68788   0.12902   0.73263   0.00000  Uiso   1.00
C960   C     0.97880   0.20449   0.76653   0.00000  Uiso   1.00
C961   C     0.97841   0.12906   0.73259   0.00000  Uiso   1.00
C962   C     0.68825   0.20444   0.76661   0.00000  Uiso   1.00
H963   H     0.70423   0.09997   0.71904   0.00000  Uiso   1.00
H964   H     0.96248   0.23356   0.78013   0.00000  Uiso   1.00
H965   H     0.96178   0.10002   0.71898   0.00000  Uiso   1.00
H966   H     0.70487   0.23347   0.78027   0.00000  Uiso   1.00
C967   C     0.95748   0.16676   0.74963   0.00000  Uiso   1.00
C968   C     0.70920   0.16668   0.74971   0.00000  Uiso   1.00
C969   C     0.85988   0.02410   0.77751   0.00000  Uiso   1.00
C970   C     0.80680   0.30923   0.72247   0.00000  Uiso   1.00
C971   C     0.80680   0.02387   0.72247   0.00000  Uiso   1.00
C972   C     0.85988   0.30947   0.77752   0.00000  Uiso   1.00
H973   H     0.88110   0.04237   0.79951   0.00000  Uiso   1.00
H974   H     0.78558   0.29096   0.70047   0.00000  Uiso   1.00
H975   H     0.78559   0.04195   0.70046   0.00000  Uiso   1.00
H976   H     0.88110   0.29139   0.79951   0.00000  Uiso   1.00
N977   N     0.83333   0.28573   0.75000   0.00000  Uiso   1.00
N978   N     0.83333   0.04760   0.75000   0.00000  Uiso   1.00
C979   C     0.75442   0.17903   0.88151   0.00000  Uiso   1.00
H980   H     0.75509   0.15424   0.85341   0.00000  Uiso   1.00
H981   H     0.72897   0.16688   0.90343   0.00000  Uiso   1.00
H982   H     0.74697   0.21271   0.86716   0.00000  Uiso   1.00
C983   C     0.89790   0.11365   0.61618   0.00000  Uiso   1.00
H984   H     0.87877   0.08818   0.63395   0.00000  Uiso   1.00
H985   H     0.91653   0.09280   0.59290   0.00000  Uiso   1.00
H986   H     0.91863   0.13125   0.64073   0.00000  Uiso   1.00
C987   C     0.73123   0.23548   0.95851   0.00000  Uiso   1.00
C988   C     0.73927   0.27451   0.93313   0.00000  Uiso   1.00
C989   C     0.70616   0.29950   0.91488   0.00000  Uiso   1.00
C990   C     0.99824   0.28601   0.92229   0.00000  Uiso   1.00
C991   C     0.98999   0.24764   0.94815   0.00000  Uiso   1.00
C992   C     0.68966   0.22258   0.96644   0.00000  Uiso   1.00
H993   H     0.77110   0.28535   0.92732   0.00000  Uiso   1.00
H994   H     0.71248   0.32935   0.89506   0.00000  Uiso   1.00
H995   H     0.97266   0.30539   0.90814   0.00000  Uiso   1.00
H996   H     0.95804   0.23736   0.95405   0.00000  Uiso   1.00
H997   H     0.68296   0.19288   0.98631   0.00000  Uiso   1.00
C998   C     0.95297   0.14664   0.54246   0.00000  Uiso   1.00
C999   C     0.96605   0.17906   0.57436   0.00000  Uiso   1.00
C1000  C     0.67186   0.17531   0.59525   0.00000  Uiso   1.00
C1001  C     0.69845   0.13959   0.58409   0.00000  Uiso   1.00
C1002  C     0.68622   0.10790   0.55161   0.00000  Uiso   1.00
C1003  C     0.98037   0.11136   0.53078   0.00000  Uiso   1.00
H1004  H     0.94574   0.20689   0.58337   0.00000  Uiso   1.00
H1005  H     0.68154   0.20000   0.62021   0.00000  Uiso   1.00
H1006  H     0.72855   0.13645   0.60058   0.00000  Uiso   1.00
H1007  H     0.70698   0.08042   0.54282   0.00000  Uiso   1.00
H1008  H     0.97107   0.08609   0.50620   0.00000  Uiso   1.00
O1009  O     0.10559   0.53821   0.74999   0.00000  Uiso   1.00
O1010  O     0.22774   0.46179   0.75000   0.00000  Uiso   1.00
O1011  O     0.22774   0.53821   0.75000   0.00000  Uiso   1.00
O1012  O     0.10559   0.46179   0.74999   0.00000  Uiso   1.00
C1013  C     0.08666   0.49999   0.74986   0.00000  Uiso   1.00
C1014  C     0.24668   0.50002   0.74989   0.00000  Uiso   1.00
O1015  O     0.16666   0.53823   0.68392   0.00000  Uiso   1.00
O1016  O     0.16667   0.46177   0.81607   0.00000  Uiso   1.00
O1017  O     0.16667   0.53823   0.81607   0.00000  Uiso   1.00
O1018  O     0.16666   0.46177   0.68392   0.00000  Uiso   1.00
C1019  C     0.16784   0.49991   0.66344   0.00000  Uiso   1.00
C1020  C     0.16651   0.50011   0.83643   0.00000  Uiso   1.00
Zn1021 Zn    0.16667   0.55104   0.75000   0.00000  Uiso   1.00
Zn1022 Zn    0.16667   0.44896   0.75000   0.00000  Uiso   1.00
C1023  C     0.20303   0.49221   0.90619   0.00000  Uiso   1.00
C1024  C     0.13764   0.52333   0.59355   0.00000  Uiso   1.00
C1025  C     0.16568   0.50089   0.88412   0.00000  Uiso   1.00
C1026  C     0.16953   0.50038   0.61553   0.00000  Uiso   1.00
C1027  C     0.12922   0.51381   0.90675   0.00000  Uiso   1.00
C1028  C     0.20316   0.48083   0.59225   0.00000  Uiso   1.00
C1029  C     0.13211   0.52230   0.95348   0.00000  Uiso   1.00
C1030  C     0.20689   0.49051   0.54597   0.00000  Uiso   1.00
C1031  C     0.16944   0.50871   0.97631   0.00000  Uiso   1.00
C1032  C     0.17118   0.50825   0.52319   0.00000  Uiso   1.00
C1033  C     0.20481   0.49439   0.95234   0.00000  Uiso   1.00
C1034  C     0.13679   0.52465   0.54735   0.00000  Uiso   1.00
C1035  C     0.09953   0.54283   0.97869   0.00000  Uiso   1.00
C1036  C     0.24414   0.48304   0.52127   0.00000  Uiso   1.00
C1037  C     0.10228   0.54317   0.52537   0.00000  Uiso   1.00
C1038  C     0.24211   0.48387   0.97450   0.00000  Uiso   1.00
H1039  H     0.23055   0.48289   0.88717   0.00000  Uiso   1.00
H1040  H     0.11217   0.53794   0.61262   0.00000  Uiso   1.00
H1041  H     0.07731   0.55830   0.54475   0.00000  Uiso   1.00
H1042  H     0.27003   0.47711   0.95518   0.00000  Uiso   1.00
C1043  C     0.02122   0.46235   0.73263   0.00000  Uiso   1.00
C1044  C     0.31213   0.53783   0.76653   0.00000  Uiso   1.00
C1045  C     0.31175   0.46239   0.73259   0.00000  Uiso   1.00
C1046  C     0.02158   0.53778   0.76661   0.00000  Uiso   1.00
H1047  H     0.03756   0.43331   0.71904   0.00000  Uiso   1.00
H1048  H     0.29581   0.56690   0.78013   0.00000  Uiso   1.00
H1049  H     0.29511   0.43336   0.71898   0.00000  Uiso   1.00
H1050  H     0.03820   0.56680   0.78027   0.00000  Uiso   1.00
C1051  C     0.29081   0.50009   0.74963   0.00000  Uiso   1.00
C1052  C     0.04253   0.50002   0.74971   0.00000  Uiso   1.00
C1053  C     0.19321   0.35743   0.77751   0.00000  Uiso   1.00
C1054  C     0.14013   0.64257   0.72247   0.00000  Uiso   1.00
C1055  C     0.14013   0.35720   0.72247   0.00000  Uiso   1.00
C1056  C     0.19321   0.64280   0.77752   0.00000  Uiso   1.00
H1057  H     0.21444   0.37570   0.79951   0.00000  Uiso   1.00
H1058  H     0.11892   0.62430   0.70047   0.00000  Uiso   1.00
H1059  H     0.11892   0.37528   0.70046   0.00000  Uiso   1.00
H1060  H     0.21443   0.62472   0.79951   0.00000  Uiso   1.00
N1061  N     0.16667   0.61907   0.75000   0.00000  Uiso   1.00
N1062  N     0.16667   0.38093   0.75000   0.00000  Uiso   1.00
C1063  C     0.08776   0.51237   0.88151   0.00000  Uiso   1.00
H1064  H     0.08843   0.48758   0.85341   0.00000  Uiso   1.00
H1065  H     0.06231   0.50021   0.90343   0.00000  Uiso   1.00
H1066  H     0.08030   0.54604   0.86716   0.00000  Uiso   1.00
C1067  C     0.23123   0.44698   0.61618   0.00000  Uiso   1.00
H1068  H     0.21210   0.42152   0.63395   0.00000  Uiso   1.00
H1069  H     0.24987   0.42613   0.59290   0.00000  Uiso   1.00
H1070  H     0.25196   0.46458   0.64073   0.00000  Uiso   1.00
C1071  C     0.06456   0.56881   0.95851   0.00000  Uiso   1.00
C1072  C     0.07260   0.60784   0.93313   0.00000  Uiso   1.00
C1073  C     0.03949   0.63283   0.91488   0.00000  Uiso   1.00
C1074  C     0.33157   0.61935   0.92229   0.00000  Uiso   1.00
C1075  C     0.32333   0.58098   0.94815   0.00000  Uiso   1.00
C1076  C     0.02300   0.55591   0.96644   0.00000  Uiso   1.00
H1077  H     0.10444   0.61868   0.92732   0.00000  Uiso   1.00
H1078  H     0.04582   0.66269   0.89506   0.00000  Uiso   1.00
H1079  H     0.30599   0.63872   0.90814   0.00000  Uiso   1.00
H1080  H     0.29138   0.57069   0.95405   0.00000  Uiso   1.00
H1081  H     0.01630   0.52621   0.98631   0.00000  Uiso   1.00
C1082  C     0.28631   0.47997   0.54246   0.00000  Uiso   1.00
C1083  C     0.29938   0.51240   0.57436   0.00000  Uiso   1.00
C1084  C     0.00519   0.50864   0.59525   0.00000  Uiso   1.00
C1085  C     0.03178   0.47292   0.58409   0.00000  Uiso   1.00
C1086  C     0.01955   0.44123   0.55161   0.00000  Uiso   1.00
C1087  C     0.31370   0.44469   0.53078   0.00000  Uiso   1.00
H1088  H     0.27907   0.54023   0.58337   0.00000  Uiso   1.00
H1089  H     0.01487   0.53333   0.62021   0.00000  Uiso   1.00
H1090  H     0.06189   0.46978   0.60058   0.00000  Uiso   1.00
H1091  H     0.04031   0.41375   0.54282   0.00000  Uiso   1.00
H1092  H     0.30440   0.41942   0.50620   0.00000  Uiso   1.00
O1093  O     0.43892   0.53821   0.74999   0.00000  Uiso   1.00
O1094  O     0.56108   0.46179   0.75000   0.00000  Uiso   1.00
O1095  O     0.56108   0.53821   0.75000   0.00000  Uiso   1.00
O1096  O     0.43892   0.46179   0.74999   0.00000  Uiso   1.00
C1097  C     0.41999   0.49999   0.74986   0.00000  Uiso   1.00
C1098  C     0.58001   0.50002   0.74989   0.00000  Uiso   1.00
O1099  O     0.49999   0.53823   0.68392   0.00000  Uiso   1.00
O1100  O     0.50001   0.46177   0.81607   0.00000  Uiso   1.00
O1101  O     0.50001   0.53823   0.81607   0.00000  Uiso   1.00
O1102  O     0.49999   0.46177   0.68392   0.00000  Uiso   1.00
C1103  C     0.50118   0.49991   0.66344   0.00000  Uiso   1.00
C1104  C     0.49985   0.50011   0.83643   0.00000  Uiso   1.00
Zn1105 Zn    0.50000   0.55104   0.75000   0.00000  Uiso   1.00
Zn1106 Zn    0.50000   0.44896   0.75000   0.00000  Uiso   1.00
C1107  C     0.53636   0.49221   0.90619   0.00000  Uiso   1.00
C1108  C     0.47098   0.52333   0.59355   0.00000  Uiso   1.00
C1109  C     0.49902   0.50089   0.88412   0.00000  Uiso   1.00
C1110  C     0.50287   0.50038   0.61553   0.00000  Uiso   1.00
C1111  C     0.46256   0.51381   0.90675   0.00000  Uiso   1.00
C1112  C     0.53649   0.48083   0.59225   0.00000  Uiso   1.00
C1113  C     0.46544   0.52230   0.95348   0.00000  Uiso   1.00
C1114  C     0.54022   0.49051   0.54597   0.00000  Uiso   1.00
C1115  C     0.50277   0.50871   0.97631   0.00000  Uiso   1.00
C1116  C     0.50452   0.50825   0.52319   0.00000  Uiso   1.00
C1117  C     0.53815   0.49439   0.95234   0.00000  Uiso   1.00
C1118  C     0.47012   0.52465   0.54735   0.00000  Uiso   1.00
C1119  C     0.43286   0.54283   0.97869   0.00000  Uiso   1.00
C1120  C     0.57747   0.48304   0.52127   0.00000  Uiso   1.00
C1121  C     0.43561   0.54317   0.52537   0.00000  Uiso   1.00
C1122  C     0.57544   0.48387   0.97450   0.00000  Uiso   1.00
H1123  H     0.56388   0.48289   0.88717   0.00000  Uiso   1.00
H1124  H     0.44550   0.53794   0.61262   0.00000  Uiso   1.00
H1125  H     0.41065   0.55830   0.54475   0.00000  Uiso   1.00
H1126  H     0.60336   0.47711   0.95518   0.00000  Uiso   1.00
C1127  C     0.35455   0.46235   0.73263   0.00000  Uiso   1.00
C1128  C     0.64547   0.53783   0.76653   0.00000  Uiso   1.00
C1129  C     0.64508   0.46239   0.73259   0.00000  Uiso   1.00
C1130  C     0.35492   0.53778   0.76661   0.00000  Uiso   1.00
H1131  H     0.37089   0.43331   0.71904   0.00000  Uiso   1.00
H1132  H     0.62915   0.56690   0.78013   0.00000  Uiso   1.00
H1133  H     0.62844   0.43336   0.71898   0.00000  Uiso   1.00
H1134  H     0.37154   0.56680   0.78027   0.00000  Uiso   1.00
C1135  C     0.62414   0.50009   0.74963   0.00000  Uiso   1.00
C1136  C     0.37586   0.50002   0.74971   0.00000  Uiso   1.00
C1137  C     0.52655   0.35743   0.77751   0.00000  Uiso   1.00
C1138  C     0.47346   0.64257   0.72247   0.00000  Uiso   1.00
C1139  C     0.47347   0.35720   0.72247   0.00000  Uiso   1.00
C1140  C     0.52654   0.64280   0.77752   0.00000  Uiso   1.00
H1141  H     0.54777   0.37570   0.79951   0.00000  Uiso   1.00
H1142  H     0.45225   0.62430   0.70047   0.00000  Uiso   1.00
H1143  H     0.45225   0.37528   0.70046   0.00000  Uiso   1.00
H1144  H     0.54777   0.62472   0.79951   0.00000  Uiso   1.00
N1145  N     0.50000   0.61907   0.75000   0.00000  Uiso   1.00
N1146  N     0.50000   0.38093   0.75000   0.00000  Uiso   1.00
C1147  C     0.42109   0.51237   0.88151   0.00000  Uiso   1.00
H1148  H     0.42176   0.48758   0.85341   0.00000  Uiso   1.00
H1149  H     0.39564   0.50021   0.90343   0.00000  Uiso   1.00
H1150  H     0.41363   0.54604   0.86716   0.00000  Uiso   1.00
C1151  C     0.56457   0.44698   0.61618   0.00000  Uiso   1.00
H1152  H     0.54544   0.42152   0.63395   0.00000  Uiso   1.00
H1153  H     0.58320   0.42613   0.59290   0.00000  Uiso   1.00
H1154  H     0.58530   0.46458   0.64073   0.00000  Uiso   1.00
C1155  C     0.39789   0.56881   0.95851   0.00000  Uiso   1.00
C1156  C     0.40593   0.60784   0.93313   0.00000  Uiso   1.00
C1157  C     0.37283   0.63283   0.91488   0.00000  Uiso   1.00
C1158  C     0.66490   0.61935   0.92229   0.00000  Uiso   1.00
C1159  C     0.65666   0.58098   0.94815   0.00000  Uiso   1.00
C1160  C     0.35633   0.55591   0.96644   0.00000  Uiso   1.00
H1161  H     0.43777   0.61868   0.92732   0.00000  Uiso   1.00
H1162  H     0.37915   0.66269   0.89506   0.00000  Uiso   1.00
H1163  H     0.63933   0.63872   0.90814   0.00000  Uiso   1.00
H1164  H     0.62471   0.57069   0.95405   0.00000  Uiso   1.00
H1165  H     0.34963   0.52621   0.98631   0.00000  Uiso   1.00
C1166  C     0.61964   0.47997   0.54246   0.00000  Uiso   1.00
C1167  C     0.63271   0.51240   0.57436   0.00000  Uiso   1.00
C1168  C     0.33853   0.50864   0.59525   0.00000  Uiso   1.00
C1169  C     0.36512   0.47292   0.58409   0.00000  Uiso   1.00
C1170  C     0.35288   0.44123   0.55161   0.00000  Uiso   1.00
C1171  C     0.64703   0.44469   0.53078   0.00000  Uiso   1.00
H1172  H     0.61240   0.54023   0.58337   0.00000  Uiso   1.00
H1173  H     0.34821   0.53333   0.62021   0.00000  Uiso   1.00
H1174  H     0.39522   0.46978   0.60058   0.00000  Uiso   1.00
H1175  H     0.37365   0.41375   0.54282   0.00000  Uiso   1.00
H1176  H     0.63773   0.41942   0.50620   0.00000  Uiso   1.00
O1177  O     0.77226   0.53821   0.74999   0.00000  Uiso   1.00
O1178  O     0.89441   0.46179   0.75000   0.00000  Uiso   1.00
O1179  O     0.89441   0.53821   0.75000   0.00000  Uiso   1.00
O1180  O     0.77226   0.46179   0.74999   0.00000  Uiso   1.00
C1181  C     0.75332   0.49999   0.74986   0.00000  Uiso   1.00
C1182  C     0.91335   0.50002   0.74989   0.00000  Uiso   1.00
O1183  O     0.83333   0.53823   0.68392   0.00000  Uiso   1.00
O1184  O     0.83334   0.46177   0.81607   0.00000  Uiso   1.00
O1185  O     0.83334   0.53823   0.81607   0.00000  Uiso   1.00
O1186  O     0.83333   0.46177   0.68392   0.00000  Uiso   1.00
C1187  C     0.83451   0.49991   0.66344   0.00000  Uiso   1.00
C1188  C     0.83318   0.50011   0.83643   0.00000  Uiso   1.00
Zn1189 Zn    0.83333   0.55104   0.75000   0.00000  Uiso   1.00
Zn1190 Zn    0.83333   0.44896   0.75000   0.00000  Uiso   1.00
C1191  C     0.86970   0.49221   0.90619   0.00000  Uiso   1.00
C1192  C     0.80431   0.52333   0.59355   0.00000  Uiso   1.00
C1193  C     0.83235   0.50089   0.88412   0.00000  Uiso   1.00
C1194  C     0.83620   0.50038   0.61553   0.00000  Uiso   1.00
C1195  C     0.79589   0.51381   0.90675   0.00000  Uiso   1.00
C1196  C     0.86982   0.48083   0.59225   0.00000  Uiso   1.00
C1197  C     0.79878   0.52230   0.95348   0.00000  Uiso   1.00
C1198  C     0.87355   0.49051   0.54597   0.00000  Uiso   1.00
C1199  C     0.83610   0.50871   0.97631   0.00000  Uiso   1.00
C1200  C     0.83785   0.50825   0.52319   0.00000  Uiso   1.00
C1201  C     0.87148   0.49439   0.95234   0.00000  Uiso   1.00
C1202  C     0.80346   0.52465   0.54735   0.00000  Uiso   1.00
C1203  C     0.76620   0.54283   0.97869   0.00000  Uiso   1.00
C1204  C     0.91081   0.48304   0.52127   0.00000  Uiso   1.00
C1205  C     0.76895   0.54317   0.52537   0.00000  Uiso   1.00
C1206  C     0.90878   0.48387   0.97450   0.00000  Uiso   1.00
H1207  H     0.89721   0.48289   0.88717   0.00000  Uiso   1.00
H1208  H     0.77884   0.53794   0.61262   0.00000  Uiso   1.00
H1209  H     0.74398   0.55830   0.54475   0.00000  Uiso   1.00
H1210  H     0.93669   0.47711   0.95518   0.00000  Uiso   1.00
C1211  C     0.68788   0.46235   0.73263   0.00000  Uiso   1.00
C1212  C     0.97880   0.53783   0.76653   0.00000  Uiso   1.00
C1213  C     0.97841   0.46239   0.73259   0.00000  Uiso   1.00
C1214  C     0.68825   0.53778   0.76661   0.00000  Uiso   1.00
H1215  H     0.70423   0.43331   0.71904   0.00000  Uiso   1.00
H1216  H     0.96248   0.56690   0.78013   0.00000  Uiso   1.00
H1217  H     0.96178   0.43336   0.71898   0.00000  Uiso   1.00
H1218  H     0.70487   0.56680   0.78027   0.00000  Uiso   1.00
C1219  C     0.95748   0.50009   0.74963   0.00000  Uiso   1.00
C1220  C     0.70920   0.50002   0.74971   0.00000  Uiso   1.00
C1221  C     0.85988   0.35743   0.77751   0.00000  Uiso   1.00
C1222  C     0.80680   0.64257   0.72247   0.00000  Uiso   1.00
C1223  C     0.80680   0.35720   0.72247   0.00000  Uiso   1.00
C1224  C     0.85988   0.64280   0.77752   0.00000  Uiso   1.00
H1225  H     0.88110   0.37570   0.79951   0.00000  Uiso   1.00
H1226  H     0.78558   0.62430   0.70047   0.00000  Uiso   1.00
H1227  H     0.78559   0.37528   0.70046   0.00000  Uiso   1.00
H1228  H     0.88110   0.62472   0.79951   0.00000  Uiso   1.00
N1229  N     0.83333   0.61907   0.75000   0.00000  Uiso   1.00
N1230  N     0.83333   0.38093   0.75000   0.00000  Uiso   1.00
C1231  C     0.75442   0.51237   0.88151   0.00000  Uiso   1.00
H1232  H     0.75509   0.48758   0.85341   0.00000  Uiso   1.00
H1233  H     0.72897   0.50021   0.90343   0.00000  Uiso   1.00
H1234  H     0.74697   0.54604   0.86716   0.00000  Uiso   1.00
C1235  C     0.89790   0.44698   0.61618   0.00000  Uiso   1.00
H1236  H     0.87877   0.42152   0.63395   0.00000  Uiso   1.00
H1237  H     0.91653   0.42613   0.59290   0.00000  Uiso   1.00
H1238  H     0.91863   0.46458   0.64073   0.00000  Uiso   1.00
C1239  C     0.73123   0.56881   0.95851   0.00000  Uiso   1.00
C1240  C     0.73927   0.60784   0.93313   0.00000  Uiso   1.00
C1241  C     0.70616   0.63283   0.91488   0.00000  Uiso   1.00
C1242  C     0.99824   0.61935   0.92229   0.00000  Uiso   1.00
C1243  C     0.98999   0.58098   0.94815   0.00000  Uiso   1.00
C1244  C     0.68966   0.55591   0.96644   0.00000  Uiso   1.00
H1245  H     0.77110   0.61868   0.92732   0.00000  Uiso   1.00
H1246  H     0.71248   0.66269   0.89506   0.00000  Uiso   1.00
H1247  H     0.97266   0.63872   0.90814   0.00000  Uiso   1.00
H1248  H     0.95804   0.57069   0.95405   0.00000  Uiso   1.00
H1249  H     0.68296   0.52621   0.98631   0.00000  Uiso   1.00
C1250  C     0.95297   0.47997   0.54246   0.00000  Uiso   1.00
C1251  C     0.96605   0.51240   0.57436   0.00000  Uiso   1.00
C1252  C     0.67186   0.50864   0.59525   0.00000  Uiso   1.00
C1253  C     0.69845   0.47292   0.58409   0.00000  Uiso   1.00
C1254  C     0.68622   0.44123   0.55161   0.00000  Uiso   1.00
C1255  C     0.98037   0.44469   0.53078   0.00000  Uiso   1.00
H1256  H     0.94574   0.54023   0.58337   0.00000  Uiso   1.00
H1257  H     0.68154   0.53333   0.62021   0.00000  Uiso   1.00
H1258  H     0.72855   0.46978   0.60058   0.00000  Uiso   1.00
H1259  H     0.70698   0.41375   0.54282   0.00000  Uiso   1.00
H1260  H     0.97107   0.41942   0.50620   0.00000  Uiso   1.00
O1261  O     0.10559   0.87154   0.74999   0.00000  Uiso   1.00
O1262  O     0.22774   0.79513   0.75000   0.00000  Uiso   1.00
O1263  O     0.22774   0.87154   0.75000   0.00000  Uiso   1.00
O1264  O     0.10559   0.79513   0.74999   0.00000  Uiso   1.00
C1265  C     0.08666   0.83332   0.74986   0.00000  Uiso   1.00
C1266  C     0.24668   0.83336   0.74989   0.00000  Uiso   1.00
O1267  O     0.16666   0.87156   0.68392   0.00000  Uiso   1.00
O1268  O     0.16667   0.79511   0.81607   0.00000  Uiso   1.00
O1269  O     0.16667   0.87156   0.81607   0.00000  Uiso   1.00
O1270  O     0.16666   0.79511   0.68392   0.00000  Uiso   1.00
C1271  C     0.16784   0.83324   0.66344   0.00000  Uiso   1.00
C1272  C     0.16651   0.83344   0.83643   0.00000  Uiso   1.00
Zn1273 Zn    0.16667   0.88437   0.75000   0.00000  Uiso   1.00
Zn1274 Zn    0.16667   0.78229   0.75000   0.00000  Uiso   1.00
C1275  C     0.20303   0.82555   0.90619   0.00000  Uiso   1.00
C1276  C     0.13764   0.85667   0.59355   0.00000  Uiso   1.00
C1277  C     0.16568   0.83423   0.88412   0.00000  Uiso   1.00
C1278  C     0.16953   0.83372   0.61553   0.00000  Uiso   1.00
C1279  C     0.12922   0.84714   0.90675   0.00000  Uiso   1.00
C1280  C     0.20316   0.81416   0.59225   0.00000  Uiso   1.00
C1281  C     0.13211   0.85563   0.95348   0.00000  Uiso   1.00
C1282  C     0.20689   0.82385   0.54597   0.00000  Uiso   1.00
C1283  C     0.16944   0.84204   0.97631   0.00000  Uiso   1.00
C1284  C     0.17118   0.84159   0.52319   0.00000  Uiso   1.00
C1285  C     0.20481   0.82772   0.95234   0.00000  Uiso   1.00
C1286  C     0.13679   0.85798   0.54735   0.00000  Uiso   1.00
C1287  C     0.09953   0.87616   0.97869   0.00000  Uiso   1.00
C1288  C     0.24414   0.81638   0.52127   0.00000  Uiso   1.00
C1289  C     0.10228   0.87650   0.52537   0.00000  Uiso   1.00
C1290  C     0.24211   0.81721   0.97450   0.00000  Uiso   1.00
H1291  H     0.23055   0.81623   0.88717   0.00000  Uiso   1.00
H1292  H     0.11217   0.87127   0.61262   0.00000  Uiso   1.00
H1293  H     0.07731   0.89163   0.54475   0.00000  Uiso   1.00
H1294  H     0.27003   0.81045   0.95518   0.00000  Uiso   1.00
C1295  C     0.02122   0.79569   0.73263   0.00000  Uiso   1.00
C1296  C     0.31213   0.87116   0.76653   0.00000  Uiso   1.00
C1297  C     0.31175   0.79572   0.73259   0.00000  Uiso   1.00
C1298  C     0.02158   0.87111   0.76661   0.00000  Uiso   1.00
H1299  H     0.03756   0.76664   0.71904   0.00000  Uiso   1.00
H1300  H     0.29581   0.90023   0.78013   0.00000  Uiso   1.00
H1301  H     0.29511   0.76669   0.71898   0.00000  Uiso   1.00
H1302  H     0.03820   0.90014   0.78027   0.00000  Uiso   1.00
C1303  C     0.29081   0.83342   0.74963   0.00000  Uiso   1.00
C1304  C     0.04253   0.83335   0.74971   0.00000  Uiso   1.00
C1305  C     0.19321   0.69077   0.77751   0.00000  Uiso   1.00
C1306  C     0.14013   0.97590   0.72247   0.00000  Uiso   1.00
C1307  C     0.14013   0.69053   0.72247   0.00000  Uiso   1.00
C1308  C     0.19321   0.97614   0.77752   0.00000  Uiso   1.00
H1309  H     0.21444   0.70903   0.79951   0.00000  Uiso   1.00
H1310  H     0.11892   0.95763   0.70047   0.00000  Uiso   1.00
H1311  H     0.11892   0.70862   0.70046   0.00000  Uiso   1.00
H1312  H     0.21443   0.95806   0.79951   0.00000  Uiso   1.00
N1313  N     0.16667   0.95240   0.75000   0.00000  Uiso   1.00
N1314  N     0.16667   0.71427   0.75000   0.00000  Uiso   1.00
C1315  C     0.08776   0.84570   0.88151   0.00000  Uiso   1.00
H1316  H     0.08843   0.82091   0.85341   0.00000  Uiso   1.00
H1317  H     0.06231   0.83355   0.90343   0.00000  Uiso   1.00
H1318  H     0.08030   0.87938   0.86716   0.00000  Uiso   1.00
C1319  C     0.23123   0.78031   0.61618   0.00000  Uiso   1.00
H1320  H     0.21210   0.75485   0.63395   0.00000  Uiso   1.00
H1321  H     0.24987   0.75946   0.59290   0.00000  Uiso   1.00
H1322  H     0.25196   0.79792   0.64073   0.00000  Uiso   1.00
C1323  C     0.06456   0.90214   0.95851   0.00000  Uiso   1.00
C1324  C     0.07260   0.94117   0.93313   0.00000  Uiso   1.00
C1325  C     0.03949   0.96616   0.91488   0.00000  Uiso   1.00
C1326  C     0.33157   0.95268   0.92229   0.00000  Uiso   1.00
C1327  C     0.32333   0.91431   0.94815   0.00000  Uiso   1.00
C1328  C     0.02300   0.88925   0.96644   0.00000  Uiso   1.00
H1329  H     0.10444   0.95201   0.92732   0.00000  Uiso   1.00
H1330  H     0.04582   0.99602   0.89506   0.00000  Uiso   1.00
H1331  H     0.30599   0.97206   0.90814   0.00000  Uiso   1.00
H1332  H     0.29138   0.90403   0.95405   0.00000  Uiso   1.00
H1333  H     0.01630   0.85955   0.98631   0.00000  Uiso   1.00
C1334  C     0.28631   0.81331   0.54246   0.00000  Uiso   1.00
C1335  C     0.29938   0.84573   0.57436   0.00000  Uiso   1.00
C1336  C     0.00519   0.84197   0.59525   0.00000  Uiso   1.00
C1337  C     0.03178   0.80625   0.58409   0.00000  Uiso   1.00
C1338  C     0.01955   0.77457   0.55161   0.00000  Uiso   1.00
C1339  C     0.31370   0.77803   0.53078   0.00000  Uiso   1.00
H1340  H     0.27907   0.87356   0.58337   0.00000  Uiso   1.00
H1341  H     0.01487   0.86667   0.62021   0.00000  Uiso   1.00
H1342  H     0.06189   0.80312   0.60058   0.00000  Uiso   1.00
H1343  H     0.04031   0.74709   0.54282   0.00000  Uiso   1.00
H1344  H     0.30440   0.75276   0.50620   0.00000  Uiso   1.00
O1345  O     0.43892   0.87154   0.74999   0.00000  Uiso   1.00
O1346  O     0.56108   0.79513   0.75000   0.00000  Uiso   1.00
O1347  O     0.56108   0.87154   0.75000   0.00000  Uiso   1.00
O1348  O     0.43892   0.79513   0.74999   0.00000  Uiso   1.00
C1349  C     0.41999   0.83332   0.74986   0.00000  Uiso   1.00
C1350  C     0.58001   0.83336   0.74989   0.00000  Uiso   1.00
O1351  O     0.49999   0.87156   0.68392   0.00000  Uiso   1.00
O1352  O     0.50001   0.79511   0.81607   0.00000  Uiso   1.00
O1353  O     0.50001   0.87156   0.81607   0.00000  Uiso   1.00
O1354  O     0.49999   0.79511   0.68392   0.00000  Uiso   1.00
C1355  C     0.50118   0.83324   0.66344   0.00000  Uiso   1.00
C1356  C     0.49985   0.83344   0.83643   0.00000  Uiso   1.00
Zn1357 Zn    0.50000   0.88437   0.75000   0.00000  Uiso   1.00
Zn1358 Zn    0.50000   0.78229   0.75000   0.00000  Uiso   1.00
C1359  C     0.53636   0.82555   0.90619   0.00000  Uiso   1.00
C1360  C     0.47098   0.85667   0.59355   0.00000  Uiso   1.00
C1361  C     0.49902   0.83423   0.88412   0.00000  Uiso   1.00
C1362  C     0.50287   0.83372   0.61553   0.00000  Uiso   1.00
C1363  C     0.46256   0.84714   0.90675   0.00000  Uiso   1.00
C1364  C     0.53649   0.81416   0.59225   0.00000  Uiso   1.00
C1365  C     0.46544   0.85563   0.95348   0.00000  Uiso   1.00
C1366  C     0.54022   0.82385   0.54597   0.00000  Uiso   1.00
C1367  C     0.50277   0.84204   0.97631   0.00000  Uiso   1.00
C1368  C     0.50452   0.84159   0.52319   0.00000  Uiso   1.00
C1369  C     0.53815   0.82772   0.95234   0.00000  Uiso   1.00
C1370  C     0.47012   0.85798   0.54735   0.00000  Uiso   1.00
C1371  C     0.43286   0.87616   0.97869   0.00000  Uiso   1.00
C1372  C     0.57747   0.81638   0.52127   0.00000  Uiso   1.00
C1373  C     0.43561   0.87650   0.52537   0.00000  Uiso   1.00
C1374  C     0.57544   0.81721   0.97450   0.00000  Uiso   1.00
H1375  H     0.56388   0.81623   0.88717   0.00000  Uiso   1.00
H1376  H     0.44550   0.87127   0.61262   0.00000  Uiso   1.00
H1377  H     0.41065   0.89163   0.54475   0.00000  Uiso   1.00
H1378  H     0.60336   0.81045   0.95518   0.00000  Uiso   1.00
C1379  C     0.35455   0.79569   0.73263   0.00000  Uiso   1.00
C1380  C     0.64547   0.87116   0.76653   0.00000  Uiso   1.00
C1381  C     0.64508   0.79572   0.73259   0.00000  Uiso   1.00
C1382  C     0.35492   0.87111   0.76661   0.00000  Uiso   1.00
H1383  H     0.37089   0.76664   0.71904   0.00000  Uiso   1.00
H1384  H     0.62915   0.90023   0.78013   0.00000  Uiso   1.00
H1385  H     0.62844   0.76669   0.71898   0.00000  Uiso   1.00
H1386  H     0.37154   0.90014   0.78027   0.00000  Uiso   1.00
C1387  C     0.62414   0.83342   0.74963   0.00000  Uiso   1.00
C1388  C     0.37586   0.83335   0.74971   0.00000  Uiso   1.00
C1389  C     0.52655   0.69077   0.77751   0.00000  Uiso   1.00
C1390  C     0.47346   0.97590   0.72247   0.00000  Uiso   1.00
C1391  C     0.47347   0.69053   0.72247   0.00000  Uiso   1.00
C1392  C     0.52654   0.97614   0.77752   0.00000  Uiso   1.00
H1393  H     0.54777   0.70903   0.79951   0.00000  Uiso   1.00
H1394  H     0.45225   0.95763   0.70047   0.00000  Uiso   1.00
H1395  H     0.45225   0.70862   0.70046   0.00000  Uiso   1.00
H1396  H     0.54777   0.95806   0.79951   0.00000  Uiso   1.00
N1397  N     0.50000   0.95240   0.75000   0.00000  Uiso   1.00
N1398  N     0.50000   0.71427   0.75000   0.00000  Uiso   1.00
C1399  C     0.42109   0.84570   0.88151   0.00000  Uiso   1.00
H1400  H     0.42176   0.82091   0.85341   0.00000  Uiso   1.00
H1401  H     0.39564   0.83355   0.90343   0.00000  Uiso   1.00
H1402  H     0.41363   0.87938   0.86716   0.00000  Uiso   1.00
C1403  C     0.56457   0.78031   0.61618   0.00000  Uiso   1.00
H1404  H     0.54544   0.75485   0.63395   0.00000  Uiso   1.00
H1405  H     0.58320   0.75946   0.59290   0.00000  Uiso   1.00
H1406  H     0.58530   0.79792   0.64073   0.00000  Uiso   1.00
C1407  C     0.39789   0.90214   0.95851   0.00000  Uiso   1.00
C1408  C     0.40593   0.94117   0.93313   0.00000  Uiso   1.00
C1409  C     0.37283   0.96616   0.91488   0.00000  Uiso   1.00
C1410  C     0.66490   0.95268   0.92229   0.00000  Uiso   1.00
C1411  C     0.65666   0.91431   0.94815   0.00000  Uiso   1.00
C1412  C     0.35633   0.88925   0.96644   0.00000  Uiso   1.00
H1413  H     0.43777   0.95201   0.92732   0.00000  Uiso   1.00
H1414  H     0.37915   0.99602   0.89506   0.00000  Uiso   1.00
H1415  H     0.63933   0.97206   0.90814   0.00000  Uiso   1.00
H1416  H     0.62471   0.90403   0.95405   0.00000  Uiso   1.00
H1417  H     0.34963   0.85955   0.98631   0.00000  Uiso   1.00
C1418  C     0.61964   0.81331   0.54246   0.00000  Uiso   1.00
C1419  C     0.63271   0.84573   0.57436   0.00000  Uiso   1.00
C1420  C     0.33853   0.84197   0.59525   0.00000  Uiso   1.00
C1421  C     0.36512   0.80625   0.58409   0.00000  Uiso   1.00
C1422  C     0.35288   0.77457   0.55161   0.00000  Uiso   1.00
C1423  C     0.64703   0.77803   0.53078   0.00000  Uiso   1.00
H1424  H     0.61240   0.87356   0.58337   0.00000  Uiso   1.00
H1425  H     0.34821   0.86667   0.62021   0.00000  Uiso   1.00
H1426  H     0.39522   0.80312   0.60058   0.00000  Uiso   1.00
H1427  H     0.37365   0.74709   0.54282   0.00000  Uiso   1.00
H1428  H     0.63773   0.75276   0.50620   0.00000  Uiso   1.00
O1429  O     0.77226   0.87154   0.74999   0.00000  Uiso   1.00
O1430  O     0.89441   0.79513   0.75000   0.00000  Uiso   1.00
O1431  O     0.89441   0.87154   0.75000   0.00000  Uiso   1.00
O1432  O     0.77226   0.79513   0.74999   0.00000  Uiso   1.00
C1433  C     0.75332   0.83332   0.74986   0.00000  Uiso   1.00
C1434  C     0.91335   0.83336   0.74989   0.00000  Uiso   1.00
O1435  O     0.83333   0.87156   0.68392   0.00000  Uiso   1.00
O1436  O     0.83334   0.79511   0.81607   0.00000  Uiso   1.00
O1437  O     0.83334   0.87156   0.81607   0.00000  Uiso   1.00
O1438  O     0.83333   0.79511   0.68392   0.00000  Uiso   1.00
C1439  C     0.83451   0.83324   0.66344   0.00000  Uiso   1.00
C1440  C     0.83318   0.83344   0.83643   0.00000  Uiso   1.00
Zn1441 Zn    0.83333   0.88437   0.75000   0.00000  Uiso   1.00
Zn1442 Zn    0.83333   0.78229   0.75000   0.00000  Uiso   1.00
C1443  C     0.86970   0.82555   0.90619   0.00000  Uiso   1.00
C1444  C     0.80431   0.85667   0.59355   0.00000  Uiso   1.00
C1445  C     0.83235   0.83423   0.88412   0.00000  Uiso   1.00
C1446  C     0.83620   0.83372   0.61553   0.00000  Uiso   1.00
C1447  C     0.79589   0.84714   0.90675   0.00000  Uiso   1.00
C1448  C     0.86982   0.81416   0.59225   0.00000  Uiso   1.00
C1449  C     0.79878   0.85563   0.95348   0.00000  Uiso   1.00
C1450  C     0.87355   0.82385   0.54597   0.00000  Uiso   1.00
C1451  C     0.83610   0.84204   0.97631   0.00000  Uiso   1.00
C1452  C     0.83785   0.84159   0.52319   0.00000  Uiso   1.00
C1453  C     0.87148   0.82772   0.95234   0.00000  Uiso   1.00
C1454  C     0.80346   0.85798   0.54735   0.00000  Uiso   1.00
C1455  C     0.76620   0.87616   0.97869   0.00000  Uiso   1.00
C1456  C     0.91081   0.81638   0.52127   0.00000  Uiso   1.00
C1457  C     0.76895   0.87650   0.52537   0.00000  Uiso   1.00
C1458  C     0.90878   0.81721   0.97450   0.00000  Uiso   1.00
H1459  H     0.89721   0.81623   0.88717   0.00000  Uiso   1.00
H1460  H     0.77884   0.87127   0.61262   0.00000  Uiso   1.00
H1461  H     0.74398   0.89163   0.54475   0.00000  Uiso   1.00
H1462  H     0.93669   0.81045   0.95518   0.00000  Uiso   1.00
C1463  C     0.68788   0.79569   0.73263   0.00000  Uiso   1.00
C1464  C     0.97880   0.87116   0.76653   0.00000  Uiso   1.00
C1465  C     0.97841   0.79572   0.73259   0.00000  Uiso   1.00
C1466  C     0.68825   0.87111   0.76661   0.00000  Uiso   1.00
H1467  H     0.70423   0.76664   0.71904   0.00000  Uiso   1.00
H1468  H     0.96248   0.90023   0.78013   0.00000  Uiso   1.00
H1469  H     0.96178   0.76669   0.71898   0.00000  Uiso   1.00
H1470  H     0.70487   0.90014   0.78027   0.00000  Uiso   1.00
C1471  C     0.95748   0.83342   0.74963   0.00000  Uiso   1.00
C1472  C     0.70920   0.83335   0.74971   0.00000  Uiso   1.00
C1473  C     0.85988   0.69077   0.77751   0.00000  Uiso   1.00
C1474  C     0.80680   0.97590   0.72247   0.00000  Uiso   1.00
C1475  C     0.80680   0.69053   0.72247   0.00000  Uiso   1.00
C1476  C     0.85988   0.97614   0.77752   0.00000  Uiso   1.00
H1477  H     0.88110   0.70903   0.79951   0.00000  Uiso   1.00
H1478  H     0.78558   0.95763   0.70047   0.00000  Uiso   1.00
H1479  H     0.78559   0.70862   0.70046   0.00000  Uiso   1.00
H1480  H     0.88110   0.95806   0.79951   0.00000  Uiso   1.00
N1481  N     0.83333   0.95240   0.75000   0.00000  Uiso   1.00
N1482  N     0.83333   0.71427   0.75000   0.00000  Uiso   1.00
C1483  C     0.75442   0.84570   0.88151   0.00000  Uiso   1.00
H1484  H     0.75509   0.82091   0.85341   0.00000  Uiso   1.00
H1485  H     0.72897   0.83355   0.90343   0.00000  Uiso   1.00
H1486  H     0.74697   0.87938   0.86716   0.00000  Uiso   1.00
C1487  C     0.89790   0.78031   0.61618   0.00000  Uiso   1.00
H1488  H     0.87877   0.75485   0.63395   0.00000  Uiso   1.00
H1489  H     0.91653   0.75946   0.59290   0.00000  Uiso   1.00
H1490  H     0.91863   0.79792   0.64073   0.00000  Uiso   1.00
C1491  C     0.73123   0.90214   0.95851   0.00000  Uiso   1.00
C1492  C     0.73927   0.94117   0.93313   0.00000  Uiso   1.00
C1493  C     0.70616   0.96616   0.91488   0.00000  Uiso   1.00
C1494  C     0.99824   0.95268   0.92229   0.00000  Uiso   1.00
C1495  C     0.98999   0.91431   0.94815   0.00000  Uiso   1.00
C1496  C     0.68966   0.88925   0.96644   0.00000  Uiso   1.00
H1497  H     0.77110   0.95201   0.92732   0.00000  Uiso   1.00
H1498  H     0.71248   0.99602   0.89506   0.00000  Uiso   1.00
H1499  H     0.97266   0.97206   0.90814   0.00000  Uiso   1.00
H1500  H     0.95804   0.90403   0.95405   0.00000  Uiso   1.00
H1501  H     0.68296   0.85955   0.98631   0.00000  Uiso   1.00
C1502  C     0.95297   0.81331   0.54246   0.00000  Uiso   1.00
C1503  C     0.96605   0.84573   0.57436   0.00000  Uiso   1.00
C1504  C     0.67186   0.84197   0.59525   0.00000  Uiso   1.00
C1505  C     0.69845   0.80625   0.58409   0.00000  Uiso   1.00
C1506  C     0.68622   0.77457   0.55161   0.00000  Uiso   1.00
C1507  C     0.98037   0.77803   0.53078   0.00000  Uiso   1.00
H1508  H     0.94574   0.87356   0.58337   0.00000  Uiso   1.00
H1509  H     0.68154   0.86667   0.62021   0.00000  Uiso   1.00
H1510  H     0.72855   0.80312   0.60058   0.00000  Uiso   1.00
H1511  H     0.70698   0.74709   0.54282   0.00000  Uiso   1.00
H1512  H     0.97107   0.75276   0.50620   0.00000  Uiso   1.00
loop_
_geom_bond_atom_site_label_1
_geom_bond_atom_site_label_2
_geom_bond_distance
_geom_bond_site_symmetry_2
_ccdc_geom_bond_type
O1     C5      1.280   .     A
O1     Zn13    1.991   .     S
O2     C6      1.281   .     A
O2     Zn14    1.991   .     S
O3     C6      1.281   .     A
O3     Zn13    1.992   .     S
O4     Zn14    1.992   .     S
O4     C5      1.281   .     A
C5     C44     1.412   .     S
C6     C43     1.413   .     S
O7     C11     1.284   .     A
O7     Zn13    2.002   .     S
O8     C12     1.282   .     A
O8     Zn14    2.002   .     S
O9     Zn13    2.005   .     S
O9     C12     1.280   .     A
O10    Zn14    2.005   .     S
O10    C11     1.283   .     A
C11    C18     1.428   .     S
C12    C17     1.420   .     S
Zn13   N53     2.009   .     S
Zn14   N54     2.009   .     S
C15    C25     1.376   .     A
C15    C17     1.384   .     A
C15    H31     1.087   .     S
C16    C26     1.376   .     A
C16    H32     1.087   .     S
C16    C18     1.386   .     A
C17    C19     1.405   .     A
C18    C20     1.409   .     A
C19    C21     1.415   .     A
C19    C55     1.520   .     S
C20    C59     1.520   .     S
C20    C22     1.414   .     A
C21    C27     1.425   .     A
C21    C23     1.428   .     A
C22    C28     1.424   .     A
C22    C24     1.425   .     A
C23    C25     1.409   .     A
C23    C780    1.397   .     S
C24    C26     1.406   .     A
C24    C779    1.397   1_554 S
C25    C30     1.395   .     A
C26    C29     1.392   .     A
C27    C63     1.482   .     S
C27    C785    1.392   .     S
C28    C74     1.488   .     S
C28    C786    1.394   1_554 S
C29    H33     1.086   .     S
C29    C783    1.392   1_554 S
C30    H34     1.085   .     S
C30    C784    1.394   .     S
C35    H39     1.084   .     S
C35    C44     1.396   .     A
C35    C205    1.370   1_455 S
C36    H40     1.084   .     S
C36    C43     1.396   .     A
C36    C122    1.369   .     S
C37    C43     1.396   .     A
C37    H41     1.084   .     S
C37    C119    1.370   .     S
C38    H42     1.084   .     S
C38    C44     1.396   .     A
C38    C204    1.369   1_455 S
C45    H49     1.082   .     S
C45    N54     1.366   .     A
C45    C552    1.416   1_545 S
C46    H50     1.082   .     S
C46    N53     1.366   .     A
C46    C299    1.416   .     S
C47    H51     1.082   .     S
C47    N54     1.366   .     A
C47    C550    1.416   1_545 S
C48    H52     1.082   .     S
C48    N53     1.366   .     A
C48    C297    1.416   .     S
C55    H56     1.110   .     S
C55    H57     1.109   .     S
C55    H58     1.109   .     S
C59    H60     1.108   .     S
C59    H61     1.105   .     S
C59    H62     1.110   .     S
C63    C68     1.406   .     A
C63    C64     1.405   .     A
C64    H69     1.083   .     S
C64    C65     1.399   .     A
C65    H70     1.083   .     S
C65    C234    1.398   1_455 S
C66    C67     1.398   .     A
C66    H71     1.082   .     S
C66    C149    1.398   .     S
C67    H72     1.082   .     S
C67    C152    1.398   .     S
C68    H73     1.082   .     S
C68    C235    1.398   1_455 S
C74    C75     1.407   .     A
C74    C79     1.407   .     A
C75    H80     1.083   .     S
C75    C160    1.399   .     S
C76    C77     1.397   .     A
C76    H81     1.082   .     S
C76    C243    1.399   1_455 S
C77    C78     1.397   .     A
C77    H82     1.082   .     S
C78    H83     1.082   .     S
C78    C247    1.398   1_455 S
C79    H84     1.083   .     S
C79    C162    1.398   .     S
O85    C89     1.280   .     A
O85    Zn97    1.991   .     S
O86    C90     1.281   .     A
O86    Zn98    1.991   .     S
O87    C90     1.281   .     A
O87    Zn97    1.992   .     S
O88    Zn98    1.992   .     S
O88    C89     1.281   .     A
C89    C128    1.412   .     S
C90    C127    1.413   .     S
O91    C95     1.284   .     A
O91    Zn97    2.002   .     S
O92    C96     1.282   .     A
O92    Zn98    2.002   .     S
O93    Zn97    2.005   .     S
O93    C96     1.280   .     A
O94    Zn98    2.005   .     S
O94    C95     1.283   .     A
C95    C102    1.428   .     S
C96    C101    1.420   .     S
Zn97   N137    2.009   .     S
Zn98   N138    2.009   .     S
C99    C109    1.376   .     A
C99    C101    1.384   .     A
C99    H115    1.087   .     S
C100   C110    1.376   .     A
C100   H116    1.087   .     S
C100   C102    1.386   .     A
C101   C103    1.405   .     A
C102   C104    1.409   .     A
C103   C105    1.415   .     A
C103   C139    1.520   .     S
C104   C143    1.520   .     S
C104   C106    1.414   .     A
C105   C111    1.425   .     A
C105   C107    1.428   .     A
C106   C112    1.424   .     A
C106   C108    1.425   .     A
C107   C109    1.409   .     A
C107   C864    1.397   .     S
C108   C110    1.406   .     A
C108   C863    1.397   1_554 S
C109   C114    1.395   .     A
C110   C113    1.392   .     A
C111   C147    1.482   .     S
C111   C869    1.392   .     S
C112   C158    1.488   .     S
C112   C870    1.394   1_554 S
C113   H117    1.086   .     S
C113   C867    1.392   1_554 S
C114   H118    1.085   .     S
C114   C868    1.394   .     S
C119   H123    1.084   .     S
C119   C128    1.396   .     A
C120   H124    1.084   .     S
C120   C127    1.396   .     A
C120   C206    1.369   .     S
C121   C127    1.396   .     A
C121   H125    1.084   .     S
C121   C203    1.370   .     S
C122   H126    1.084   .     S
C122   C128    1.396   .     A
C129   H133    1.082   .     S
C129   N138    1.366   .     A
C129   C636    1.416   1_545 S
C130   H134    1.082   .     S
C130   N137    1.366   .     A
C130   C383    1.416   .     S
C131   H135    1.082   .     S
C131   N138    1.366   .     A
C131   C634    1.416   1_545 S
C132   H136    1.082   .     S
C132   N137    1.366   .     A
C132   C381    1.416   .     S
C139   H140    1.110   .     S
C139   H141    1.109   .     S
C139   H142    1.109   .     S
C143   H144    1.108   .     S
C143   H145    1.105   .     S
C143   H146    1.110   .     S
C147   C152    1.406   .     A
C147   C148    1.405   .     A
C148   H153    1.083   .     S
C148   C149    1.399   .     A
C149   H154    1.083   .     S
C150   C151    1.398   .     A
C150   H155    1.082   .     S
C150   C233    1.398   .     S
C151   H156    1.082   .     S
C151   C236    1.398   .     S
C152   H157    1.082   .     S
C158   C159    1.407   .     A
C158   C163    1.407   .     A
C159   H164    1.083   .     S
C159   C244    1.399   .     S
C160   C161    1.397   .     A
C160   H165    1.082   .     S
C161   C162    1.397   .     A
C161   H166    1.082   .     S
C162   H167    1.082   .     S
C163   H168    1.083   .     S
C163   C246    1.398   .     S
O169   C173    1.280   .     A
O169   Zn181   1.991   .     S
O170   C174    1.281   .     A
O170   Zn182   1.991   .     S
O171   C174    1.281   .     A
O171   Zn181   1.992   .     S
O172   Zn182   1.992   .     S
O172   C173    1.281   .     A
C173   C212    1.412   .     S
C174   C211    1.413   .     S
O175   C179    1.284   .     A
O175   Zn181   2.002   .     S
O176   C180    1.282   .     A
O176   Zn182   2.002   .     S
O177   Zn181   2.005   .     S
O177   C180    1.280   .     A
O178   Zn182   2.005   .     S
O178   C179    1.283   .     A
C179   C186    1.428   .     S
C180   C185    1.420   .     S
Zn181  N221    2.009   .     S
Zn182  N222    2.009   .     S
C183   C193    1.376   .     A
C183   C185    1.384   .     A
C183   H199    1.087   .     S
C184   C194    1.376   .     A
C184   H200    1.087   .     S
C184   C186    1.386   .     A
C185   C187    1.405   .     A
C186   C188    1.409   .     A
C187   C189    1.415   .     A
C187   C223    1.520   .     S
C188   C227    1.520   .     S
C188   C190    1.414   .     A
C189   C195    1.425   .     A
C189   C191    1.428   .     A
C190   C196    1.424   .     A
C190   C192    1.425   .     A
C191   C193    1.409   .     A
C191   C948    1.397   .     S
C192   C194    1.406   .     A
C192   C947    1.397   1_554 S
C193   C198    1.395   .     A
C194   C197    1.392   .     A
C195   C231    1.482   .     S
C195   C953    1.392   .     S
C196   C242    1.488   .     S
C196   C954    1.394   1_554 S
C197   H201    1.086   .     S
C197   C951    1.392   1_554 S
C198   H202    1.085   .     S
C198   C952    1.394   .     S
C203   H207    1.084   .     S
C203   C212    1.396   .     A
C204   H208    1.084   .     S
C204   C211    1.396   .     A
C204   C38     1.369   1_655 S
C205   C211    1.396   .     A
C205   H209    1.084   .     S
C205   C35     1.370   1_655 S
C206   H210    1.084   .     S
C206   C212    1.396   .     A
C213   H217    1.082   .     S
C213   N222    1.366   .     A
C213   C720    1.416   1_545 S
C214   H218    1.082   .     S
C214   N221    1.366   .     A
C214   C467    1.416   .     S
C215   H219    1.082   .     S
C215   N222    1.366   .     A
C215   C718    1.416   1_545 S
C216   H220    1.082   .     S
C216   N221    1.366   .     A
C216   C465    1.416   .     S
C223   H224    1.110   .     S
C223   H225    1.109   .     S
C223   H226    1.109   .     S
C227   H228    1.108   .     S
C227   H229    1.105   .     S
C227   H230    1.110   .     S
C231   C236    1.406   .     A
C231   C232    1.405   .     A
C232   H237    1.083   .     S
C232   C233    1.399   .     A
C233   H238    1.083   .     S
C234   C235    1.398   .     A
C234   H239    1.082   .     S
C234   C65     1.398   1_655 S
C235   H240    1.082   .     S
C235   C68     1.398   1_655 S
C236   H241    1.082   .     S
C242   C243    1.407   .     A
C242   C247    1.407   .     A
C243   H248    1.083   .     S
C243   C76     1.399   1_655 S
C244   C245    1.397   .     A
C244   H249    1.082   .     S
C245   C246    1.397   .     A
C245   H250    1.082   .     S
C246   H251    1.082   .     S
C247   H252    1.083   .     S
C247   C78     1.398   1_655 S
O253   C257    1.280   .     A
O253   Zn265   1.991   .     S
O254   C258    1.281   .     A
O254   Zn266   1.991   .     S
O255   C258    1.281   .     A
O255   Zn265   1.992   .     S
O256   Zn266   1.992   .     S
O256   C257    1.281   .     A
C257   C296    1.412   .     S
C258   C295    1.413   .     S
O259   C263    1.284   .     A
O259   Zn265   2.002   .     S
O260   C264    1.282   .     A
O260   Zn266   2.002   .     S
O261   Zn265   2.005   .     S
O261   C264    1.280   .     A
O262   Zn266   2.005   .     S
O262   C263    1.283   .     A
C263   C270    1.428   .     S
C264   C269    1.420   .     S
Zn265  N305    2.009   .     S
Zn266  N306    2.009   .     S
C267   C277    1.376   .     A
C267   C269    1.384   .     A
C267   H283    1.087   .     S
C268   C278    1.376   .     A
C268   H284    1.087   .     S
C268   C270    1.386   .     A
C269   C271    1.405   .     A
C270   C272    1.409   .     A
C271   C273    1.415   .     A
C271   C307    1.520   .     S
C272   C311    1.520   .     S
C272   C274    1.414   .     A
C273   C279    1.425   .     A
C273   C275    1.428   .     A
C274   C280    1.424   .     A
C274   C276    1.425   .     A
C275   C277    1.409   .     A
C275   C1032   1.397   .     S
C276   C278    1.406   .     A
C276   C1031   1.397   1_554 S
C277   C282    1.395   .     A
C278   C281    1.392   .     A
C279   C315    1.482   .     S
C279   C1037   1.392   .     S
C280   C326    1.488   .     S
C280   C1038   1.394   1_554 S
C281   H285    1.086   .     S
C281   C1035   1.392   1_554 S
C282   H286    1.085   .     S
C282   C1036   1.394   .     S
C287   H291    1.084   .     S
C287   C296    1.396   .     A
C287   C457    1.370   1_455 S
C288   H292    1.084   .     S
C288   C295    1.396   .     A
C288   C374    1.369   .     S
C289   C295    1.396   .     A
C289   H293    1.084   .     S
C289   C371    1.370   .     S
C290   H294    1.084   .     S
C290   C296    1.396   .     A
C290   C456    1.369   1_455 S
C297   H301    1.082   .     S
C297   N306    1.366   .     A
C298   H302    1.082   .     S
C298   N305    1.366   .     A
C298   C551    1.416   .     S
C299   H303    1.082   .     S
C299   N306    1.366   .     A
C300   H304    1.082   .     S
C300   N305    1.366   .     A
C300   C549    1.416   .     S
C307   H308    1.110   .     S
C307   H309    1.109   .     S
C307   H310    1.109   .     S
C311   H312    1.108   .     S
C311   H313    1.105   .     S
C311   H314    1.110   .     S
C315   C320    1.406   .     A
C315   C316    1.405   .     A
C316   H321    1.083   .     S
C316   C317    1.399   .     A
C317   H322    1.083   .     S
C317   C486    1.398   1_455 S
C318   C319    1.398   .     A
C318   H323    1.082   .     S
C318   C401    1.398   .     S
C319   H324    1.082   .     S
C319   C404    1.398   .     S
C320   H325    1.082   .     S
C320   C487    1.398   1_455 S
C326   C327    1.407   .     A
C326   C331    1.407   .     A
C327   H332    1.083   .     S
C327   C412    1.399   .     S
C328   C329    1.397   .     A
C328   H333    1.082   .     S
C328   C495    1.399   1_455 S
C329   C330    1.397   .     A
C329   H334    1.082   .     S
C330   H335    1.082   .     S
C330   C499    1.398   1_455 S
C331   H336    1.083   .     S
C331   C414    1.398   .     S
O337   C341    1.280   .     A
O337   Zn349   1.991   .     S
O338   C342    1.281   .     A
O338   Zn350   1.991   .     S
O339   C342    1.281   .     A
O339   Zn349   1.992   .     S
O340   Zn350   1.992   .     S
O340   C341    1.281   .     A
C341   C380    1.412   .     S
C342   C379    1.413   .     S
O343   C347    1.284   .     A
O343   Zn349   2.002   .     S
O344   C348    1.282   .     A
O344   Zn350   2.002   .     S
O345   Zn349   2.005   .     S
O345   C348    1.280   .     A
O346   Zn350   2.005   .     S
O346   C347    1.283   .     A
C347   C354    1.428   .     S
C348   C353    1.420   .     S
Zn349  N389    2.009   .     S
Zn350  N390    2.009   .     S
C351   C361    1.376   .     A
C351   C353    1.384   .     A
C351   H367    1.087   .     S
C352   C362    1.376   .     A
C352   H368    1.087   .     S
C352   C354    1.386   .     A
C353   C355    1.405   .     A
C354   C356    1.409   .     A
C355   C357    1.415   .     A
C355   C391    1.520   .     S
C356   C395    1.520   .     S
C356   C358    1.414   .     A
C357   C363    1.425   .     A
C357   C359    1.428   .     A
C358   C364    1.424   .     A
C358   C360    1.425   .     A
C359   C361    1.409   .     A
C359   C1116   1.397   .     S
C360   C362    1.406   .     A
C360   C1115   1.397   1_554 S
C361   C366    1.395   .     A
C362   C365    1.392   .     A
C363   C399    1.482   .     S
C363   C1121   1.392   .     S
C364   C410    1.488   .     S
C364   C1122   1.394   1_554 S
C365   H369    1.086   .     S
C365   C1119   1.392   1_554 S
C366   H370    1.085   .     S
C366   C1120   1.394   .     S
C371   H375    1.084   .     S
C371   C380    1.396   .     A
C372   H376    1.084   .     S
C372   C379    1.396   .     A
C372   C458    1.369   .     S
C373   C379    1.396   .     A
C373   H377    1.084   .     S
C373   C455    1.370   .     S
C374   H378    1.084   .     S
C374   C380    1.396   .     A
C381   H385    1.082   .     S
C381   N390    1.366   .     A
C382   H386    1.082   .     S
C382   N389    1.366   .     A
C382   C635    1.416   .     S
C383   H387    1.082   .     S
C383   N390    1.366   .     A
C384   H388    1.082   .     S
C384   N389    1.366   .     A
C384   C633    1.416   .     S
C391   H392    1.110   .     S
C391   H393    1.109   .     S
C391   H394    1.109   .     S
C395   H396    1.108   .     S
C395   H397    1.105   .     S
C395   H398    1.110   .     S
C399   C404    1.406   .     A
C399   C400    1.405   .     A
C400   H405    1.083   .     S
C400   C401    1.399   .     A
C401   H406    1.083   .     S
C402   C403    1.398   .     A
C402   H407    1.082   .     S
C402   C485    1.398   .     S
C403   H408    1.082   .     S
C403   C488    1.398   .     S
C404   H409    1.082   .     S
C410   C411    1.407   .     A
C410   C415    1.407   .     A
C411   H416    1.083   .     S
C411   C496    1.399   .     S
C412   C413    1.397   .     A
C412   H417    1.082   .     S
C413   C414    1.397   .     A
C413   H418    1.082   .     S
C414   H419    1.082   .     S
C415   H420    1.083   .     S
C415   C498    1.398   .     S
O421   C425    1.280   .     A
O421   Zn433   1.991   .     S
O422   C426    1.281   .     A
O422   Zn434   1.991   .     S
O423   C426    1.281   .     A
O423   Zn433   1.992   .     S
O424   Zn434   1.992   .     S
O424   C425    1.281   .     A
C425   C464    1.412   .     S
C426   C463    1.413   .     S
O427   C431    1.284   .     A
O427   Zn433   2.002   .     S
O428   C432    1.282   .     A
O428   Zn434   2.002   .     S
O429   Zn433   2.005   .     S
O429   C432    1.280   .     A
O430   Zn434   2.005   .     S
O430   C431    1.283   .     A
C431   C438    1.428   .     S
C432   C437    1.420   .     S
Zn433  N473    2.009   .     S
Zn434  N474    2.009   .     S
C435   C445    1.376   .     A
C435   C437    1.384   .     A
C435   H451    1.087   .     S
C436   C446    1.376   .     A
C436   H452    1.087   .     S
C436   C438    1.386   .     A
C437   C439    1.405   .     A
C438   C440    1.409   .     A
C439   C441    1.415   .     A
C439   C475    1.520   .     S
C440   C479    1.520   .     S
C440   C442    1.414   .     A
C441   C447    1.425   .     A
C441   C443    1.428   .     A
C442   C448    1.424   .     A
C442   C444    1.425   .     A
C443   C445    1.409   .     A
C443   C1200   1.397   .     S
C444   C446    1.406   .     A
C444   C1199   1.397   1_554 S
C445   C450    1.395   .     A
C446   C449    1.392   .     A
C447   C483    1.482   .     S
C447   C1205   1.392   .     S
C448   C494    1.488   .     S
C448   C1206   1.394   1_554 S
C449   H453    1.086   .     S
C449   C1203   1.392   1_554 S
C450   H454    1.085   .     S
C450   C1204   1.394   .     S
C455   H459    1.084   .     S
C455   C464    1.396   .     A
C456   H460    1.084   .     S
C456   C463    1.396   .     A
C456   C290    1.369   1_655 S
C457   C463    1.396   .     A
C457   H461    1.084   .     S
C457   C287    1.370   1_655 S
C458   H462    1.084   .     S
C458   C464    1.396   .     A
C465   H469    1.082   .     S
C465   N474    1.366   .     A
C466   H470    1.082   .     S
C466   N473    1.366   .     A
C466   C719    1.416   .     S
C467   H471    1.082   .     S
C467   N474    1.366   .     A
C468   H472    1.082   .     S
C468   N473    1.366   .     A
C468   C717    1.416   .     S
C475   H476    1.110   .     S
C475   H477    1.109   .     S
C475   H478    1.109   .     S
C479   H480    1.108   .     S
C479   H481    1.105   .     S
C479   H482    1.110   .     S
C483   C488    1.406   .     A
C483   C484    1.405   .     A
C484   H489    1.083   .     S
C484   C485    1.399   .     A
C485   H490    1.083   .     S
C486   C487    1.398   .     A
C486   H491    1.082   .     S
C486   C317    1.398   1_655 S
C487   H492    1.082   .     S
C487   C320    1.398   1_655 S
C488   H493    1.082   .     S
C494   C495    1.407   .     A
C494   C499    1.407   .     A
C495   H500    1.083   .     S
C495   C328    1.399   1_655 S
C496   C497    1.397   .     A
C496   H501    1.082   .     S
C497   C498    1.397   .     A
C497   H502    1.082   .     S
C498   H503    1.082   .     S
C499   H504    1.083   .     S
C499   C330    1.398   1_655 S
O505   C509    1.280   .     A
O505   Zn517   1.991   .     S
O506   C510    1.281   .     A
O506   Zn518   1.991   .     S
O507   C510    1.281   .     A
O507   Zn517   1.992   .     S
O508   Zn518   1.992   .     S
O508   C509    1.281   .     A
C509   C548    1.412   .     S
C510   C547    1.413   .     S
O511   C515    1.284   .     A
O511   Zn517   2.002   .     S
O512   C516    1.282   .     A
O512   Zn518   2.002   .     S
O513   Zn517   2.005   .     S
O513   C516    1.280   .     A
O514   Zn518   2.005   .     S
O514   C515    1.283   .     A
C515   C522    1.428   .     S
C516   C521    1.420   .     S
Zn517  N557    2.009   .     S
Zn518  N558    2.009   .     S
C519   C529    1.376   .     A
C519   C521    1.384   .     A
C519   H535    1.087   .     S
C520   C530    1.376   .     A
C520   H536    1.087   .     S
C520   C522    1.386   .     A
C521   C523    1.405   .     A
C522   C524    1.409   .     A
C523   C525    1.415   .     A
C523   C559    1.520   .     S
C524   C563    1.520   .     S
C524   C526    1.414   .     A
C525   C531    1.425   .     A
C525   C527    1.428   .     A
C526   C532    1.424   .     A
C526   C528    1.425   .     A
C527   C529    1.409   .     A
C527   C1284   1.397   .     S
C528   C530    1.406   .     A
C528   C1283   1.397   1_554 S
C529   C534    1.395   .     A
C530   C533    1.392   .     A
C531   C567    1.482   .     S
C531   C1289   1.392   .     S
C532   C578    1.488   .     S
C532   C1290   1.394   1_554 S
C533   H537    1.086   .     S
C533   C1287   1.392   1_554 S
C534   H538    1.085   .     S
C534   C1288   1.394   .     S
C539   H543    1.084   .     S
C539   C548    1.396   .     A
C539   C709    1.370   1_455 S
C540   H544    1.084   .     S
C540   C547    1.396   .     A
C540   C626    1.369   .     S
C541   C547    1.396   .     A
C541   H545    1.084   .     S
C541   C623    1.370   .     S
C542   H546    1.084   .     S
C542   C548    1.396   .     A
C542   C708    1.369   1_455 S
C549   H553    1.082   .     S
C549   N558    1.366   .     A
C550   H554    1.082   .     S
C550   N557    1.366   .     A
C550   C47     1.416   1_565 S
C551   H555    1.082   .     S
C551   N558    1.366   .     A
C552   H556    1.082   .     S
C552   N557    1.366   .     A
C552   C45     1.416   1_565 S
C559   H560    1.110   .     S
C559   H561    1.109   .     S
C559   H562    1.109   .     S
C563   H564    1.108   .     S
C563   H565    1.105   .     S
C563   H566    1.110   .     S
C567   C572    1.406   .     A
C567   C568    1.405   .     A
C568   H573    1.083   .     S
C568   C569    1.399   .     A
C569   H574    1.083   .     S
C569   C738    1.398   1_455 S
C570   C571    1.398   .     A
C570   H575    1.082   .     S
C570   C653    1.398   .     S
C571   H576    1.082   .     S
C571   C656    1.398   .     S
C572   H577    1.082   .     S
C572   C739    1.398   1_455 S
C578   C579    1.407   .     A
C578   C583    1.407   .     A
C579   H584    1.083   .     S
C579   C664    1.399   .     S
C580   C581    1.397   .     A
C580   H585    1.082   .     S
C580   C747    1.399   1_455 S
C581   C582    1.397   .     A
C581   H586    1.082   .     S
C582   H587    1.082   .     S
C582   C751    1.398   1_455 S
C583   H588    1.083   .     S
C583   C666    1.398   .     S
O589   C593    1.280   .     A
O589   Zn601   1.991   .     S
O590   C594    1.281   .     A
O590   Zn602   1.991   .     S
O591   C594    1.281   .     A
O591   Zn601   1.992   .     S
O592   Zn602   1.992   .     S
O592   C593    1.281   .     A
C593   C632    1.412   .     S
C594   C631    1.413   .     S
O595   C599    1.284   .     A
O595   Zn601   2.002   .     S
O596   C600    1.282   .     A
O596   Zn602   2.002   .     S
O597   Zn601   2.005   .     S
O597   C600    1.280   .     A
O598   Zn602   2.005   .     S
O598   C599    1.283   .     A
C599   C606    1.428   .     S
C600   C605    1.420   .     S
Zn601  N641    2.009   .     S
Zn602  N642    2.009   .     S
C603   C613    1.376   .     A
C603   C605    1.384   .     A
C603   H619    1.087   .     S
C604   C614    1.376   .     A
C604   H620    1.087   .     S
C604   C606    1.386   .     A
C605   C607    1.405   .     A
C606   C608    1.409   .     A
C607   C609    1.415   .     A
C607   C643    1.520   .     S
C608   C647    1.520   .     S
C608   C610    1.414   .     A
C609   C615    1.425   .     A
C609   C611    1.428   .     A
C610   C616    1.424   .     A
C610   C612    1.425   .     A
C611   C613    1.409   .     A
C611   C1368   1.397   .     S
C612   C614    1.406   .     A
C612   C1367   1.397   1_554 S
C613   C618    1.395   .     A
C614   C617    1.392   .     A
C615   C651    1.482   .     S
C615   C1373   1.392   .     S
C616   C662    1.488   .     S
C616   C1374   1.394   1_554 S
C617   H621    1.086   .     S
C617   C1371   1.392   1_554 S
C618   H622    1.085   .     S
C618   C1372   1.394   .     S
C623   H627    1.084   .     S
C623   C632    1.396   .     A
C624   H628    1.084   .     S
C624   C631    1.396   .     A
C624   C710    1.369   .     S
C625   C631    1.396   .     A
C625   H629    1.084   .     S
C625   C707    1.370   .     S
C626   H630    1.084   .     S
C626   C632    1.396   .     A
C633   H637    1.082   .     S
C633   N642    1.366   .     A
C634   H638    1.082   .     S
C634   N641    1.366   .     A
C634   C131    1.416   1_565 S
C635   H639    1.082   .     S
C635   N642    1.366   .     A
C636   H640    1.082   .     S
C636   N641    1.366   .     A
C636   C129    1.416   1_565 S
C643   H644    1.110   .     S
C643   H645    1.109   .     S
C643   H646    1.109   .     S
C647   H648    1.108   .     S
C647   H649    1.105   .     S
C647   H650    1.110   .     S
C651   C656    1.406   .     A
C651   C652    1.405   .     A
C652   H657    1.083   .     S
C652   C653    1.399   .     A
C653   H658    1.083   .     S
C654   C655    1.398   .     A
C654   H659    1.082   .     S
C654   C737    1.398   .     S
C655   H660    1.082   .     S
C655   C740    1.398   .     S
C656   H661    1.082   .     S
C662   C663    1.407   .     A
C662   C667    1.407   .     A
C663   H668    1.083   .     S
C663   C748    1.399   .     S
C664   C665    1.397   .     A
C664   H669    1.082   .     S
C665   C666    1.397   .     A
C665   H670    1.082   .     S
C666   H671    1.082   .     S
C667   H672    1.083   .     S
C667   C750    1.398   .     S
O673   C677    1.280   .     A
O673   Zn685   1.991   .     S
O674   C678    1.281   .     A
O674   Zn686   1.991   .     S
O675   C678    1.281   .     A
O675   Zn685   1.992   .     S
O676   Zn686   1.992   .     S
O676   C677    1.281   .     A
C677   C716    1.412   .     S
C678   C715    1.413   .     S
O679   C683    1.284   .     A
O679   Zn685   2.002   .     S
O680   C684    1.282   .     A
O680   Zn686   2.002   .     S
O681   Zn685   2.005   .     S
O681   C684    1.280   .     A
O682   Zn686   2.005   .     S
O682   C683    1.283   .     A
C683   C690    1.428   .     S
C684   C689    1.420   .     S
Zn685  N725    2.009   .     S
Zn686  N726    2.009   .     S
C687   C697    1.376   .     A
C687   C689    1.384   .     A
C687   H703    1.087   .     S
C688   C698    1.376   .     A
C688   H704    1.087   .     S
C688   C690    1.386   .     A
C689   C691    1.405   .     A
C690   C692    1.409   .     A
C691   C693    1.415   .     A
C691   C727    1.520   .     S
C692   C731    1.520   .     S
C692   C694    1.414   .     A
C693   C699    1.425   .     A
C693   C695    1.428   .     A
C694   C700    1.424   .     A
C694   C696    1.425   .     A
C695   C697    1.409   .     A
C695   C1452   1.397   .     S
C696   C698    1.406   .     A
C696   C1451   1.397   1_554 S
C697   C702    1.395   .     A
C698   C701    1.392   .     A
C699   C735    1.482   .     S
C699   C1457   1.392   .     S
C700   C746    1.488   .     S
C700   C1458   1.394   1_554 S
C701   H705    1.086   .     S
C701   C1455   1.392   1_554 S
C702   H706    1.085   .     S
C702   C1456   1.394   .     S
C707   H711    1.084   .     S
C707   C716    1.396   .     A
C708   H712    1.084   .     S
C708   C715    1.396   .     A
C708   C542    1.369   1_655 S
C709   C715    1.396   .     A
C709   H713    1.084   .     S
C709   C539    1.370   1_655 S
C710   H714    1.084   .     S
C710   C716    1.396   .     A
C717   H721    1.082   .     S
C717   N726    1.366   .     A
C718   H722    1.082   .     S
C718   N725    1.366   .     A
C718   C215    1.416   1_565 S
C719   H723    1.082   .     S
C719   N726    1.366   .     A
C720   H724    1.082   .     S
C720   N725    1.366   .     A
C720   C213    1.416   1_565 S
C727   H728    1.110   .     S
C727   H729    1.109   .     S
C727   H730    1.109   .     S
C731   H732    1.108   .     S
C731   H733    1.105   .     S
C731   H734    1.110   .     S
C735   C740    1.406   .     A
C735   C736    1.405   .     A
C736   H741    1.083   .     S
C736   C737    1.399   .     A
C737   H742    1.083   .     S
C738   C739    1.398   .     A
C738   H743    1.082   .     S
C738   C569    1.398   1_655 S
C739   H744    1.082   .     S
C739   C572    1.398   1_655 S
C740   H745    1.082   .     S
C746   C747    1.407   .     A
C746   C751    1.407   .     A
C747   H752    1.083   .     S
C747   C580    1.399   1_655 S
C748   C749    1.397   .     A
C748   H753    1.082   .     S
C749   C750    1.397   .     A
C749   H754    1.082   .     S
C750   H755    1.082   .     S
C751   H756    1.083   .     S
C751   C582    1.398   1_655 S
O757   C761    1.280   .     A
O757   Zn769   1.991   .     S
O758   C762    1.281   .     A
O758   Zn770   1.991   .     S
O759   C762    1.281   .     A
O759   Zn769   1.992   .     S
O760   Zn770   1.992   .     S
O760   C761    1.281   .     A
C761   C800    1.412   .     S
C762   C799    1.413   .     S
O763   C767    1.284   .     A
O763   Zn769   2.002   .     S
O764   C768    1.282   .     A
O764   Zn770   2.002   .     S
O765   Zn769   2.005   .     S
O765   C768    1.280   .     A
O766   Zn770   2.005   .     S
O766   C767    1.283   .     A
C767   C774    1.428   .     S
C768   C773    1.420   .     S
Zn769  N809    2.009   .     S
Zn770  N810    2.009   .     S
C771   C781    1.376   .     A
C771   C773    1.384   .     A
C771   H787    1.087   .     S
C772   C782    1.376   .     A
C772   H788    1.087   .     S
C772   C774    1.386   .     A
C773   C775    1.405   .     A
C774   C776    1.409   .     A
C775   C777    1.415   .     A
C775   C811    1.520   .     S
C776   C815    1.520   .     S
C776   C778    1.414   .     A
C777   C783    1.425   .     A
C777   C779    1.428   .     A
C778   C784    1.424   .     A
C778   C780    1.425   .     A
C779   C781    1.409   .     A
C779   C24     1.397   1_556 S
C780   C782    1.406   .     A
C781   C786    1.395   .     A
C782   C785    1.392   .     A
C783   C819    1.482   .     S
C783   C29     1.392   1_556 S
C784   C830    1.488   .     S
C785   H789    1.086   .     S
C786   H790    1.085   .     S
C786   C28     1.394   1_556 S
C791   H795    1.084   .     S
C791   C800    1.396   .     A
C791   C961    1.370   1_455 S
C792   H796    1.084   .     S
C792   C799    1.396   .     A
C792   C878    1.369   .     S
C793   C799    1.396   .     A
C793   H797    1.084   .     S
C793   C875    1.370   .     S
C794   H798    1.084   .     S
C794   C800    1.396   .     A
C794   C960    1.369   1_455 S
C801   H805    1.082   .     S
C801   N810    1.366   .     A
C801   C1308   1.416   1_545 S
C802   H806    1.082   .     S
C802   N809    1.366   .     A
C802   C1055   1.416   .     S
C803   H807    1.082   .     S
C803   N810    1.366   .     A
C803   C1306   1.416   1_545 S
C804   H808    1.082   .     S
C804   N809    1.366   .     A
C804   C1053   1.416   .     S
C811   H812    1.110   .     S
C811   H813    1.109   .     S
C811   H814    1.109   .     S
C815   H816    1.108   .     S
C815   H817    1.105   .     S
C815   H818    1.110   .     S
C819   C824    1.406   .     A
C819   C820    1.405   .     A
C820   H825    1.083   .     S
C820   C821    1.399   .     A
C821   H826    1.083   .     S
C821   C990    1.398   1_455 S
C822   C823    1.398   .     A
C822   H827    1.082   .     S
C822   C905    1.398   .     S
C823   H828    1.082   .     S
C823   C908    1.398   .     S
C824   H829    1.082   .     S
C824   C991    1.398   1_455 S
C830   C831    1.407   .     A
C830   C835    1.407   .     A
C831   H836    1.083   .     S
C831   C916    1.399   .     S
C832   C833    1.397   .     A
C832   H837    1.082   .     S
C832   C999    1.399   1_455 S
C833   C834    1.397   .     A
C833   H838    1.082   .     S
C834   H839    1.082   .     S
C834   C1003   1.398   1_455 S
C835   H840    1.083   .     S
C835   C918    1.398   .     S
O841   C845    1.280   .     A
O841   Zn853   1.991   .     S
O842   C846    1.281   .     A
O842   Zn854   1.991   .     S
O843   C846    1.281   .     A
O843   Zn853   1.992   .     S
O844   Zn854   1.992   .     S
O844   C845    1.281   .     A
C845   C884    1.412   .     S
C846   C883    1.413   .     S
O847   C851    1.284   .     A
O847   Zn853   2.002   .     S
O848   C852    1.282   .     A
O848   Zn854   2.002   .     S
O849   Zn853   2.005   .     S
O849   C852    1.280   .     A
O850   Zn854   2.005   .     S
O850   C851    1.283   .     A
C851   C858    1.428   .     S
C852   C857    1.420   .     S
Zn853  N893    2.009   .     S
Zn854  N894    2.009   .     S
C855   C865    1.376   .     A
C855   C857    1.384   .     A
C855   H871    1.087   .     S
C856   C866    1.376   .     A
C856   H872    1.087   .     S
C856   C858    1.386   .     A
C857   C859    1.405   .     A
C858   C860    1.409   .     A
C859   C861    1.415   .     A
C859   C895    1.520   .     S
C860   C899    1.520   .     S
C860   C862    1.414   .     A
C861   C867    1.425   .     A
C861   C863    1.428   .     A
C862   C868    1.424   .     A
C862   C864    1.425   .     A
C863   C865    1.409   .     A
C863   C108    1.397   1_556 S
C864   C866    1.406   .     A
C865   C870    1.395   .     A
C866   C869    1.392   .     A
C867   C903    1.482   .     S
C867   C113    1.392   1_556 S
C868   C914    1.488   .     S
C869   H873    1.086   .     S
C870   H874    1.085   .     S
C870   C112    1.394   1_556 S
C875   H879    1.084   .     S
C875   C884    1.396   .     A
C876   H880    1.084   .     S
C876   C883    1.396   .     A
C876   C962    1.369   .     S
C877   C883    1.396   .     A
C877   H881    1.084   .     S
C877   C959    1.370   .     S
C878   H882    1.084   .     S
C878   C884    1.396   .     A
C885   H889    1.082   .     S
C885   N894    1.366   .     A
C885   C1392   1.416   1_545 S
C886   H890    1.082   .     S
C886   N893    1.366   .     A
C886   C1139   1.416   .     S
C887   H891    1.082   .     S
C887   N894    1.366   .     A
C887   C1390   1.416   1_545 S
C888   H892    1.082   .     S
C888   N893    1.366   .     A
C888   C1137   1.416   .     S
C895   H896    1.110   .     S
C895   H897    1.109   .     S
C895   H898    1.109   .     S
C899   H900    1.108   .     S
C899   H901    1.105   .     S
C899   H902    1.110   .     S
C903   C908    1.406   .     A
C903   C904    1.405   .     A
C904   H909    1.083   .     S
C904   C905    1.399   .     A
C905   H910    1.083   .     S
C906   C907    1.398   .     A
C906   H911    1.082   .     S
C906   C989    1.398   .     S
C907   H912    1.082   .     S
C907   C992    1.398   .     S
C908   H913    1.082   .     S
C914   C915    1.407   .     A
C914   C919    1.407   .     A
C915   H920    1.083   .     S
C915   C1000   1.399   .     S
C916   C917    1.397   .     A
C916   H921    1.082   .     S
C917   C918    1.397   .     A
C917   H922    1.082   .     S
C918   H923    1.082   .     S
C919   H924    1.083   .     S
C919   C1002   1.398   .     S
O925   C929    1.280   .     A
O925   Zn937   1.991   .     S
O926   C930    1.281   .     A
O926   Zn938   1.991   .     S
O927   C930    1.281   .     A
O927   Zn937   1.992   .     S
O928   Zn938   1.992   .     S
O928   C929    1.281   .     A
C929   C968    1.412   .     S
C930   C967    1.413   .     S
O931   C935    1.284   .     A
O931   Zn937   2.002   .     S
O932   C936    1.282   .     A
O932   Zn938   2.002   .     S
O933   Zn937   2.005   .     S
O933   C936    1.280   .     A
O934   Zn938   2.005   .     S
O934   C935    1.283   .     A
C935   C942    1.428   .     S
C936   C941    1.420   .     S
Zn937  N977    2.009   .     S
Zn938  N978    2.009   .     S
C939   C949    1.376   .     A
C939   C941    1.384   .     A
C939   H955    1.087   .     S
C940   C950    1.376   .     A
C940   H956    1.087   .     S
C940   C942    1.386   .     A
C941   C943    1.405   .     A
C942   C944    1.409   .     A
C943   C945    1.415   .     A
C943   C979    1.520   .     S
C944   C983    1.520   .     S
C944   C946    1.414   .     A
C945   C951    1.425   .     A
C945   C947    1.428   .     A
C946   C952    1.424   .     A
C946   C948    1.425   .     A
C947   C949    1.409   .     A
C947   C192    1.397   1_556 S
C948   C950    1.406   .     A
C949   C954    1.395   .     A
C950   C953    1.392   .     A
C951   C987    1.482   .     S
C951   C197    1.392   1_556 S
C952   C998    1.488   .     S
C953   H957    1.086   .     S
C954   H958    1.085   .     S
C954   C196    1.394   1_556 S
C959   H963    1.084   .     S
C959   C968    1.396   .     A
C960   H964    1.084   .     S
C960   C967    1.396   .     A
C960   C794    1.369   1_655 S
C961   C967    1.396   .     A
C961   H965    1.084   .     S
C961   C791    1.370   1_655 S
C962   H966    1.084   .     S
C962   C968    1.396   .     A
C969   H973    1.082   .     S
C969   N978    1.366   .     A
C969   C1476   1.416   1_545 S
C970   H974    1.082   .     S
C970   N977    1.366   .     A
C970   C1223   1.416   .     S
C971   H975    1.082   .     S
C971   N978    1.366   .     A
C971   C1474   1.416   1_545 S
C972   H976    1.082   .     S
C972   N977    1.366   .     A
C972   C1221   1.416   .     S
C979   H980    1.110   .     S
C979   H981    1.109   .     S
C979   H982    1.109   .     S
C983   H984    1.108   .     S
C983   H985    1.105   .     S
C983   H986    1.110   .     S
C987   C992    1.406   .     A
C987   C988    1.405   .     A
C988   H993    1.083   .     S
C988   C989    1.399   .     A
C989   H994    1.083   .     S
C990   C991    1.398   .     A
C990   H995    1.082   .     S
C990   C821    1.398   1_655 S
C991   H996    1.082   .     S
C991   C824    1.398   1_655 S
C992   H997    1.082   .     S
C998   C999    1.407   .     A
C998   C1003   1.407   .     A
C999   H1004   1.083   .     S
C999   C832    1.399   1_655 S
C1000  C1001   1.397   .     A
C1000  H1005   1.082   .     S
C1001  C1002   1.397   .     A
C1001  H1006   1.082   .     S
C1002  H1007   1.082   .     S
C1003  H1008   1.083   .     S
C1003  C834    1.398   1_655 S
O1009  C1013   1.280   .     A
O1009  Zn1021  1.991   .     S
O1010  C1014   1.281   .     A
O1010  Zn1022  1.991   .     S
O1011  C1014   1.281   .     A
O1011  Zn1021  1.992   .     S
O1012  Zn1022  1.992   .     S
O1012  C1013   1.281   .     A
C1013  C1052   1.412   .     S
C1014  C1051   1.413   .     S
O1015  C1019   1.284   .     A
O1015  Zn1021  2.002   .     S
O1016  C1020   1.282   .     A
O1016  Zn1022  2.002   .     S
O1017  Zn1021  2.005   .     S
O1017  C1020   1.280   .     A
O1018  Zn1022  2.005   .     S
O1018  C1019   1.283   .     A
C1019  C1026   1.428   .     S
C1020  C1025   1.420   .     S
Zn1021 N1061   2.009   .     S
Zn1022 N1062   2.009   .     S
C1023  C1033   1.376   .     A
C1023  C1025   1.384   .     A
C1023  H1039   1.087   .     S
C1024  C1034   1.376   .     A
C1024  H1040   1.087   .     S
C1024  C1026   1.386   .     A
C1025  C1027   1.405   .     A
C1026  C1028   1.409   .     A
C1027  C1029   1.415   .     A
C1027  C1063   1.520   .     S
C1028  C1067   1.520   .     S
C1028  C1030   1.414   .     A
C1029  C1035   1.425   .     A
C1029  C1031   1.428   .     A
C1030  C1036   1.424   .     A
C1030  C1032   1.425   .     A
C1031  C1033   1.409   .     A
C1031  C276    1.397   1_556 S
C1032  C1034   1.406   .     A
C1033  C1038   1.395   .     A
C1034  C1037   1.392   .     A
C1035  C1071   1.482   .     S
C1035  C281    1.392   1_556 S
C1036  C1082   1.488   .     S
C1037  H1041   1.086   .     S
C1038  H1042   1.085   .     S
C1038  C280    1.394   1_556 S
C1043  H1047   1.084   .     S
C1043  C1052   1.396   .     A
C1043  C1213   1.370   1_455 S
C1044  H1048   1.084   .     S
C1044  C1051   1.396   .     A
C1044  C1130   1.369   .     S
C1045  C1051   1.396   .     A
C1045  H1049   1.084   .     S
C1045  C1127   1.370   .     S
C1046  H1050   1.084   .     S
C1046  C1052   1.396   .     A
C1046  C1212   1.369   1_455 S
C1053  H1057   1.082   .     S
C1053  N1062   1.366   .     A
C1054  H1058   1.082   .     S
C1054  N1061   1.366   .     A
C1054  C1307   1.416   .     S
C1055  H1059   1.082   .     S
C1055  N1062   1.366   .     A
C1056  H1060   1.082   .     S
C1056  N1061   1.366   .     A
C1056  C1305   1.416   .     S
C1063  H1064   1.110   .     S
C1063  H1065   1.109   .     S
C1063  H1066   1.109   .     S
C1067  H1068   1.108   .     S
C1067  H1069   1.105   .     S
C1067  H1070   1.110   .     S
C1071  C1076   1.406   .     A
C1071  C1072   1.405   .     A
C1072  H1077   1.083   .     S
C1072  C1073   1.399   .     A
C1073  H1078   1.083   .     S
C1073  C1242   1.398   1_455 S
C1074  C1075   1.398   .     A
C1074  H1079   1.082   .     S
C1074  C1157   1.398   .     S
C1075  H1080   1.082   .     S
C1075  C1160   1.398   .     S
C1076  H1081   1.082   .     S
C1076  C1243   1.398   1_455 S
C1082  C1083   1.407   .     A
C1082  C1087   1.407   .     A
C1083  H1088   1.083   .     S
C1083  C1168   1.399   .     S
C1084  C1085   1.397   .     A
C1084  H1089   1.082   .     S
C1084  C1251   1.399   1_455 S
C1085  C1086   1.397   .     A
C1085  H1090   1.082   .     S
C1086  H1091   1.082   .     S
C1086  C1255   1.398   1_455 S
C1087  H1092   1.083   .     S
C1087  C1170   1.398   .     S
O1093  C1097   1.280   .     A
O1093  Zn1105  1.991   .     S
O1094  C1098   1.281   .     A
O1094  Zn1106  1.991   .     S
O1095  C1098   1.281   .     A
O1095  Zn1105  1.992   .     S
O1096  Zn1106  1.992   .     S
O1096  C1097   1.281   .     A
C1097  C1136   1.412   .     S
C1098  C1135   1.413   .     S
O1099  C1103   1.284   .     A
O1099  Zn1105  2.002   .     S
O1100  C1104   1.282   .     A
O1100  Zn1106  2.002   .     S
O1101  Zn1105  2.005   .     S
O1101  C1104   1.280   .     A
O1102  Zn1106  2.005   .     S
O1102  C1103   1.283   .     A
C1103  C1110   1.428   .     S
C1104  C1109   1.420   .     S
Zn1105 N1145   2.009   .     S
Zn1106 N1146   2.009   .     S
C1107  C1117   1.376   .     A
C1107  C1109   1.384   .     A
C1107  H1123   1.087   .     S
C1108  C1118   1.376   .     A
C1108  H1124   1.087   .     S
C1108  C1110   1.386   .     A
C1109  C1111   1.405   .     A
C1110  C1112   1.409   .     A
C1111  C1113   1.415   .     A
C1111  C1147   1.520   .     S
C1112  C1151   1.520   .     S
C1112  C1114   1.414   .     A
C1113  C1119   1.425   .     A
C1113  C1115   1.428   .     A
C1114  C1120   1.424   .     A
C1114  C1116   1.425   .     A
C1115  C1117   1.409   .     A
C1115  C360    1.397   1_556 S
C1116  C1118   1.406   .     A
C1117  C1122   1.395   .     A
C1118  C1121   1.392   .     A
C1119  C1155   1.482   .     S
C1119  C365    1.392   1_556 S
C1120  C1166   1.488   .     S
C1121  H1125   1.086   .     S
C1122  H1126   1.085   .     S
C1122  C364    1.394   1_556 S
C1127  H1131   1.084   .     S
C1127  C1136   1.396   .     A
C1128  H1132   1.084   .     S
C1128  C1135   1.396   .     A
C1128  C1214   1.369   .     S
C1129  C1135   1.396   .     A
C1129  H1133   1.084   .     S
C1129  C1211   1.370   .     S
C1130  H1134   1.084   .     S
C1130  C1136   1.396   .     A
C1137  H1141   1.082   .     S
C1137  N1146   1.366   .     A
C1138  H1142   1.082   .     S
C1138  N1145   1.366   .     A
C1138  C1391   1.416   .     S
C1139  H1143   1.082   .     S
C1139  N1146   1.366   .     A
C1140  H1144   1.082   .     S
C1140  N1145   1.366   .     A
C1140  C1389   1.416   .     S
C1147  H1148   1.110   .     S
C1147  H1149   1.109   .     S
C1147  H1150   1.109   .     S
C1151  H1152   1.108   .     S
C1151  H1153   1.105   .     S
C1151  H1154   1.110   .     S
C1155  C1160   1.406   .     A
C1155  C1156   1.405   .     A
C1156  H1161   1.083   .     S
C1156  C1157   1.399   .     A
C1157  H1162   1.083   .     S
C1158  C1159   1.398   .     A
C1158  H1163   1.082   .     S
C1158  C1241   1.398   .     S
C1159  H1164   1.082   .     S
C1159  C1244   1.398   .     S
C1160  H1165   1.082   .     S
C1166  C1167   1.407   .     A
C1166  C1171   1.407   .     A
C1167  H1172   1.083   .     S
C1167  C1252   1.399   .     S
C1168  C1169   1.397   .     A
C1168  H1173   1.082   .     S
C1169  C1170   1.397   .     A
C1169  H1174   1.082   .     S
C1170  H1175   1.082   .     S
C1171  H1176   1.083   .     S
C1171  C1254   1.398   .     S
O1177  C1181   1.280   .     A
O1177  Zn1189  1.991   .     S
O1178  C1182   1.281   .     A
O1178  Zn1190  1.991   .     S
O1179  C1182   1.281   .     A
O1179  Zn1189  1.992   .     S
O1180  Zn1190  1.992   .     S
O1180  C1181   1.281   .     A
C1181  C1220   1.412   .     S
C1182  C1219   1.413   .     S
O1183  C1187   1.284   .     A
O1183  Zn1189  2.002   .     S
O1184  C1188   1.282   .     A
O1184  Zn1190  2.002   .     S
O1185  Zn1189  2.005   .     S
O1185  C1188   1.280   .     A
O1186  Zn1190  2.005   .     S
O1186  C1187   1.283   .     A
C1187  C1194   1.428   .     S
C1188  C1193   1.420   .     S
Zn1189 N1229   2.009   .     S
Zn1190 N1230   2.009   .     S
C1191  C1201   1.376   .     A
C1191  C1193   1.384   .     A
C1191  H1207   1.087   .     S
C1192  C1202   1.376   .     A
C1192  H1208   1.087   .     S
C1192  C1194   1.386   .     A
C1193  C1195   1.405   .     A
C1194  C1196   1.409   .     A
C1195  C1197   1.415   .     A
C1195  C1231   1.520   .     S
C1196  C1235   1.520   .     S
C1196  C1198   1.414   .     A
C1197  C1203   1.425   .     A
C1197  C1199   1.428   .     A
C1198  C1204   1.424   .     A
C1198  C1200   1.425   .     A
C1199  C1201   1.409   .     A
C1199  C444    1.397   1_556 S
C1200  C1202   1.406   .     A
C1201  C1206   1.395   .     A
C1202  C1205   1.392   .     A
C1203  C1239   1.482   .     S
C1203  C449    1.392   1_556 S
C1204  C1250   1.488   .     S
C1205  H1209   1.086   .     S
C1206  H1210   1.085   .     S
C1206  C448    1.394   1_556 S
C1211  H1215   1.084   .     S
C1211  C1220   1.396   .     A
C1212  H1216   1.084   .     S
C1212  C1219   1.396   .     A
C1212  C1046   1.369   1_655 S
C1213  C1219   1.396   .     A
C1213  H1217   1.084   .     S
C1213  C1043   1.370   1_655 S
C1214  H1218   1.084   .     S
C1214  C1220   1.396   .     A
C1221  H1225   1.082   .     S
C1221  N1230   1.366   .     A
C1222  H1226   1.082   .     S
C1222  N1229   1.366   .     A
C1222  C1475   1.416   .     S
C1223  H1227   1.082   .     S
C1223  N1230   1.366   .     A
C1224  H1228   1.082   .     S
C1224  N1229   1.366   .     A
C1224  C1473   1.416   .     S
C1231  H1232   1.110   .     S
C1231  H1233   1.109   .     S
C1231  H1234   1.109   .     S
C1235  H1236   1.108   .     S
C1235  H1237   1.105   .     S
C1235  H1238   1.110   .     S
C1239  C1244   1.406   .     A
C1239  C1240   1.405   .     A
C1240  H1245   1.083   .     S
C1240  C1241   1.399   .     A
C1241  H1246   1.083   .     S
C1242  C1243   1.398   .     A
C1242  H1247   1.082   .     S
C1242  C1073   1.398   1_655 S
C1243  H1248   1.082   .     S
C1243  C1076   1.398   1_655 S
C1244  H1249   1.082   .     S
C1250  C1251   1.407   .     A
C1250  C1255   1.407   .     A
C1251  H1256   1.083   .     S
C1251  C1084   1.399   1_655 S
C1252  C1253   1.397   .     A
C1252  H1257   1.082   .     S
C1253  C1254   1.397   .     A
C1253  H1258   1.082   .     S
C1254  H1259   1.082   .     S
C1255  H1260   1.083   .     S
C1255  C1086   1.398   1_655 S
O1261  C1265   1.280   .     A
O1261  Zn1273  1.991   .     S
O1262  C1266   1.281   .     A
O1262  Zn1274  1.991   .     S
O1263  C1266   1.281   .     A
O1263  Zn1273  1.992   .     S
O1264  Zn1274  1.992   .     S
O1264  C1265   1.281   .     A
C1265  C1304   1.412   .     S
C1266  C1303   1.413   .     S
O1267  C1271   1.284   .     A
O1267  Zn1273  2.002   .     S
O1268  C1272   1.282   .     A
O1268  Zn1274  2.002   .     S
O1269  Zn1273  2.005   .     S
O1269  C1272   1.280   .     A
O1270  Zn1274  2.005   .     S
O1270  C1271   1.283   .     A
C1271  C1278   1.428   .     S
C1272  C1277   1.420   .     S
Zn1273 N1313   2.009   .     S
Zn1274 N1314   2.009   .     S
C1275  C1285   1.376   .     A
C1275  C1277   1.384   .     A
C1275  H1291   1.087   .     S
C1276  C1286   1.376   .     A
C1276  H1292   1.087   .     S
C1276  C1278   1.386   .     A
C1277  C1279   1.405   .     A
C1278  C1280   1.409   .     A
C1279  C1281   1.415   .     A
C1279  C1315   1.520   .     S
C1280  C1319   1.520   .     S
C1280  C1282   1.414   .     A
C1281  C1287   1.425   .     A
C1281  C1283   1.428   .     A
C1282  C1288   1.424   .     A
C1282  C1284   1.425   .     A
C1283  C1285   1.409   .     A
C1283  C528    1.397   1_556 S
C1284  C1286   1.406   .     A
C1285  C1290   1.395   .     A
C1286  C1289   1.392   .     A
C1287  C1323   1.482   .     S
C1287  C533    1.392   1_556 S
C1288  C1334   1.488   .     S
C1289  H1293   1.086   .     S
C1290  H1294   1.085   .     S
C1290  C532    1.394   1_556 S
C1295  H1299   1.084   .     S
C1295  C1304   1.396   .     A
C1295  C1465   1.370   1_455 S
C1296  H1300   1.084   .     S
C1296  C1303   1.396   .     A
C1296  C1382   1.369   .     S
C1297  C1303   1.396   .     A
C1297  H1301   1.084   .     S
C1297  C1379   1.370   .     S
C1298  H1302   1.084   .     S
C1298  C1304   1.396   .     A
C1298  C1464   1.369   1_455 S
C1305  H1309   1.082   .     S
C1305  N1314   1.366   .     A
C1306  H1310   1.082   .     S
C1306  N1313   1.366   .     A
C1306  C803    1.416   1_565 S
C1307  H1311   1.082   .     S
C1307  N1314   1.366   .     A
C1308  H1312   1.082   .     S
C1308  N1313   1.366   .     A
C1308  C801    1.416   1_565 S
C1315  H1316   1.110   .     S
C1315  H1317   1.109   .     S
C1315  H1318   1.109   .     S
C1319  H1320   1.108   .     S
C1319  H1321   1.105   .     S
C1319  H1322   1.110   .     S
C1323  C1328   1.406   .     A
C1323  C1324   1.405   .     A
C1324  H1329   1.083   .     S
C1324  C1325   1.399   .     A
C1325  H1330   1.083   .     S
C1325  C1494   1.398   1_455 S
C1326  C1327   1.398   .     A
C1326  H1331   1.082   .     S
C1326  C1409   1.398   .     S
C1327  H1332   1.082   .     S
C1327  C1412   1.398   .     S
C1328  H1333   1.082   .     S
C1328  C1495   1.398   1_455 S
C1334  C1335   1.407   .     A
C1334  C1339   1.407   .     A
C1335  H1340   1.083   .     S
C1335  C1420   1.399   .     S
C1336  C1337   1.397   .     A
C1336  H1341   1.082   .     S
C1336  C1503   1.399   1_455 S
C1337  C1338   1.397   .     A
C1337  H1342   1.082   .     S
C1338  H1343   1.082   .     S
C1338  C1507   1.398   1_455 S
C1339  H1344   1.083   .     S
C1339  C1422   1.398   .     S
O1345  C1349   1.280   .     A
O1345  Zn1357  1.991   .     S
O1346  C1350   1.281   .     A
O1346  Zn1358  1.991   .     S
O1347  C1350   1.281   .     A
O1347  Zn1357  1.992   .     S
O1348  Zn1358  1.992   .     S
O1348  C1349   1.281   .     A
C1349  C1388   1.412   .     S
C1350  C1387   1.413   .     S
O1351  C1355   1.284   .     A
O1351  Zn1357  2.002   .     S
O1352  C1356   1.282   .     A
O1352  Zn1358  2.002   .     S
O1353  Zn1357  2.005   .     S
O1353  C1356   1.280   .     A
O1354  Zn1358  2.005   .     S
O1354  C1355   1.283   .     A
C1355  C1362   1.428   .     S
C1356  C1361   1.420   .     S
Zn1357 N1397   2.009   .     S
Zn1358 N1398   2.009   .     S
C1359  C1369   1.376   .     A
C1359  C1361   1.384   .     A
C1359  H1375   1.087   .     S
C1360  C1370   1.376   .     A
C1360  H1376   1.087   .     S
C1360  C1362   1.386   .     A
C1361  C1363   1.405   .     A
C1362  C1364   1.409   .     A
C1363  C1365   1.415   .     A
C1363  C1399   1.520   .     S
C1364  C1403   1.520   .     S
C1364  C1366   1.414   .     A
C1365  C1371   1.425   .     A
C1365  C1367   1.428   .     A
C1366  C1372   1.424   .     A
C1366  C1368   1.425   .     A
C1367  C1369   1.409   .     A
C1367  C612    1.397   1_556 S
C1368  C1370   1.406   .     A
C1369  C1374   1.395   .     A
C1370  C1373   1.392   .     A
C1371  C1407   1.482   .     S
C1371  C617    1.392   1_556 S
C1372  C1418   1.488   .     S
C1373  H1377   1.086   .     S
C1374  H1378   1.085   .     S
C1374  C616    1.394   1_556 S
C1379  H1383   1.084   .     S
C1379  C1388   1.396   .     A
C1380  H1384   1.084   .     S
C1380  C1387   1.396   .     A
C1380  C1466   1.369   .     S
C1381  C1387   1.396   .     A
C1381  H1385   1.084   .     S
C1381  C1463   1.370   .     S
C1382  H1386   1.084   .     S
C1382  C1388   1.396   .     A
C1389  H1393   1.082   .     S
C1389  N1398   1.366   .     A
C1390  H1394   1.082   .     S
C1390  N1397   1.366   .     A
C1390  C887    1.416   1_565 S
C1391  H1395   1.082   .     S
C1391  N1398   1.366   .     A
C1392  H1396   1.082   .     S
C1392  N1397   1.366   .     A
C1392  C885    1.416   1_565 S
C1399  H1400   1.110   .     S
C1399  H1401   1.109   .     S
C1399  H1402   1.109   .     S
C1403  H1404   1.108   .     S
C1403  H1405   1.105   .     S
C1403  H1406   1.110   .     S
C1407  C1412   1.406   .     A
C1407  C1408   1.405   .     A
C1408  H1413   1.083   .     S
C1408  C1409   1.399   .     A
C1409  H1414   1.083   .     S
C1410  C1411   1.398   .     A
C1410  H1415   1.082   .     S
C1410  C1493   1.398   .     S
C1411  H1416   1.082   .     S
C1411  C1496   1.398   .     S
C1412  H1417   1.082   .     S
C1418  C1419   1.407   .     A
C1418  C1423   1.407   .     A
C1419  H1424   1.083   .     S
C1419  C1504   1.399   .     S
C1420  C1421   1.397   .     A
C1420  H1425   1.082   .     S
C1421  C1422   1.397   .     A
C1421  H1426   1.082   .     S
C1422  H1427   1.082   .     S
C1423  H1428   1.083   .     S
C1423  C1506   1.398   .     S
O1429  C1433   1.280   .     A
O1429  Zn1441  1.991   .     S
O1430  C1434   1.281   .     A
O1430  Zn1442  1.991   .     S
O1431  C1434   1.281   .     A
O1431  Zn1441  1.992   .     S
O1432  Zn1442  1.992   .     S
O1432  C1433   1.281   .     A
C1433  C1472   1.412   .     S
C1434  C1471   1.413   .     S
O1435  C1439   1.284   .     A
O1435  Zn1441  2.002   .     S
O1436  C1440   1.282   .     A
O1436  Zn1442  2.002   .     S
O1437  Zn1441  2.005   .     S
O1437  C1440   1.280   .     A
O1438  Zn1442  2.005   .     S
O1438  C1439   1.283   .     A
C1439  C1446   1.428   .     S
C1440  C1445   1.420   .     S
Zn1441 N1481   2.009   .     S
Zn1442 N1482   2.009   .     S
C1443  C1453   1.376   .     A
C1443  C1445   1.384   .     A
C1443  H1459   1.087   .     S
C1444  C1454   1.376   .     A
C1444  H1460   1.087   .     S
C1444  C1446   1.386   .     A
C1445  C1447   1.405   .     A
C1446  C1448   1.409   .     A
C1447  C1449   1.415   .     A
C1447  C1483   1.520   .     S
C1448  C1487   1.520   .     S
C1448  C1450   1.414   .     A
C1449  C1455   1.425   .     A
C1449  C1451   1.428   .     A
C1450  C1456   1.424   .     A
C1450  C1452   1.425   .     A
C1451  C1453   1.409   .     A
C1451  C696    1.397   1_556 S
C1452  C1454   1.406   .     A
C1453  C1458   1.395   .     A
C1454  C1457   1.392   .     A
C1455  C1491   1.482   .     S
C1455  C701    1.392   1_556 S
C1456  C1502   1.488   .     S
C1457  H1461   1.086   .     S
C1458  H1462   1.085   .     S
C1458  C700    1.394   1_556 S
C1463  H1467   1.084   .     S
C1463  C1472   1.396   .     A
C1464  H1468   1.084   .     S
C1464  C1471   1.396   .     A
C1464  C1298   1.369   1_655 S
C1465  C1471   1.396   .     A
C1465  H1469   1.084   .     S
C1465  C1295   1.370   1_655 S
C1466  H1470   1.084   .     S
C1466  C1472   1.396   .     A
C1473  H1477   1.082   .     S
C1473  N1482   1.366   .     A
C1474  H1478   1.082   .     S
C1474  N1481   1.366   .     A
C1474  C971    1.416   1_565 S
C1475  H1479   1.082   .     S
C1475  N1482   1.366   .     A
C1476  H1480   1.082   .     S
C1476  N1481   1.366   .     A
C1476  C969    1.416   1_565 S
C1483  H1484   1.110   .     S
C1483  H1485   1.109   .     S
C1483  H1486   1.109   .     S
C1487  H1488   1.108   .     S
C1487  H1489   1.105   .     S
C1487  H1490   1.110   .     S
C1491  C1496   1.406   .     A
C1491  C1492   1.405   .     A
C1492  H1497   1.083   .     S
C1492  C1493   1.399   .     A
C1493  H1498   1.083   .     S
C1494  C1495   1.398   .     A
C1494  H1499   1.082   .     S
C1494  C1325   1.398   1_655 S
C1495  H1500   1.082   .     S
C1495  C1328   1.398   1_655 S
C1496  H1501   1.082   .     S
C1502  C1503   1.407   .     A
C1502  C1507   1.407   .     A
C1503  H1508   1.083   .     S
C1503  C1336   1.399   1_655 S
C1504  C1505   1.397   .     A
C1504  H1509   1.082   .     S
C1505  C1506   1.397   .     A
C1505  H1510   1.082   .     S
C1506  H1511   1.082   .     S
C1507  H1512   1.083   .     S
C1507  C1338   1.398   1_655 S
