data_str_m1_o10_o16_pcu_sym.151
_audit_creation_date              2020-01-03
_audit_creation_method            'Materials Studio'
_symmetry_space_group_name_H-M    'P1'
_symmetry_Int_Tables_number       1
_symmetry_cell_setting            triclinic
loop_
_symmetry_equiv_pos_as_xyz
  x,y,z
_cell_length_a                    32.5629
_cell_length_b                    32.5964
_cell_length_c                    30.8447
_cell_angle_alpha                 96.8894
_cell_angle_beta                  74.8696
_cell_angle_gamma                 98.6473
loop_
_atom_site_label
_atom_site_type_symbol
_atom_site_fract_x
_atom_site_fract_y
_atom_site_fract_z
_atom_site_U_iso_or_equiv
_atom_site_adp_type
_atom_site_occupancy
Br1    Br    0.22711   0.01349   0.19044   0.00000  Uiso   1.00
Br2    Br    0.20150   0.02627   0.49932   0.00000  Uiso   1.00
Br3    Br    0.20337   0.22441   0.06692   0.00000  Uiso   1.00
Br4    Br    0.11975   0.27636   0.41049   0.00000  Uiso   1.00
Br5    Br    0.09746   0.28759   0.02259   0.00000  Uiso   1.00
Br6    Br    0.11254   0.09214   0.39220   0.00000  Uiso   1.00
C7     C     0.05267   0.15948   0.26009   0.00000  Uiso   1.00
C8     C     0.18451   0.16608   0.05330   0.00000  Uiso   1.00
C9     C     0.19492   0.09630   0.06364   0.00000  Uiso   1.00
C10    C     0.28077   0.17383   0.24002   0.00000  Uiso   1.00
C11    C     0.13931   0.19257   0.42111   0.00000  Uiso   1.00
C12    C     0.32661   0.17677   0.23602   0.00000  Uiso   1.00
C13    C     0.00748   0.15699   0.26366   0.00000  Uiso   1.00
C14    C     0.18026   0.32242   0.23621   0.00000  Uiso   1.00
C15    C     0.15167   0.01208   0.26383   0.00000  Uiso   1.00
C16    C     0.15586   0.05597   0.26038   0.00000  Uiso   1.00
C17    C     0.17650   0.27791   0.24014   0.00000  Uiso   1.00
C18    C     0.12117   0.23926   0.48946   0.00000  Uiso   1.00
C19    C     0.18499   0.14801   0.12905   0.00000  Uiso   1.00
C20    C     0.14828   0.18477   0.37127   0.00000  Uiso   1.00
C21    C     0.18896   0.08214   0.02099   0.00000  Uiso   1.00
C22    C     0.19151   0.13776   0.08038   0.00000  Uiso   1.00
C23    C     0.12716   0.23168   0.44270   0.00000  Uiso   1.00
C24    C     0.13361   0.21184   0.01327   0.00000  Uiso   1.00
C25    C     0.15159   0.17596   0.49148   0.00000  Uiso   1.00
C26    C     0.14624   0.16263   0.44771   0.00000  Uiso   1.00
C27    C     0.16999   0.15075   0.01399   0.00000  Uiso   1.00
C28    C     0.17372   0.10845   0.49682   0.00000  Uiso   1.00
C29    C     0.15976   0.09321   0.45764   0.00000  Uiso   1.00
C30    C     0.14532   0.11954   0.43386   0.00000  Uiso   1.00
F31    F     0.20399   0.06943   0.08933   0.00000  Uiso   1.00
F32    F     0.11823   0.32888   0.29610   0.00000  Uiso   1.00
F33    F     0.15709   0.05208   0.44347   0.00000  Uiso   1.00
F34    F     0.02118   0.19965   0.20412   0.00000  Uiso   1.00
H35    H     0.31915   0.13852   0.28929   0.00000  Uiso   1.00
H36    H     0.12738   0.21810   0.04942   0.00000  Uiso   1.00
O37    O     0.16667   0.16667   0.25000   0.00000  Uiso   1.00
O38    O     0.15451   0.12637   0.15458   0.00000  Uiso   1.00
O39    O     0.12940   0.20391   0.34968   0.00000  Uiso   1.00
O40    O     0.20824   0.17759   0.14606   0.00000  Uiso   1.00
O41    O     0.17451   0.15880   0.34968   0.00000  Uiso   1.00
O42    O     0.17930   0.08019   0.28213   0.00000  Uiso   1.00
O43    O     0.14632   0.26085   0.27013   0.00000  Uiso   1.00
O44    O     0.07412   0.13291   0.23413   0.00000  Uiso   1.00
O45    O     0.26693   0.19272   0.21360   0.00000  Uiso   1.00
O46    O     0.07071   0.18878   0.28213   0.00000  Uiso   1.00
O47    O     0.25491   0.15226   0.27013   0.00000  Uiso   1.00
O48    O     0.13760   0.06944   0.23413   0.00000  Uiso   1.00
O49    O     0.20345   0.25620   0.21360   0.00000  Uiso   1.00
Zn50   Zn    0.19338   0.13994   0.28734   0.00000  Uiso   1.00
Zn51   Zn    0.13379   0.12458   0.21875   0.00000  Uiso   1.00
Zn52   Zn    0.21056   0.19775   0.20657   0.00000  Uiso   1.00
Zn53   Zn    0.12893   0.20439   0.28733   0.00000  Uiso   1.00
Br54   Br    0.56044   0.01349   0.19044   0.00000  Uiso   1.00
Br55   Br    0.53484   0.02627   0.49932   0.00000  Uiso   1.00
Br56   Br    0.53670   0.22441   0.06692   0.00000  Uiso   1.00
Br57   Br    0.45309   0.27636   0.41049   0.00000  Uiso   1.00
Br58   Br    0.43080   0.28759   0.02259   0.00000  Uiso   1.00
Br59   Br    0.44587   0.09214   0.39220   0.00000  Uiso   1.00
C60    C     0.38601   0.15948   0.26009   0.00000  Uiso   1.00
C61    C     0.51784   0.16608   0.05330   0.00000  Uiso   1.00
C62    C     0.52825   0.09630   0.06364   0.00000  Uiso   1.00
C63    C     0.61410   0.17383   0.24002   0.00000  Uiso   1.00
C64    C     0.47264   0.19257   0.42111   0.00000  Uiso   1.00
C65    C     0.65995   0.17677   0.23602   0.00000  Uiso   1.00
C66    C     0.34081   0.15699   0.26366   0.00000  Uiso   1.00
C67    C     0.51360   0.32242   0.23621   0.00000  Uiso   1.00
C68    C     0.48500   0.01208   0.26383   0.00000  Uiso   1.00
C69    C     0.48919   0.05597   0.26038   0.00000  Uiso   1.00
C70    C     0.50984   0.27791   0.24014   0.00000  Uiso   1.00
C71    C     0.45450   0.23926   0.48946   0.00000  Uiso   1.00
C72    C     0.51833   0.14801   0.12905   0.00000  Uiso   1.00
C73    C     0.48161   0.18477   0.37127   0.00000  Uiso   1.00
C74    C     0.52230   0.08214   0.02099   0.00000  Uiso   1.00
C75    C     0.52485   0.13776   0.08038   0.00000  Uiso   1.00
C76    C     0.46049   0.23168   0.44270   0.00000  Uiso   1.00
C77    C     0.46694   0.21184   0.01327   0.00000  Uiso   1.00
C78    C     0.48492   0.17596   0.49148   0.00000  Uiso   1.00
C79    C     0.47957   0.16263   0.44771   0.00000  Uiso   1.00
C80    C     0.50332   0.15075   0.01399   0.00000  Uiso   1.00
C81    C     0.50705   0.10845   0.49682   0.00000  Uiso   1.00
C82    C     0.49309   0.09321   0.45764   0.00000  Uiso   1.00
C83    C     0.47865   0.11954   0.43386   0.00000  Uiso   1.00
F84    F     0.53732   0.06943   0.08933   0.00000  Uiso   1.00
F85    F     0.45156   0.32888   0.29610   0.00000  Uiso   1.00
F86    F     0.49042   0.05208   0.44347   0.00000  Uiso   1.00
F87    F     0.35451   0.19965   0.20412   0.00000  Uiso   1.00
H88    H     0.65248   0.13852   0.28929   0.00000  Uiso   1.00
H89    H     0.46071   0.21810   0.04942   0.00000  Uiso   1.00
O90    O     0.50000   0.16667   0.25000   0.00000  Uiso   1.00
O91    O     0.48784   0.12637   0.15458   0.00000  Uiso   1.00
O92    O     0.46274   0.20391   0.34968   0.00000  Uiso   1.00
O93    O     0.54157   0.17759   0.14606   0.00000  Uiso   1.00
O94    O     0.50785   0.15880   0.34968   0.00000  Uiso   1.00
O95    O     0.51264   0.08019   0.28213   0.00000  Uiso   1.00
O96    O     0.47965   0.26085   0.27013   0.00000  Uiso   1.00
O97    O     0.40745   0.13291   0.23413   0.00000  Uiso   1.00
O98    O     0.60026   0.19272   0.21360   0.00000  Uiso   1.00
O99    O     0.40405   0.18878   0.28213   0.00000  Uiso   1.00
O100   O     0.58824   0.15226   0.27013   0.00000  Uiso   1.00
O101   O     0.47093   0.06944   0.23413   0.00000  Uiso   1.00
O102   O     0.53678   0.25620   0.21360   0.00000  Uiso   1.00
Zn103  Zn    0.52672   0.13994   0.28734   0.00000  Uiso   1.00
Zn104  Zn    0.46713   0.12458   0.21875   0.00000  Uiso   1.00
Zn105  Zn    0.54389   0.19775   0.20657   0.00000  Uiso   1.00
Zn106  Zn    0.46226   0.20439   0.28733   0.00000  Uiso   1.00
Br107  Br    0.89378   0.01349   0.19044   0.00000  Uiso   1.00
Br108  Br    0.86817   0.02627   0.49932   0.00000  Uiso   1.00
Br109  Br    0.87004   0.22441   0.06692   0.00000  Uiso   1.00
Br110  Br    0.78642   0.27636   0.41049   0.00000  Uiso   1.00
Br111  Br    0.76413   0.28759   0.02259   0.00000  Uiso   1.00
Br112  Br    0.77920   0.09214   0.39220   0.00000  Uiso   1.00
C113   C     0.71934   0.15948   0.26009   0.00000  Uiso   1.00
C114   C     0.85118   0.16608   0.05330   0.00000  Uiso   1.00
C115   C     0.86158   0.09630   0.06364   0.00000  Uiso   1.00
C116   C     0.94744   0.17383   0.24002   0.00000  Uiso   1.00
C117   C     0.80598   0.19257   0.42111   0.00000  Uiso   1.00
C118   C     0.99328   0.17677   0.23602   0.00000  Uiso   1.00
C119   C     0.67414   0.15699   0.26366   0.00000  Uiso   1.00
C120   C     0.84693   0.32242   0.23621   0.00000  Uiso   1.00
C121   C     0.81834   0.01208   0.26383   0.00000  Uiso   1.00
C122   C     0.82252   0.05597   0.26038   0.00000  Uiso   1.00
C123   C     0.84317   0.27791   0.24014   0.00000  Uiso   1.00
C124   C     0.78784   0.23926   0.48946   0.00000  Uiso   1.00
C125   C     0.85166   0.14801   0.12905   0.00000  Uiso   1.00
C126   C     0.81494   0.18477   0.37127   0.00000  Uiso   1.00
C127   C     0.85563   0.08214   0.02099   0.00000  Uiso   1.00
C128   C     0.85818   0.13776   0.08038   0.00000  Uiso   1.00
C129   C     0.79383   0.23168   0.44270   0.00000  Uiso   1.00
C130   C     0.80028   0.21184   0.01327   0.00000  Uiso   1.00
C131   C     0.81826   0.17596   0.49148   0.00000  Uiso   1.00
C132   C     0.81290   0.16263   0.44771   0.00000  Uiso   1.00
C133   C     0.83665   0.15075   0.01399   0.00000  Uiso   1.00
C134   C     0.84039   0.10845   0.49682   0.00000  Uiso   1.00
C135   C     0.82642   0.09321   0.45764   0.00000  Uiso   1.00
C136   C     0.81199   0.11954   0.43386   0.00000  Uiso   1.00
F137   F     0.87065   0.06943   0.08933   0.00000  Uiso   1.00
F138   F     0.78490   0.32888   0.29610   0.00000  Uiso   1.00
F139   F     0.82376   0.05208   0.44347   0.00000  Uiso   1.00
F140   F     0.68784   0.19965   0.20412   0.00000  Uiso   1.00
H141   H     0.98581   0.13852   0.28929   0.00000  Uiso   1.00
H142   H     0.79405   0.21810   0.04942   0.00000  Uiso   1.00
O143   O     0.83333   0.16667   0.25000   0.00000  Uiso   1.00
O144   O     0.82118   0.12637   0.15458   0.00000  Uiso   1.00
O145   O     0.79607   0.20391   0.34968   0.00000  Uiso   1.00
O146   O     0.87491   0.17759   0.14606   0.00000  Uiso   1.00
O147   O     0.84118   0.15880   0.34968   0.00000  Uiso   1.00
O148   O     0.84597   0.08019   0.28213   0.00000  Uiso   1.00
O149   O     0.81298   0.26085   0.27013   0.00000  Uiso   1.00
O150   O     0.74078   0.13291   0.23413   0.00000  Uiso   1.00
O151   O     0.93360   0.19272   0.21360   0.00000  Uiso   1.00
O152   O     0.73738   0.18878   0.28213   0.00000  Uiso   1.00
O153   O     0.92158   0.15226   0.27013   0.00000  Uiso   1.00
O154   O     0.80426   0.06944   0.23413   0.00000  Uiso   1.00
O155   O     0.87012   0.25620   0.21360   0.00000  Uiso   1.00
Zn156  Zn    0.86005   0.13994   0.28734   0.00000  Uiso   1.00
Zn157  Zn    0.80046   0.12458   0.21875   0.00000  Uiso   1.00
Zn158  Zn    0.87723   0.19775   0.20657   0.00000  Uiso   1.00
Zn159  Zn    0.79560   0.20439   0.28733   0.00000  Uiso   1.00
Br160  Br    0.22711   0.34682   0.19044   0.00000  Uiso   1.00
Br161  Br    0.20150   0.35961   0.49932   0.00000  Uiso   1.00
Br162  Br    0.20337   0.55774   0.06692   0.00000  Uiso   1.00
Br163  Br    0.11975   0.60970   0.41049   0.00000  Uiso   1.00
Br164  Br    0.09746   0.62092   0.02259   0.00000  Uiso   1.00
Br165  Br    0.11254   0.42547   0.39220   0.00000  Uiso   1.00
C166   C     0.05267   0.49282   0.26009   0.00000  Uiso   1.00
C167   C     0.18451   0.49941   0.05330   0.00000  Uiso   1.00
C168   C     0.19492   0.42964   0.06364   0.00000  Uiso   1.00
C169   C     0.28077   0.50716   0.24002   0.00000  Uiso   1.00
C170   C     0.13931   0.52591   0.42111   0.00000  Uiso   1.00
C171   C     0.32661   0.51010   0.23602   0.00000  Uiso   1.00
C172   C     0.00748   0.49032   0.26366   0.00000  Uiso   1.00
C173   C     0.18026   0.65575   0.23621   0.00000  Uiso   1.00
C174   C     0.15167   0.34541   0.26383   0.00000  Uiso   1.00
C175   C     0.15586   0.38930   0.26038   0.00000  Uiso   1.00
C176   C     0.17650   0.61125   0.24014   0.00000  Uiso   1.00
C177   C     0.12117   0.57259   0.48946   0.00000  Uiso   1.00
C178   C     0.18499   0.48135   0.12905   0.00000  Uiso   1.00
C179   C     0.14828   0.51810   0.37127   0.00000  Uiso   1.00
C180   C     0.18896   0.41547   0.02099   0.00000  Uiso   1.00
C181   C     0.19151   0.47109   0.08038   0.00000  Uiso   1.00
C182   C     0.12716   0.56501   0.44270   0.00000  Uiso   1.00
C183   C     0.13361   0.54518   0.01327   0.00000  Uiso   1.00
C184   C     0.15159   0.50930   0.49148   0.00000  Uiso   1.00
C185   C     0.14624   0.49596   0.44771   0.00000  Uiso   1.00
C186   C     0.16999   0.48408   0.01399   0.00000  Uiso   1.00
C187   C     0.17372   0.44178   0.49682   0.00000  Uiso   1.00
C188   C     0.15976   0.42654   0.45764   0.00000  Uiso   1.00
C189   C     0.14532   0.45288   0.43386   0.00000  Uiso   1.00
F190   F     0.20399   0.40276   0.08933   0.00000  Uiso   1.00
F191   F     0.11823   0.66222   0.29610   0.00000  Uiso   1.00
F192   F     0.15709   0.38541   0.44347   0.00000  Uiso   1.00
F193   F     0.02118   0.53298   0.20412   0.00000  Uiso   1.00
H194   H     0.31915   0.47185   0.28929   0.00000  Uiso   1.00
H195   H     0.12738   0.55144   0.04942   0.00000  Uiso   1.00
O196   O     0.16667   0.50000   0.25000   0.00000  Uiso   1.00
O197   O     0.15451   0.45970   0.15458   0.00000  Uiso   1.00
O198   O     0.12940   0.53724   0.34968   0.00000  Uiso   1.00
O199   O     0.20824   0.51092   0.14606   0.00000  Uiso   1.00
O200   O     0.17451   0.49213   0.34968   0.00000  Uiso   1.00
O201   O     0.17930   0.41352   0.28213   0.00000  Uiso   1.00
O202   O     0.14632   0.59418   0.27013   0.00000  Uiso   1.00
O203   O     0.07412   0.46625   0.23413   0.00000  Uiso   1.00
O204   O     0.26693   0.52605   0.21360   0.00000  Uiso   1.00
O205   O     0.07071   0.52211   0.28213   0.00000  Uiso   1.00
O206   O     0.25491   0.48559   0.27013   0.00000  Uiso   1.00
O207   O     0.13760   0.40277   0.23413   0.00000  Uiso   1.00
O208   O     0.20345   0.58953   0.21360   0.00000  Uiso   1.00
Zn209  Zn    0.19338   0.47327   0.28734   0.00000  Uiso   1.00
Zn210  Zn    0.13379   0.45791   0.21875   0.00000  Uiso   1.00
Zn211  Zn    0.21056   0.53109   0.20657   0.00000  Uiso   1.00
Zn212  Zn    0.12893   0.53773   0.28733   0.00000  Uiso   1.00
Br213  Br    0.56044   0.34682   0.19044   0.00000  Uiso   1.00
Br214  Br    0.53484   0.35961   0.49932   0.00000  Uiso   1.00
Br215  Br    0.53670   0.55774   0.06692   0.00000  Uiso   1.00
Br216  Br    0.45309   0.60970   0.41049   0.00000  Uiso   1.00
Br217  Br    0.43080   0.62092   0.02259   0.00000  Uiso   1.00
Br218  Br    0.44587   0.42547   0.39220   0.00000  Uiso   1.00
C219   C     0.38601   0.49282   0.26009   0.00000  Uiso   1.00
C220   C     0.51784   0.49941   0.05330   0.00000  Uiso   1.00
C221   C     0.52825   0.42964   0.06364   0.00000  Uiso   1.00
C222   C     0.61410   0.50716   0.24002   0.00000  Uiso   1.00
C223   C     0.47264   0.52591   0.42111   0.00000  Uiso   1.00
C224   C     0.65995   0.51010   0.23602   0.00000  Uiso   1.00
C225   C     0.34081   0.49032   0.26366   0.00000  Uiso   1.00
C226   C     0.51360   0.65575   0.23621   0.00000  Uiso   1.00
C227   C     0.48500   0.34541   0.26383   0.00000  Uiso   1.00
C228   C     0.48919   0.38930   0.26038   0.00000  Uiso   1.00
C229   C     0.50984   0.61125   0.24014   0.00000  Uiso   1.00
C230   C     0.45450   0.57259   0.48946   0.00000  Uiso   1.00
C231   C     0.51833   0.48135   0.12905   0.00000  Uiso   1.00
C232   C     0.48161   0.51810   0.37127   0.00000  Uiso   1.00
C233   C     0.52230   0.41547   0.02099   0.00000  Uiso   1.00
C234   C     0.52485   0.47109   0.08038   0.00000  Uiso   1.00
C235   C     0.46049   0.56501   0.44270   0.00000  Uiso   1.00
C236   C     0.46694   0.54518   0.01327   0.00000  Uiso   1.00
C237   C     0.48492   0.50930   0.49148   0.00000  Uiso   1.00
C238   C     0.47957   0.49596   0.44771   0.00000  Uiso   1.00
C239   C     0.50332   0.48408   0.01399   0.00000  Uiso   1.00
C240   C     0.50705   0.44178   0.49682   0.00000  Uiso   1.00
C241   C     0.49309   0.42654   0.45764   0.00000  Uiso   1.00
C242   C     0.47865   0.45288   0.43386   0.00000  Uiso   1.00
F243   F     0.53732   0.40276   0.08933   0.00000  Uiso   1.00
F244   F     0.45156   0.66222   0.29610   0.00000  Uiso   1.00
F245   F     0.49042   0.38541   0.44347   0.00000  Uiso   1.00
F246   F     0.35451   0.53298   0.20412   0.00000  Uiso   1.00
H247   H     0.65248   0.47185   0.28929   0.00000  Uiso   1.00
H248   H     0.46071   0.55144   0.04942   0.00000  Uiso   1.00
O249   O     0.50000   0.50000   0.25000   0.00000  Uiso   1.00
O250   O     0.48784   0.45970   0.15458   0.00000  Uiso   1.00
O251   O     0.46274   0.53724   0.34968   0.00000  Uiso   1.00
O252   O     0.54157   0.51092   0.14606   0.00000  Uiso   1.00
O253   O     0.50785   0.49213   0.34968   0.00000  Uiso   1.00
O254   O     0.51264   0.41352   0.28213   0.00000  Uiso   1.00
O255   O     0.47965   0.59418   0.27013   0.00000  Uiso   1.00
O256   O     0.40745   0.46625   0.23413   0.00000  Uiso   1.00
O257   O     0.60026   0.52605   0.21360   0.00000  Uiso   1.00
O258   O     0.40405   0.52211   0.28213   0.00000  Uiso   1.00
O259   O     0.58824   0.48559   0.27013   0.00000  Uiso   1.00
O260   O     0.47093   0.40277   0.23413   0.00000  Uiso   1.00
O261   O     0.53678   0.58953   0.21360   0.00000  Uiso   1.00
Zn262  Zn    0.52672   0.47327   0.28734   0.00000  Uiso   1.00
Zn263  Zn    0.46713   0.45791   0.21875   0.00000  Uiso   1.00
Zn264  Zn    0.54389   0.53109   0.20657   0.00000  Uiso   1.00
Zn265  Zn    0.46226   0.53773   0.28733   0.00000  Uiso   1.00
Br266  Br    0.89378   0.34682   0.19044   0.00000  Uiso   1.00
Br267  Br    0.86817   0.35961   0.49932   0.00000  Uiso   1.00
Br268  Br    0.87004   0.55774   0.06692   0.00000  Uiso   1.00
Br269  Br    0.78642   0.60970   0.41049   0.00000  Uiso   1.00
Br270  Br    0.76413   0.62092   0.02259   0.00000  Uiso   1.00
Br271  Br    0.77920   0.42547   0.39220   0.00000  Uiso   1.00
C272   C     0.71934   0.49282   0.26009   0.00000  Uiso   1.00
C273   C     0.85118   0.49941   0.05330   0.00000  Uiso   1.00
C274   C     0.86158   0.42964   0.06364   0.00000  Uiso   1.00
C275   C     0.94744   0.50716   0.24002   0.00000  Uiso   1.00
C276   C     0.80598   0.52591   0.42111   0.00000  Uiso   1.00
C277   C     0.99328   0.51010   0.23602   0.00000  Uiso   1.00
C278   C     0.67414   0.49032   0.26366   0.00000  Uiso   1.00
C279   C     0.84693   0.65575   0.23621   0.00000  Uiso   1.00
C280   C     0.81834   0.34541   0.26383   0.00000  Uiso   1.00
C281   C     0.82252   0.38930   0.26038   0.00000  Uiso   1.00
C282   C     0.84317   0.61125   0.24014   0.00000  Uiso   1.00
C283   C     0.78784   0.57259   0.48946   0.00000  Uiso   1.00
C284   C     0.85166   0.48135   0.12905   0.00000  Uiso   1.00
C285   C     0.81494   0.51810   0.37127   0.00000  Uiso   1.00
C286   C     0.85563   0.41547   0.02099   0.00000  Uiso   1.00
C287   C     0.85818   0.47109   0.08038   0.00000  Uiso   1.00
C288   C     0.79383   0.56501   0.44270   0.00000  Uiso   1.00
C289   C     0.80028   0.54518   0.01327   0.00000  Uiso   1.00
C290   C     0.81826   0.50930   0.49148   0.00000  Uiso   1.00
C291   C     0.81290   0.49596   0.44771   0.00000  Uiso   1.00
C292   C     0.83665   0.48408   0.01399   0.00000  Uiso   1.00
C293   C     0.84039   0.44178   0.49682   0.00000  Uiso   1.00
C294   C     0.82642   0.42654   0.45764   0.00000  Uiso   1.00
C295   C     0.81199   0.45288   0.43386   0.00000  Uiso   1.00
F296   F     0.87065   0.40276   0.08933   0.00000  Uiso   1.00
F297   F     0.78490   0.66222   0.29610   0.00000  Uiso   1.00
F298   F     0.82376   0.38541   0.44347   0.00000  Uiso   1.00
F299   F     0.68784   0.53298   0.20412   0.00000  Uiso   1.00
H300   H     0.98581   0.47185   0.28929   0.00000  Uiso   1.00
H301   H     0.79405   0.55144   0.04942   0.00000  Uiso   1.00
O302   O     0.83333   0.50000   0.25000   0.00000  Uiso   1.00
O303   O     0.82118   0.45970   0.15458   0.00000  Uiso   1.00
O304   O     0.79607   0.53724   0.34968   0.00000  Uiso   1.00
O305   O     0.87491   0.51092   0.14606   0.00000  Uiso   1.00
O306   O     0.84118   0.49213   0.34968   0.00000  Uiso   1.00
O307   O     0.84597   0.41352   0.28213   0.00000  Uiso   1.00
O308   O     0.81298   0.59418   0.27013   0.00000  Uiso   1.00
O309   O     0.74078   0.46625   0.23413   0.00000  Uiso   1.00
O310   O     0.93360   0.52605   0.21360   0.00000  Uiso   1.00
O311   O     0.73738   0.52211   0.28213   0.00000  Uiso   1.00
O312   O     0.92158   0.48559   0.27013   0.00000  Uiso   1.00
O313   O     0.80426   0.40277   0.23413   0.00000  Uiso   1.00
O314   O     0.87012   0.58953   0.21360   0.00000  Uiso   1.00
Zn315  Zn    0.86005   0.47327   0.28734   0.00000  Uiso   1.00
Zn316  Zn    0.80046   0.45791   0.21875   0.00000  Uiso   1.00
Zn317  Zn    0.87723   0.53109   0.20657   0.00000  Uiso   1.00
Zn318  Zn    0.79560   0.53773   0.28733   0.00000  Uiso   1.00
Br319  Br    0.22711   0.68015   0.19044   0.00000  Uiso   1.00
Br320  Br    0.20150   0.69294   0.49932   0.00000  Uiso   1.00
Br321  Br    0.20337   0.89107   0.06692   0.00000  Uiso   1.00
Br322  Br    0.11975   0.94303   0.41049   0.00000  Uiso   1.00
Br323  Br    0.09746   0.95426   0.02259   0.00000  Uiso   1.00
Br324  Br    0.11254   0.75881   0.39220   0.00000  Uiso   1.00
C325   C     0.05267   0.82615   0.26009   0.00000  Uiso   1.00
C326   C     0.18451   0.83275   0.05330   0.00000  Uiso   1.00
C327   C     0.19492   0.76297   0.06364   0.00000  Uiso   1.00
C328   C     0.28077   0.84050   0.24002   0.00000  Uiso   1.00
C329   C     0.13931   0.85924   0.42111   0.00000  Uiso   1.00
C330   C     0.32661   0.84344   0.23602   0.00000  Uiso   1.00
C331   C     0.00748   0.82365   0.26366   0.00000  Uiso   1.00
C332   C     0.18026   0.98908   0.23621   0.00000  Uiso   1.00
C333   C     0.15167   0.67874   0.26383   0.00000  Uiso   1.00
C334   C     0.15586   0.72264   0.26038   0.00000  Uiso   1.00
C335   C     0.17650   0.94458   0.24014   0.00000  Uiso   1.00
C336   C     0.12117   0.90592   0.48946   0.00000  Uiso   1.00
C337   C     0.18499   0.81468   0.12905   0.00000  Uiso   1.00
C338   C     0.14828   0.85143   0.37127   0.00000  Uiso   1.00
C339   C     0.18896   0.74880   0.02099   0.00000  Uiso   1.00
C340   C     0.19151   0.80443   0.08038   0.00000  Uiso   1.00
C341   C     0.12716   0.89835   0.44270   0.00000  Uiso   1.00
C342   C     0.13361   0.87851   0.01327   0.00000  Uiso   1.00
C343   C     0.15159   0.84263   0.49148   0.00000  Uiso   1.00
C344   C     0.14624   0.82929   0.44771   0.00000  Uiso   1.00
C345   C     0.16999   0.81741   0.01399   0.00000  Uiso   1.00
C346   C     0.17372   0.77511   0.49682   0.00000  Uiso   1.00
C347   C     0.15976   0.75987   0.45764   0.00000  Uiso   1.00
C348   C     0.14532   0.78621   0.43386   0.00000  Uiso   1.00
F349   F     0.20399   0.73610   0.08933   0.00000  Uiso   1.00
F350   F     0.11823   0.99555   0.29610   0.00000  Uiso   1.00
F351   F     0.15709   0.71875   0.44347   0.00000  Uiso   1.00
F352   F     0.02118   0.86632   0.20412   0.00000  Uiso   1.00
H353   H     0.31915   0.80518   0.28929   0.00000  Uiso   1.00
H354   H     0.12738   0.88477   0.04942   0.00000  Uiso   1.00
O355   O     0.16667   0.83333   0.25000   0.00000  Uiso   1.00
O356   O     0.15451   0.79304   0.15458   0.00000  Uiso   1.00
O357   O     0.12940   0.87058   0.34968   0.00000  Uiso   1.00
O358   O     0.20824   0.84425   0.14606   0.00000  Uiso   1.00
O359   O     0.17451   0.82546   0.34968   0.00000  Uiso   1.00
O360   O     0.17930   0.74686   0.28213   0.00000  Uiso   1.00
O361   O     0.14632   0.92751   0.27013   0.00000  Uiso   1.00
O362   O     0.07412   0.79958   0.23413   0.00000  Uiso   1.00
O363   O     0.26693   0.85939   0.21360   0.00000  Uiso   1.00
O364   O     0.07071   0.85544   0.28213   0.00000  Uiso   1.00
O365   O     0.25491   0.81892   0.27013   0.00000  Uiso   1.00
O366   O     0.13760   0.73610   0.23413   0.00000  Uiso   1.00
O367   O     0.20345   0.92286   0.21360   0.00000  Uiso   1.00
Zn368  Zn    0.19338   0.80661   0.28734   0.00000  Uiso   1.00
Zn369  Zn    0.13379   0.79124   0.21875   0.00000  Uiso   1.00
Zn370  Zn    0.21056   0.86442   0.20657   0.00000  Uiso   1.00
Zn371  Zn    0.12893   0.87106   0.28733   0.00000  Uiso   1.00
Br372  Br    0.56044   0.68015   0.19044   0.00000  Uiso   1.00
Br373  Br    0.53484   0.69294   0.49932   0.00000  Uiso   1.00
Br374  Br    0.53670   0.89107   0.06692   0.00000  Uiso   1.00
Br375  Br    0.45309   0.94303   0.41049   0.00000  Uiso   1.00
Br376  Br    0.43080   0.95426   0.02259   0.00000  Uiso   1.00
Br377  Br    0.44587   0.75881   0.39220   0.00000  Uiso   1.00
C378   C     0.38601   0.82615   0.26009   0.00000  Uiso   1.00
C379   C     0.51784   0.83275   0.05330   0.00000  Uiso   1.00
C380   C     0.52825   0.76297   0.06364   0.00000  Uiso   1.00
C381   C     0.61410   0.84050   0.24002   0.00000  Uiso   1.00
C382   C     0.47264   0.85924   0.42111   0.00000  Uiso   1.00
C383   C     0.65995   0.84344   0.23602   0.00000  Uiso   1.00
C384   C     0.34081   0.82365   0.26366   0.00000  Uiso   1.00
C385   C     0.51360   0.98908   0.23621   0.00000  Uiso   1.00
C386   C     0.48500   0.67874   0.26383   0.00000  Uiso   1.00
C387   C     0.48919   0.72264   0.26038   0.00000  Uiso   1.00
C388   C     0.50984   0.94458   0.24014   0.00000  Uiso   1.00
C389   C     0.45450   0.90592   0.48946   0.00000  Uiso   1.00
C390   C     0.51833   0.81468   0.12905   0.00000  Uiso   1.00
C391   C     0.48161   0.85143   0.37127   0.00000  Uiso   1.00
C392   C     0.52230   0.74880   0.02099   0.00000  Uiso   1.00
C393   C     0.52485   0.80443   0.08038   0.00000  Uiso   1.00
C394   C     0.46049   0.89835   0.44270   0.00000  Uiso   1.00
C395   C     0.46694   0.87851   0.01327   0.00000  Uiso   1.00
C396   C     0.48492   0.84263   0.49148   0.00000  Uiso   1.00
C397   C     0.47957   0.82929   0.44771   0.00000  Uiso   1.00
C398   C     0.50332   0.81741   0.01399   0.00000  Uiso   1.00
C399   C     0.50705   0.77511   0.49682   0.00000  Uiso   1.00
C400   C     0.49309   0.75987   0.45764   0.00000  Uiso   1.00
C401   C     0.47865   0.78621   0.43386   0.00000  Uiso   1.00
F402   F     0.53732   0.73610   0.08933   0.00000  Uiso   1.00
F403   F     0.45156   0.99555   0.29610   0.00000  Uiso   1.00
F404   F     0.49042   0.71875   0.44347   0.00000  Uiso   1.00
F405   F     0.35451   0.86632   0.20412   0.00000  Uiso   1.00
H406   H     0.65248   0.80518   0.28929   0.00000  Uiso   1.00
H407   H     0.46071   0.88477   0.04942   0.00000  Uiso   1.00
O408   O     0.50000   0.83333   0.25000   0.00000  Uiso   1.00
O409   O     0.48784   0.79304   0.15458   0.00000  Uiso   1.00
O410   O     0.46274   0.87058   0.34968   0.00000  Uiso   1.00
O411   O     0.54157   0.84425   0.14606   0.00000  Uiso   1.00
O412   O     0.50785   0.82546   0.34968   0.00000  Uiso   1.00
O413   O     0.51264   0.74686   0.28213   0.00000  Uiso   1.00
O414   O     0.47965   0.92751   0.27013   0.00000  Uiso   1.00
O415   O     0.40745   0.79958   0.23413   0.00000  Uiso   1.00
O416   O     0.60026   0.85939   0.21360   0.00000  Uiso   1.00
O417   O     0.40405   0.85544   0.28213   0.00000  Uiso   1.00
O418   O     0.58824   0.81892   0.27013   0.00000  Uiso   1.00
O419   O     0.47093   0.73610   0.23413   0.00000  Uiso   1.00
O420   O     0.53678   0.92286   0.21360   0.00000  Uiso   1.00
Zn421  Zn    0.52672   0.80661   0.28734   0.00000  Uiso   1.00
Zn422  Zn    0.46713   0.79124   0.21875   0.00000  Uiso   1.00
Zn423  Zn    0.54389   0.86442   0.20657   0.00000  Uiso   1.00
Zn424  Zn    0.46226   0.87106   0.28733   0.00000  Uiso   1.00
Br425  Br    0.89378   0.68015   0.19044   0.00000  Uiso   1.00
Br426  Br    0.86817   0.69294   0.49932   0.00000  Uiso   1.00
Br427  Br    0.87004   0.89107   0.06692   0.00000  Uiso   1.00
Br428  Br    0.78642   0.94303   0.41049   0.00000  Uiso   1.00
Br429  Br    0.76413   0.95426   0.02259   0.00000  Uiso   1.00
Br430  Br    0.77920   0.75881   0.39220   0.00000  Uiso   1.00
C431   C     0.71934   0.82615   0.26009   0.00000  Uiso   1.00
C432   C     0.85118   0.83275   0.05330   0.00000  Uiso   1.00
C433   C     0.86158   0.76297   0.06364   0.00000  Uiso   1.00
C434   C     0.94744   0.84050   0.24002   0.00000  Uiso   1.00
C435   C     0.80598   0.85924   0.42111   0.00000  Uiso   1.00
C436   C     0.99328   0.84344   0.23602   0.00000  Uiso   1.00
C437   C     0.67414   0.82365   0.26366   0.00000  Uiso   1.00
C438   C     0.84693   0.98908   0.23621   0.00000  Uiso   1.00
C439   C     0.81834   0.67874   0.26383   0.00000  Uiso   1.00
C440   C     0.82252   0.72264   0.26038   0.00000  Uiso   1.00
C441   C     0.84317   0.94458   0.24014   0.00000  Uiso   1.00
C442   C     0.78784   0.90592   0.48946   0.00000  Uiso   1.00
C443   C     0.85166   0.81468   0.12905   0.00000  Uiso   1.00
C444   C     0.81494   0.85143   0.37127   0.00000  Uiso   1.00
C445   C     0.85563   0.74880   0.02099   0.00000  Uiso   1.00
C446   C     0.85818   0.80443   0.08038   0.00000  Uiso   1.00
C447   C     0.79383   0.89835   0.44270   0.00000  Uiso   1.00
C448   C     0.80028   0.87851   0.01327   0.00000  Uiso   1.00
C449   C     0.81826   0.84263   0.49148   0.00000  Uiso   1.00
C450   C     0.81290   0.82929   0.44771   0.00000  Uiso   1.00
C451   C     0.83665   0.81741   0.01399   0.00000  Uiso   1.00
C452   C     0.84039   0.77511   0.49682   0.00000  Uiso   1.00
C453   C     0.82642   0.75987   0.45764   0.00000  Uiso   1.00
C454   C     0.81199   0.78621   0.43386   0.00000  Uiso   1.00
F455   F     0.87065   0.73610   0.08933   0.00000  Uiso   1.00
F456   F     0.78490   0.99555   0.29610   0.00000  Uiso   1.00
F457   F     0.82376   0.71875   0.44347   0.00000  Uiso   1.00
F458   F     0.68784   0.86632   0.20412   0.00000  Uiso   1.00
H459   H     0.98581   0.80518   0.28929   0.00000  Uiso   1.00
H460   H     0.79405   0.88477   0.04942   0.00000  Uiso   1.00
O461   O     0.83333   0.83333   0.25000   0.00000  Uiso   1.00
O462   O     0.82118   0.79304   0.15458   0.00000  Uiso   1.00
O463   O     0.79607   0.87058   0.34968   0.00000  Uiso   1.00
O464   O     0.87491   0.84425   0.14606   0.00000  Uiso   1.00
O465   O     0.84118   0.82546   0.34968   0.00000  Uiso   1.00
O466   O     0.84597   0.74686   0.28213   0.00000  Uiso   1.00
O467   O     0.81298   0.92751   0.27013   0.00000  Uiso   1.00
O468   O     0.74078   0.79958   0.23413   0.00000  Uiso   1.00
O469   O     0.93360   0.85939   0.21360   0.00000  Uiso   1.00
O470   O     0.73738   0.85544   0.28213   0.00000  Uiso   1.00
O471   O     0.92158   0.81892   0.27013   0.00000  Uiso   1.00
O472   O     0.80426   0.73610   0.23413   0.00000  Uiso   1.00
O473   O     0.87012   0.92286   0.21360   0.00000  Uiso   1.00
Zn474  Zn    0.86005   0.80661   0.28734   0.00000  Uiso   1.00
Zn475  Zn    0.80046   0.79124   0.21875   0.00000  Uiso   1.00
Zn476  Zn    0.87723   0.86442   0.20657   0.00000  Uiso   1.00
Zn477  Zn    0.79560   0.87106   0.28733   0.00000  Uiso   1.00
Br478  Br    0.22711   0.01349   0.69044   0.00000  Uiso   1.00
Br479  Br    0.20150   0.02627   0.99932   0.00000  Uiso   1.00
Br480  Br    0.20337   0.22441   0.56692   0.00000  Uiso   1.00
Br481  Br    0.11975   0.27636   0.91049   0.00000  Uiso   1.00
Br482  Br    0.09746   0.28759   0.52259   0.00000  Uiso   1.00
Br483  Br    0.11254   0.09214   0.89220   0.00000  Uiso   1.00
C484   C     0.05267   0.15948   0.76009   0.00000  Uiso   1.00
C485   C     0.18451   0.16608   0.55330   0.00000  Uiso   1.00
C486   C     0.19492   0.09630   0.56364   0.00000  Uiso   1.00
C487   C     0.28077   0.17383   0.74002   0.00000  Uiso   1.00
C488   C     0.13931   0.19257   0.92111   0.00000  Uiso   1.00
C489   C     0.32661   0.17677   0.73602   0.00000  Uiso   1.00
C490   C     0.00748   0.15699   0.76366   0.00000  Uiso   1.00
C491   C     0.18026   0.32242   0.73621   0.00000  Uiso   1.00
C492   C     0.15167   0.01208   0.76383   0.00000  Uiso   1.00
C493   C     0.15586   0.05597   0.76038   0.00000  Uiso   1.00
C494   C     0.17650   0.27791   0.74014   0.00000  Uiso   1.00
C495   C     0.12117   0.23926   0.98946   0.00000  Uiso   1.00
C496   C     0.18499   0.14801   0.62905   0.00000  Uiso   1.00
C497   C     0.14828   0.18477   0.87127   0.00000  Uiso   1.00
C498   C     0.18896   0.08214   0.52099   0.00000  Uiso   1.00
C499   C     0.19151   0.13776   0.58038   0.00000  Uiso   1.00
C500   C     0.12716   0.23168   0.94270   0.00000  Uiso   1.00
C501   C     0.13361   0.21184   0.51327   0.00000  Uiso   1.00
C502   C     0.15159   0.17596   0.99148   0.00000  Uiso   1.00
C503   C     0.14624   0.16263   0.94771   0.00000  Uiso   1.00
C504   C     0.16999   0.15075   0.51399   0.00000  Uiso   1.00
C505   C     0.17372   0.10845   0.99682   0.00000  Uiso   1.00
C506   C     0.15976   0.09321   0.95764   0.00000  Uiso   1.00
C507   C     0.14532   0.11954   0.93386   0.00000  Uiso   1.00
F508   F     0.20399   0.06943   0.58933   0.00000  Uiso   1.00
F509   F     0.11823   0.32888   0.79610   0.00000  Uiso   1.00
F510   F     0.15709   0.05208   0.94347   0.00000  Uiso   1.00
F511   F     0.02118   0.19965   0.70412   0.00000  Uiso   1.00
H512   H     0.31915   0.13852   0.78929   0.00000  Uiso   1.00
H513   H     0.12738   0.21810   0.54942   0.00000  Uiso   1.00
O514   O     0.16667   0.16667   0.75000   0.00000  Uiso   1.00
O515   O     0.15451   0.12637   0.65458   0.00000  Uiso   1.00
O516   O     0.12940   0.20391   0.84968   0.00000  Uiso   1.00
O517   O     0.20824   0.17759   0.64606   0.00000  Uiso   1.00
O518   O     0.17451   0.15880   0.84968   0.00000  Uiso   1.00
O519   O     0.17930   0.08019   0.78213   0.00000  Uiso   1.00
O520   O     0.14632   0.26085   0.77013   0.00000  Uiso   1.00
O521   O     0.07412   0.13291   0.73413   0.00000  Uiso   1.00
O522   O     0.26693   0.19272   0.71360   0.00000  Uiso   1.00
O523   O     0.07071   0.18878   0.78213   0.00000  Uiso   1.00
O524   O     0.25491   0.15226   0.77013   0.00000  Uiso   1.00
O525   O     0.13760   0.06944   0.73413   0.00000  Uiso   1.00
O526   O     0.20345   0.25620   0.71360   0.00000  Uiso   1.00
Zn527  Zn    0.19338   0.13994   0.78734   0.00000  Uiso   1.00
Zn528  Zn    0.13379   0.12458   0.71875   0.00000  Uiso   1.00
Zn529  Zn    0.21056   0.19775   0.70657   0.00000  Uiso   1.00
Zn530  Zn    0.12893   0.20439   0.78733   0.00000  Uiso   1.00
Br531  Br    0.56044   0.01349   0.69044   0.00000  Uiso   1.00
Br532  Br    0.53484   0.02627   0.99932   0.00000  Uiso   1.00
Br533  Br    0.53670   0.22441   0.56692   0.00000  Uiso   1.00
Br534  Br    0.45309   0.27636   0.91049   0.00000  Uiso   1.00
Br535  Br    0.43080   0.28759   0.52259   0.00000  Uiso   1.00
Br536  Br    0.44587   0.09214   0.89220   0.00000  Uiso   1.00
C537   C     0.38601   0.15948   0.76009   0.00000  Uiso   1.00
C538   C     0.51784   0.16608   0.55330   0.00000  Uiso   1.00
C539   C     0.52825   0.09630   0.56364   0.00000  Uiso   1.00
C540   C     0.61410   0.17383   0.74002   0.00000  Uiso   1.00
C541   C     0.47264   0.19257   0.92111   0.00000  Uiso   1.00
C542   C     0.65995   0.17677   0.73602   0.00000  Uiso   1.00
C543   C     0.34081   0.15699   0.76366   0.00000  Uiso   1.00
C544   C     0.51360   0.32242   0.73621   0.00000  Uiso   1.00
C545   C     0.48500   0.01208   0.76383   0.00000  Uiso   1.00
C546   C     0.48919   0.05597   0.76038   0.00000  Uiso   1.00
C547   C     0.50984   0.27791   0.74014   0.00000  Uiso   1.00
C548   C     0.45450   0.23926   0.98946   0.00000  Uiso   1.00
C549   C     0.51833   0.14801   0.62905   0.00000  Uiso   1.00
C550   C     0.48161   0.18477   0.87127   0.00000  Uiso   1.00
C551   C     0.52230   0.08214   0.52099   0.00000  Uiso   1.00
C552   C     0.52485   0.13776   0.58038   0.00000  Uiso   1.00
C553   C     0.46049   0.23168   0.94270   0.00000  Uiso   1.00
C554   C     0.46694   0.21184   0.51327   0.00000  Uiso   1.00
C555   C     0.48492   0.17596   0.99148   0.00000  Uiso   1.00
C556   C     0.47957   0.16263   0.94771   0.00000  Uiso   1.00
C557   C     0.50332   0.15075   0.51399   0.00000  Uiso   1.00
C558   C     0.50705   0.10845   0.99682   0.00000  Uiso   1.00
C559   C     0.49309   0.09321   0.95764   0.00000  Uiso   1.00
C560   C     0.47865   0.11954   0.93386   0.00000  Uiso   1.00
F561   F     0.53732   0.06943   0.58933   0.00000  Uiso   1.00
F562   F     0.45156   0.32888   0.79610   0.00000  Uiso   1.00
F563   F     0.49042   0.05208   0.94347   0.00000  Uiso   1.00
F564   F     0.35451   0.19965   0.70412   0.00000  Uiso   1.00
H565   H     0.65248   0.13852   0.78929   0.00000  Uiso   1.00
H566   H     0.46071   0.21810   0.54942   0.00000  Uiso   1.00
O567   O     0.50000   0.16667   0.75000   0.00000  Uiso   1.00
O568   O     0.48784   0.12637   0.65458   0.00000  Uiso   1.00
O569   O     0.46274   0.20391   0.84968   0.00000  Uiso   1.00
O570   O     0.54157   0.17759   0.64606   0.00000  Uiso   1.00
O571   O     0.50785   0.15880   0.84968   0.00000  Uiso   1.00
O572   O     0.51264   0.08019   0.78213   0.00000  Uiso   1.00
O573   O     0.47965   0.26085   0.77013   0.00000  Uiso   1.00
O574   O     0.40745   0.13291   0.73413   0.00000  Uiso   1.00
O575   O     0.60026   0.19272   0.71360   0.00000  Uiso   1.00
O576   O     0.40405   0.18878   0.78213   0.00000  Uiso   1.00
O577   O     0.58824   0.15226   0.77013   0.00000  Uiso   1.00
O578   O     0.47093   0.06944   0.73413   0.00000  Uiso   1.00
O579   O     0.53678   0.25620   0.71360   0.00000  Uiso   1.00
Zn580  Zn    0.52672   0.13994   0.78734   0.00000  Uiso   1.00
Zn581  Zn    0.46713   0.12458   0.71875   0.00000  Uiso   1.00
Zn582  Zn    0.54389   0.19775   0.70657   0.00000  Uiso   1.00
Zn583  Zn    0.46226   0.20439   0.78733   0.00000  Uiso   1.00
Br584  Br    0.89378   0.01349   0.69044   0.00000  Uiso   1.00
Br585  Br    0.86817   0.02627   0.99932   0.00000  Uiso   1.00
Br586  Br    0.87004   0.22441   0.56692   0.00000  Uiso   1.00
Br587  Br    0.78642   0.27636   0.91049   0.00000  Uiso   1.00
Br588  Br    0.76413   0.28759   0.52259   0.00000  Uiso   1.00
Br589  Br    0.77920   0.09214   0.89220   0.00000  Uiso   1.00
C590   C     0.71934   0.15948   0.76009   0.00000  Uiso   1.00
C591   C     0.85118   0.16608   0.55330   0.00000  Uiso   1.00
C592   C     0.86158   0.09630   0.56364   0.00000  Uiso   1.00
C593   C     0.94744   0.17383   0.74002   0.00000  Uiso   1.00
C594   C     0.80598   0.19257   0.92111   0.00000  Uiso   1.00
C595   C     0.99328   0.17677   0.73602   0.00000  Uiso   1.00
C596   C     0.67414   0.15699   0.76366   0.00000  Uiso   1.00
C597   C     0.84693   0.32242   0.73621   0.00000  Uiso   1.00
C598   C     0.81834   0.01208   0.76383   0.00000  Uiso   1.00
C599   C     0.82252   0.05597   0.76038   0.00000  Uiso   1.00
C600   C     0.84317   0.27791   0.74014   0.00000  Uiso   1.00
C601   C     0.78784   0.23926   0.98946   0.00000  Uiso   1.00
C602   C     0.85166   0.14801   0.62905   0.00000  Uiso   1.00
C603   C     0.81494   0.18477   0.87127   0.00000  Uiso   1.00
C604   C     0.85563   0.08214   0.52099   0.00000  Uiso   1.00
C605   C     0.85818   0.13776   0.58038   0.00000  Uiso   1.00
C606   C     0.79383   0.23168   0.94270   0.00000  Uiso   1.00
C607   C     0.80028   0.21184   0.51327   0.00000  Uiso   1.00
C608   C     0.81826   0.17596   0.99148   0.00000  Uiso   1.00
C609   C     0.81290   0.16263   0.94771   0.00000  Uiso   1.00
C610   C     0.83665   0.15075   0.51399   0.00000  Uiso   1.00
C611   C     0.84039   0.10845   0.99682   0.00000  Uiso   1.00
C612   C     0.82642   0.09321   0.95764   0.00000  Uiso   1.00
C613   C     0.81199   0.11954   0.93386   0.00000  Uiso   1.00
F614   F     0.87065   0.06943   0.58933   0.00000  Uiso   1.00
F615   F     0.78490   0.32888   0.79610   0.00000  Uiso   1.00
F616   F     0.82376   0.05208   0.94347   0.00000  Uiso   1.00
F617   F     0.68784   0.19965   0.70412   0.00000  Uiso   1.00
H618   H     0.98581   0.13852   0.78929   0.00000  Uiso   1.00
H619   H     0.79405   0.21810   0.54942   0.00000  Uiso   1.00
O620   O     0.83333   0.16667   0.75000   0.00000  Uiso   1.00
O621   O     0.82118   0.12637   0.65458   0.00000  Uiso   1.00
O622   O     0.79607   0.20391   0.84968   0.00000  Uiso   1.00
O623   O     0.87491   0.17759   0.64606   0.00000  Uiso   1.00
O624   O     0.84118   0.15880   0.84968   0.00000  Uiso   1.00
O625   O     0.84597   0.08019   0.78213   0.00000  Uiso   1.00
O626   O     0.81298   0.26085   0.77013   0.00000  Uiso   1.00
O627   O     0.74078   0.13291   0.73413   0.00000  Uiso   1.00
O628   O     0.93360   0.19272   0.71360   0.00000  Uiso   1.00
O629   O     0.73738   0.18878   0.78213   0.00000  Uiso   1.00
O630   O     0.92158   0.15226   0.77013   0.00000  Uiso   1.00
O631   O     0.80426   0.06944   0.73413   0.00000  Uiso   1.00
O632   O     0.87012   0.25620   0.71360   0.00000  Uiso   1.00
Zn633  Zn    0.86005   0.13994   0.78734   0.00000  Uiso   1.00
Zn634  Zn    0.80046   0.12458   0.71875   0.00000  Uiso   1.00
Zn635  Zn    0.87723   0.19775   0.70657   0.00000  Uiso   1.00
Zn636  Zn    0.79560   0.20439   0.78733   0.00000  Uiso   1.00
Br637  Br    0.22711   0.34682   0.69044   0.00000  Uiso   1.00
Br638  Br    0.20150   0.35961   0.99932   0.00000  Uiso   1.00
Br639  Br    0.20337   0.55774   0.56692   0.00000  Uiso   1.00
Br640  Br    0.11975   0.60970   0.91049   0.00000  Uiso   1.00
Br641  Br    0.09746   0.62092   0.52259   0.00000  Uiso   1.00
Br642  Br    0.11254   0.42547   0.89220   0.00000  Uiso   1.00
C643   C     0.05267   0.49282   0.76009   0.00000  Uiso   1.00
C644   C     0.18451   0.49941   0.55330   0.00000  Uiso   1.00
C645   C     0.19492   0.42964   0.56364   0.00000  Uiso   1.00
C646   C     0.28077   0.50716   0.74002   0.00000  Uiso   1.00
C647   C     0.13931   0.52591   0.92111   0.00000  Uiso   1.00
C648   C     0.32661   0.51010   0.73602   0.00000  Uiso   1.00
C649   C     0.00748   0.49032   0.76366   0.00000  Uiso   1.00
C650   C     0.18026   0.65575   0.73621   0.00000  Uiso   1.00
C651   C     0.15167   0.34541   0.76383   0.00000  Uiso   1.00
C652   C     0.15586   0.38930   0.76038   0.00000  Uiso   1.00
C653   C     0.17650   0.61125   0.74014   0.00000  Uiso   1.00
C654   C     0.12117   0.57259   0.98946   0.00000  Uiso   1.00
C655   C     0.18499   0.48135   0.62905   0.00000  Uiso   1.00
C656   C     0.14828   0.51810   0.87127   0.00000  Uiso   1.00
C657   C     0.18896   0.41547   0.52099   0.00000  Uiso   1.00
C658   C     0.19151   0.47109   0.58038   0.00000  Uiso   1.00
C659   C     0.12716   0.56501   0.94270   0.00000  Uiso   1.00
C660   C     0.13361   0.54518   0.51327   0.00000  Uiso   1.00
C661   C     0.15159   0.50930   0.99148   0.00000  Uiso   1.00
C662   C     0.14624   0.49596   0.94771   0.00000  Uiso   1.00
C663   C     0.16999   0.48408   0.51399   0.00000  Uiso   1.00
C664   C     0.17372   0.44178   0.99682   0.00000  Uiso   1.00
C665   C     0.15976   0.42654   0.95764   0.00000  Uiso   1.00
C666   C     0.14532   0.45288   0.93386   0.00000  Uiso   1.00
F667   F     0.20399   0.40276   0.58933   0.00000  Uiso   1.00
F668   F     0.11823   0.66222   0.79610   0.00000  Uiso   1.00
F669   F     0.15709   0.38541   0.94347   0.00000  Uiso   1.00
F670   F     0.02118   0.53298   0.70412   0.00000  Uiso   1.00
H671   H     0.31915   0.47185   0.78929   0.00000  Uiso   1.00
H672   H     0.12738   0.55144   0.54942   0.00000  Uiso   1.00
O673   O     0.16667   0.50000   0.75000   0.00000  Uiso   1.00
O674   O     0.15451   0.45970   0.65458   0.00000  Uiso   1.00
O675   O     0.12940   0.53724   0.84968   0.00000  Uiso   1.00
O676   O     0.20824   0.51092   0.64606   0.00000  Uiso   1.00
O677   O     0.17451   0.49213   0.84968   0.00000  Uiso   1.00
O678   O     0.17930   0.41352   0.78213   0.00000  Uiso   1.00
O679   O     0.14632   0.59418   0.77013   0.00000  Uiso   1.00
O680   O     0.07412   0.46625   0.73413   0.00000  Uiso   1.00
O681   O     0.26693   0.52605   0.71360   0.00000  Uiso   1.00
O682   O     0.07071   0.52211   0.78213   0.00000  Uiso   1.00
O683   O     0.25491   0.48559   0.77013   0.00000  Uiso   1.00
O684   O     0.13760   0.40277   0.73413   0.00000  Uiso   1.00
O685   O     0.20345   0.58953   0.71360   0.00000  Uiso   1.00
Zn686  Zn    0.19338   0.47327   0.78734   0.00000  Uiso   1.00
Zn687  Zn    0.13379   0.45791   0.71875   0.00000  Uiso   1.00
Zn688  Zn    0.21056   0.53109   0.70657   0.00000  Uiso   1.00
Zn689  Zn    0.12893   0.53773   0.78733   0.00000  Uiso   1.00
Br690  Br    0.56044   0.34682   0.69044   0.00000  Uiso   1.00
Br691  Br    0.53484   0.35961   0.99932   0.00000  Uiso   1.00
Br692  Br    0.53670   0.55774   0.56692   0.00000  Uiso   1.00
Br693  Br    0.45309   0.60970   0.91049   0.00000  Uiso   1.00
Br694  Br    0.43080   0.62092   0.52259   0.00000  Uiso   1.00
Br695  Br    0.44587   0.42547   0.89220   0.00000  Uiso   1.00
C696   C     0.38601   0.49282   0.76009   0.00000  Uiso   1.00
C697   C     0.51784   0.49941   0.55330   0.00000  Uiso   1.00
C698   C     0.52825   0.42964   0.56364   0.00000  Uiso   1.00
C699   C     0.61410   0.50716   0.74002   0.00000  Uiso   1.00
C700   C     0.47264   0.52591   0.92111   0.00000  Uiso   1.00
C701   C     0.65995   0.51010   0.73602   0.00000  Uiso   1.00
C702   C     0.34081   0.49032   0.76366   0.00000  Uiso   1.00
C703   C     0.51360   0.65575   0.73621   0.00000  Uiso   1.00
C704   C     0.48500   0.34541   0.76383   0.00000  Uiso   1.00
C705   C     0.48919   0.38930   0.76038   0.00000  Uiso   1.00
C706   C     0.50984   0.61125   0.74014   0.00000  Uiso   1.00
C707   C     0.45450   0.57259   0.98946   0.00000  Uiso   1.00
C708   C     0.51833   0.48135   0.62905   0.00000  Uiso   1.00
C709   C     0.48161   0.51810   0.87127   0.00000  Uiso   1.00
C710   C     0.52230   0.41547   0.52099   0.00000  Uiso   1.00
C711   C     0.52485   0.47109   0.58038   0.00000  Uiso   1.00
C712   C     0.46049   0.56501   0.94270   0.00000  Uiso   1.00
C713   C     0.46694   0.54518   0.51327   0.00000  Uiso   1.00
C714   C     0.48492   0.50930   0.99148   0.00000  Uiso   1.00
C715   C     0.47957   0.49596   0.94771   0.00000  Uiso   1.00
C716   C     0.50332   0.48408   0.51399   0.00000  Uiso   1.00
C717   C     0.50705   0.44178   0.99682   0.00000  Uiso   1.00
C718   C     0.49309   0.42654   0.95764   0.00000  Uiso   1.00
C719   C     0.47865   0.45288   0.93386   0.00000  Uiso   1.00
F720   F     0.53732   0.40276   0.58933   0.00000  Uiso   1.00
F721   F     0.45156   0.66222   0.79610   0.00000  Uiso   1.00
F722   F     0.49042   0.38541   0.94347   0.00000  Uiso   1.00
F723   F     0.35451   0.53298   0.70412   0.00000  Uiso   1.00
H724   H     0.65248   0.47185   0.78929   0.00000  Uiso   1.00
H725   H     0.46071   0.55144   0.54942   0.00000  Uiso   1.00
O726   O     0.50000   0.50000   0.75000   0.00000  Uiso   1.00
O727   O     0.48784   0.45970   0.65458   0.00000  Uiso   1.00
O728   O     0.46274   0.53724   0.84968   0.00000  Uiso   1.00
O729   O     0.54157   0.51092   0.64606   0.00000  Uiso   1.00
O730   O     0.50785   0.49213   0.84968   0.00000  Uiso   1.00
O731   O     0.51264   0.41352   0.78213   0.00000  Uiso   1.00
O732   O     0.47965   0.59418   0.77013   0.00000  Uiso   1.00
O733   O     0.40745   0.46625   0.73413   0.00000  Uiso   1.00
O734   O     0.60026   0.52605   0.71360   0.00000  Uiso   1.00
O735   O     0.40405   0.52211   0.78213   0.00000  Uiso   1.00
O736   O     0.58824   0.48559   0.77013   0.00000  Uiso   1.00
O737   O     0.47093   0.40277   0.73413   0.00000  Uiso   1.00
O738   O     0.53678   0.58953   0.71360   0.00000  Uiso   1.00
Zn739  Zn    0.52672   0.47327   0.78734   0.00000  Uiso   1.00
Zn740  Zn    0.46713   0.45791   0.71875   0.00000  Uiso   1.00
Zn741  Zn    0.54389   0.53109   0.70657   0.00000  Uiso   1.00
Zn742  Zn    0.46226   0.53773   0.78733   0.00000  Uiso   1.00
Br743  Br    0.89378   0.34682   0.69044   0.00000  Uiso   1.00
Br744  Br    0.86817   0.35961   0.99932   0.00000  Uiso   1.00
Br745  Br    0.87004   0.55774   0.56692   0.00000  Uiso   1.00
Br746  Br    0.78642   0.60970   0.91049   0.00000  Uiso   1.00
Br747  Br    0.76413   0.62092   0.52259   0.00000  Uiso   1.00
Br748  Br    0.77920   0.42547   0.89220   0.00000  Uiso   1.00
C749   C     0.71934   0.49282   0.76009   0.00000  Uiso   1.00
C750   C     0.85118   0.49941   0.55330   0.00000  Uiso   1.00
C751   C     0.86158   0.42964   0.56364   0.00000  Uiso   1.00
C752   C     0.94744   0.50716   0.74002   0.00000  Uiso   1.00
C753   C     0.80598   0.52591   0.92111   0.00000  Uiso   1.00
C754   C     0.99328   0.51010   0.73602   0.00000  Uiso   1.00
C755   C     0.67414   0.49032   0.76366   0.00000  Uiso   1.00
C756   C     0.84693   0.65575   0.73621   0.00000  Uiso   1.00
C757   C     0.81834   0.34541   0.76383   0.00000  Uiso   1.00
C758   C     0.82252   0.38930   0.76038   0.00000  Uiso   1.00
C759   C     0.84317   0.61125   0.74014   0.00000  Uiso   1.00
C760   C     0.78784   0.57259   0.98946   0.00000  Uiso   1.00
C761   C     0.85166   0.48135   0.62905   0.00000  Uiso   1.00
C762   C     0.81494   0.51810   0.87127   0.00000  Uiso   1.00
C763   C     0.85563   0.41547   0.52099   0.00000  Uiso   1.00
C764   C     0.85818   0.47109   0.58038   0.00000  Uiso   1.00
C765   C     0.79383   0.56501   0.94270   0.00000  Uiso   1.00
C766   C     0.80028   0.54518   0.51327   0.00000  Uiso   1.00
C767   C     0.81826   0.50930   0.99148   0.00000  Uiso   1.00
C768   C     0.81290   0.49596   0.94771   0.00000  Uiso   1.00
C769   C     0.83665   0.48408   0.51399   0.00000  Uiso   1.00
C770   C     0.84039   0.44178   0.99682   0.00000  Uiso   1.00
C771   C     0.82642   0.42654   0.95764   0.00000  Uiso   1.00
C772   C     0.81199   0.45288   0.93386   0.00000  Uiso   1.00
F773   F     0.87065   0.40276   0.58933   0.00000  Uiso   1.00
F774   F     0.78490   0.66222   0.79610   0.00000  Uiso   1.00
F775   F     0.82376   0.38541   0.94347   0.00000  Uiso   1.00
F776   F     0.68784   0.53298   0.70412   0.00000  Uiso   1.00
H777   H     0.98581   0.47185   0.78929   0.00000  Uiso   1.00
H778   H     0.79405   0.55144   0.54942   0.00000  Uiso   1.00
O779   O     0.83333   0.50000   0.75000   0.00000  Uiso   1.00
O780   O     0.82118   0.45970   0.65458   0.00000  Uiso   1.00
O781   O     0.79607   0.53724   0.84968   0.00000  Uiso   1.00
O782   O     0.87491   0.51092   0.64606   0.00000  Uiso   1.00
O783   O     0.84118   0.49213   0.84968   0.00000  Uiso   1.00
O784   O     0.84597   0.41352   0.78213   0.00000  Uiso   1.00
O785   O     0.81298   0.59418   0.77013   0.00000  Uiso   1.00
O786   O     0.74078   0.46625   0.73413   0.00000  Uiso   1.00
O787   O     0.93360   0.52605   0.71360   0.00000  Uiso   1.00
O788   O     0.73738   0.52211   0.78213   0.00000  Uiso   1.00
O789   O     0.92158   0.48559   0.77013   0.00000  Uiso   1.00
O790   O     0.80426   0.40277   0.73413   0.00000  Uiso   1.00
O791   O     0.87012   0.58953   0.71360   0.00000  Uiso   1.00
Zn792  Zn    0.86005   0.47327   0.78734   0.00000  Uiso   1.00
Zn793  Zn    0.80046   0.45791   0.71875   0.00000  Uiso   1.00
Zn794  Zn    0.87723   0.53109   0.70657   0.00000  Uiso   1.00
Zn795  Zn    0.79560   0.53773   0.78733   0.00000  Uiso   1.00
Br796  Br    0.22711   0.68015   0.69044   0.00000  Uiso   1.00
Br797  Br    0.20150   0.69294   0.99932   0.00000  Uiso   1.00
Br798  Br    0.20337   0.89107   0.56692   0.00000  Uiso   1.00
Br799  Br    0.11975   0.94303   0.91049   0.00000  Uiso   1.00
Br800  Br    0.09746   0.95426   0.52259   0.00000  Uiso   1.00
Br801  Br    0.11254   0.75881   0.89220   0.00000  Uiso   1.00
C802   C     0.05267   0.82615   0.76009   0.00000  Uiso   1.00
C803   C     0.18451   0.83275   0.55330   0.00000  Uiso   1.00
C804   C     0.19492   0.76297   0.56364   0.00000  Uiso   1.00
C805   C     0.28077   0.84050   0.74002   0.00000  Uiso   1.00
C806   C     0.13931   0.85924   0.92111   0.00000  Uiso   1.00
C807   C     0.32661   0.84344   0.73602   0.00000  Uiso   1.00
C808   C     0.00748   0.82365   0.76366   0.00000  Uiso   1.00
C809   C     0.18026   0.98908   0.73621   0.00000  Uiso   1.00
C810   C     0.15167   0.67874   0.76383   0.00000  Uiso   1.00
C811   C     0.15586   0.72264   0.76038   0.00000  Uiso   1.00
C812   C     0.17650   0.94458   0.74014   0.00000  Uiso   1.00
C813   C     0.12117   0.90592   0.98946   0.00000  Uiso   1.00
C814   C     0.18499   0.81468   0.62905   0.00000  Uiso   1.00
C815   C     0.14828   0.85143   0.87127   0.00000  Uiso   1.00
C816   C     0.18896   0.74880   0.52099   0.00000  Uiso   1.00
C817   C     0.19151   0.80443   0.58038   0.00000  Uiso   1.00
C818   C     0.12716   0.89835   0.94270   0.00000  Uiso   1.00
C819   C     0.13361   0.87851   0.51327   0.00000  Uiso   1.00
C820   C     0.15159   0.84263   0.99148   0.00000  Uiso   1.00
C821   C     0.14624   0.82929   0.94771   0.00000  Uiso   1.00
C822   C     0.16999   0.81741   0.51399   0.00000  Uiso   1.00
C823   C     0.17372   0.77511   0.99682   0.00000  Uiso   1.00
C824   C     0.15976   0.75987   0.95764   0.00000  Uiso   1.00
C825   C     0.14532   0.78621   0.93386   0.00000  Uiso   1.00
F826   F     0.20399   0.73610   0.58933   0.00000  Uiso   1.00
F827   F     0.11823   0.99555   0.79610   0.00000  Uiso   1.00
F828   F     0.15709   0.71875   0.94347   0.00000  Uiso   1.00
F829   F     0.02118   0.86632   0.70412   0.00000  Uiso   1.00
H830   H     0.31915   0.80518   0.78929   0.00000  Uiso   1.00
H831   H     0.12738   0.88477   0.54942   0.00000  Uiso   1.00
O832   O     0.16667   0.83333   0.75000   0.00000  Uiso   1.00
O833   O     0.15451   0.79304   0.65458   0.00000  Uiso   1.00
O834   O     0.12940   0.87058   0.84968   0.00000  Uiso   1.00
O835   O     0.20824   0.84425   0.64606   0.00000  Uiso   1.00
O836   O     0.17451   0.82546   0.84968   0.00000  Uiso   1.00
O837   O     0.17930   0.74686   0.78213   0.00000  Uiso   1.00
O838   O     0.14632   0.92751   0.77013   0.00000  Uiso   1.00
O839   O     0.07412   0.79958   0.73413   0.00000  Uiso   1.00
O840   O     0.26693   0.85939   0.71360   0.00000  Uiso   1.00
O841   O     0.07071   0.85544   0.78213   0.00000  Uiso   1.00
O842   O     0.25491   0.81892   0.77013   0.00000  Uiso   1.00
O843   O     0.13760   0.73610   0.73413   0.00000  Uiso   1.00
O844   O     0.20345   0.92286   0.71360   0.00000  Uiso   1.00
Zn845  Zn    0.19338   0.80661   0.78734   0.00000  Uiso   1.00
Zn846  Zn    0.13379   0.79124   0.71875   0.00000  Uiso   1.00
Zn847  Zn    0.21056   0.86442   0.70657   0.00000  Uiso   1.00
Zn848  Zn    0.12893   0.87106   0.78733   0.00000  Uiso   1.00
Br849  Br    0.56044   0.68015   0.69044   0.00000  Uiso   1.00
Br850  Br    0.53484   0.69294   0.99932   0.00000  Uiso   1.00
Br851  Br    0.53670   0.89107   0.56692   0.00000  Uiso   1.00
Br852  Br    0.45309   0.94303   0.91049   0.00000  Uiso   1.00
Br853  Br    0.43080   0.95426   0.52259   0.00000  Uiso   1.00
Br854  Br    0.44587   0.75881   0.89220   0.00000  Uiso   1.00
C855   C     0.38601   0.82615   0.76009   0.00000  Uiso   1.00
C856   C     0.51784   0.83275   0.55330   0.00000  Uiso   1.00
C857   C     0.52825   0.76297   0.56364   0.00000  Uiso   1.00
C858   C     0.61410   0.84050   0.74002   0.00000  Uiso   1.00
C859   C     0.47264   0.85924   0.92111   0.00000  Uiso   1.00
C860   C     0.65995   0.84344   0.73602   0.00000  Uiso   1.00
C861   C     0.34081   0.82365   0.76366   0.00000  Uiso   1.00
C862   C     0.51360   0.98908   0.73621   0.00000  Uiso   1.00
C863   C     0.48500   0.67874   0.76383   0.00000  Uiso   1.00
C864   C     0.48919   0.72264   0.76038   0.00000  Uiso   1.00
C865   C     0.50984   0.94458   0.74014   0.00000  Uiso   1.00
C866   C     0.45450   0.90592   0.98946   0.00000  Uiso   1.00
C867   C     0.51833   0.81468   0.62905   0.00000  Uiso   1.00
C868   C     0.48161   0.85143   0.87127   0.00000  Uiso   1.00
C869   C     0.52230   0.74880   0.52099   0.00000  Uiso   1.00
C870   C     0.52485   0.80443   0.58038   0.00000  Uiso   1.00
C871   C     0.46049   0.89835   0.94270   0.00000  Uiso   1.00
C872   C     0.46694   0.87851   0.51327   0.00000  Uiso   1.00
C873   C     0.48492   0.84263   0.99148   0.00000  Uiso   1.00
C874   C     0.47957   0.82929   0.94771   0.00000  Uiso   1.00
C875   C     0.50332   0.81741   0.51399   0.00000  Uiso   1.00
C876   C     0.50705   0.77511   0.99682   0.00000  Uiso   1.00
C877   C     0.49309   0.75987   0.95764   0.00000  Uiso   1.00
C878   C     0.47865   0.78621   0.93386   0.00000  Uiso   1.00
F879   F     0.53732   0.73610   0.58933   0.00000  Uiso   1.00
F880   F     0.45156   0.99555   0.79610   0.00000  Uiso   1.00
F881   F     0.49042   0.71875   0.94347   0.00000  Uiso   1.00
F882   F     0.35451   0.86632   0.70412   0.00000  Uiso   1.00
H883   H     0.65248   0.80518   0.78929   0.00000  Uiso   1.00
H884   H     0.46071   0.88477   0.54942   0.00000  Uiso   1.00
O885   O     0.50000   0.83333   0.75000   0.00000  Uiso   1.00
O886   O     0.48784   0.79304   0.65458   0.00000  Uiso   1.00
O887   O     0.46274   0.87058   0.84968   0.00000  Uiso   1.00
O888   O     0.54157   0.84425   0.64606   0.00000  Uiso   1.00
O889   O     0.50785   0.82546   0.84968   0.00000  Uiso   1.00
O890   O     0.51264   0.74686   0.78213   0.00000  Uiso   1.00
O891   O     0.47965   0.92751   0.77013   0.00000  Uiso   1.00
O892   O     0.40745   0.79958   0.73413   0.00000  Uiso   1.00
O893   O     0.60026   0.85939   0.71360   0.00000  Uiso   1.00
O894   O     0.40405   0.85544   0.78213   0.00000  Uiso   1.00
O895   O     0.58824   0.81892   0.77013   0.00000  Uiso   1.00
O896   O     0.47093   0.73610   0.73413   0.00000  Uiso   1.00
O897   O     0.53678   0.92286   0.71360   0.00000  Uiso   1.00
Zn898  Zn    0.52672   0.80661   0.78734   0.00000  Uiso   1.00
Zn899  Zn    0.46713   0.79124   0.71875   0.00000  Uiso   1.00
Zn900  Zn    0.54389   0.86442   0.70657   0.00000  Uiso   1.00
Zn901  Zn    0.46226   0.87106   0.78733   0.00000  Uiso   1.00
Br902  Br    0.89378   0.68015   0.69044   0.00000  Uiso   1.00
Br903  Br    0.86817   0.69294   0.99932   0.00000  Uiso   1.00
Br904  Br    0.87004   0.89107   0.56692   0.00000  Uiso   1.00
Br905  Br    0.78642   0.94303   0.91049   0.00000  Uiso   1.00
Br906  Br    0.76413   0.95426   0.52259   0.00000  Uiso   1.00
Br907  Br    0.77920   0.75881   0.89220   0.00000  Uiso   1.00
C908   C     0.71934   0.82615   0.76009   0.00000  Uiso   1.00
C909   C     0.85118   0.83275   0.55330   0.00000  Uiso   1.00
C910   C     0.86158   0.76297   0.56364   0.00000  Uiso   1.00
C911   C     0.94744   0.84050   0.74002   0.00000  Uiso   1.00
C912   C     0.80598   0.85924   0.92111   0.00000  Uiso   1.00
C913   C     0.99328   0.84344   0.73602   0.00000  Uiso   1.00
C914   C     0.67414   0.82365   0.76366   0.00000  Uiso   1.00
C915   C     0.84693   0.98908   0.73621   0.00000  Uiso   1.00
C916   C     0.81834   0.67874   0.76383   0.00000  Uiso   1.00
C917   C     0.82252   0.72264   0.76038   0.00000  Uiso   1.00
C918   C     0.84317   0.94458   0.74014   0.00000  Uiso   1.00
C919   C     0.78784   0.90592   0.98946   0.00000  Uiso   1.00
C920   C     0.85166   0.81468   0.62905   0.00000  Uiso   1.00
C921   C     0.81494   0.85143   0.87127   0.00000  Uiso   1.00
C922   C     0.85563   0.74880   0.52099   0.00000  Uiso   1.00
C923   C     0.85818   0.80443   0.58038   0.00000  Uiso   1.00
C924   C     0.79383   0.89835   0.94270   0.00000  Uiso   1.00
C925   C     0.80028   0.87851   0.51327   0.00000  Uiso   1.00
C926   C     0.81826   0.84263   0.99148   0.00000  Uiso   1.00
C927   C     0.81290   0.82929   0.94771   0.00000  Uiso   1.00
C928   C     0.83665   0.81741   0.51399   0.00000  Uiso   1.00
C929   C     0.84039   0.77511   0.99682   0.00000  Uiso   1.00
C930   C     0.82642   0.75987   0.95764   0.00000  Uiso   1.00
C931   C     0.81199   0.78621   0.93386   0.00000  Uiso   1.00
F932   F     0.87065   0.73610   0.58933   0.00000  Uiso   1.00
F933   F     0.78490   0.99555   0.79610   0.00000  Uiso   1.00
F934   F     0.82376   0.71875   0.94347   0.00000  Uiso   1.00
F935   F     0.68784   0.86632   0.70412   0.00000  Uiso   1.00
H936   H     0.98581   0.80518   0.78929   0.00000  Uiso   1.00
H937   H     0.79405   0.88477   0.54942   0.00000  Uiso   1.00
O938   O     0.83333   0.83333   0.75000   0.00000  Uiso   1.00
O939   O     0.82118   0.79304   0.65458   0.00000  Uiso   1.00
O940   O     0.79607   0.87058   0.84968   0.00000  Uiso   1.00
O941   O     0.87491   0.84425   0.64606   0.00000  Uiso   1.00
O942   O     0.84118   0.82546   0.84968   0.00000  Uiso   1.00
O943   O     0.84597   0.74686   0.78213   0.00000  Uiso   1.00
O944   O     0.81298   0.92751   0.77013   0.00000  Uiso   1.00
O945   O     0.74078   0.79958   0.73413   0.00000  Uiso   1.00
O946   O     0.93360   0.85939   0.71360   0.00000  Uiso   1.00
O947   O     0.73738   0.85544   0.78213   0.00000  Uiso   1.00
O948   O     0.92158   0.81892   0.77013   0.00000  Uiso   1.00
O949   O     0.80426   0.73610   0.73413   0.00000  Uiso   1.00
O950   O     0.87012   0.92286   0.71360   0.00000  Uiso   1.00
Zn951  Zn    0.86005   0.80661   0.78734   0.00000  Uiso   1.00
Zn952  Zn    0.80046   0.79124   0.71875   0.00000  Uiso   1.00
Zn953  Zn    0.87723   0.86442   0.70657   0.00000  Uiso   1.00
Zn954  Zn    0.79560   0.87106   0.78733   0.00000  Uiso   1.00
loop_
_geom_bond_atom_site_label_1
_geom_bond_atom_site_label_2
_geom_bond_distance
_geom_bond_site_symmetry_2
_ccdc_geom_bond_type
Br1    C332    1.932   1_545 S
Br2    C498    1.928   .     S
Br3    C8      1.939   .     S
Br4    C23     1.935   .     S
Br5    C495    1.921   1_554 S
Br6    C30     1.934   .     S
C7     O44     1.266   .     A
C7     O46     1.266   .     A
C7     C13     1.437   .     S
C8     C22     1.396   .     A
C8     C27     1.423   .     A
C9     C21     1.394   .     A
C9     F31     1.360   .     S
C9     C22     1.397   .     A
C10    O45     1.281   .     A
C10    C12     1.455   .     S
C10    O47     1.279   .     A
C11    C26     1.425   .     A
C11    C23     1.427   .     A
C11    C20     1.486   .     S
C12    C66     1.336   .     S
C12    F87     1.362   .     S
C13    C118    1.336   1_455 S
C13    H141    1.086   1_455 S
C14    C17     1.454   .     S
C14    Br160   1.932   .     S
C14    C174    1.341   .     S
C15    C16     1.431   .     S
C15    C332    1.341   1_545 S
C15    F350    1.361   1_545 S
C16    O48     1.272   .     A
C16    O42     1.271   .     A
C17    O43     1.271   .     A
C17    O49     1.270   .     A
C18    C23     1.400   .     A
C18    Br482   1.921   .     S
C18    C501    1.387   .     S
C19    O38     1.272   .     A
C19    O40     1.282   .     A
C19    C22     1.465   .     S
C20    O41     1.294   .     A
C20    O39     1.280   .     A
C21    Br479   1.928   1_554 S
C21    C505    1.418   1_554 S
C24    H36     1.080   .     S
C24    C495    1.387   1_554 S
C24    C502    1.405   1_554 S
C25    C26     1.415   .     A
C25    C501    1.405   .     S
C25    C504    1.421   .     S
C26    C30     1.416   .     A
C27    C502    1.421   1_554 S
C27    C505    1.428   1_554 S
C28    C29     1.410   .     A
C28    C504    1.428   .     S
C28    C498    1.418   .     S
C29    C30     1.396   .     A
C29    F33     1.356   .     S
F32    C174    1.361   .     S
F34    C118    1.362   1_455 S
H35    C66     1.086   .     S
O37    Zn53    1.930   .     S
O37    Zn50    1.958   .     S
O37    Zn51    1.933   .     S
O37    Zn52    1.938   .     S
O38    Zn51    1.922   .     S
O39    Zn53    1.929   .     S
O40    Zn52    1.920   .     S
O41    Zn50    1.915   .     S
O42    Zn50    1.930   .     S
O43    Zn53    1.937   .     S
O44    Zn51    1.929   .     S
O45    Zn52    1.937   .     S
O46    Zn53    1.931   .     S
O47    Zn50    1.926   .     S
O48    Zn51    1.942   .     S
O49    Zn52    1.933   .     S
Br54   C385    1.932   1_545 S
Br55   C551    1.928   .     S
Br56   C61     1.939   .     S
Br57   C76     1.935   .     S
Br58   C548    1.921   1_554 S
Br59   C83     1.934   .     S
C60    O97     1.266   .     A
C60    O99     1.266   .     A
C60    C66     1.437   .     S
C61    C75     1.396   .     A
C61    C80     1.423   .     A
C62    C74     1.394   .     A
C62    F84     1.360   .     S
C62    C75     1.397   .     A
C63    O98     1.281   .     A
C63    C65     1.455   .     S
C63    O100    1.279   .     A
C64    C79     1.425   .     A
C64    C76     1.427   .     A
C64    C73     1.486   .     S
C65    C119    1.336   .     S
C65    F140    1.362   .     S
C67    C70     1.454   .     S
C67    Br213   1.932   .     S
C67    C227    1.341   .     S
C68    C69     1.431   .     S
C68    C385    1.341   1_545 S
C68    F403    1.361   1_545 S
C69    O101    1.272   .     A
C69    O95     1.271   .     A
C70    O96     1.271   .     A
C70    O102    1.270   .     A
C71    C76     1.400   .     A
C71    Br535   1.921   .     S
C71    C554    1.387   .     S
C72    O91     1.272   .     A
C72    O93     1.282   .     A
C72    C75     1.465   .     S
C73    O94     1.294   .     A
C73    O92     1.280   .     A
C74    Br532   1.928   1_554 S
C74    C558    1.418   1_554 S
C77    H89     1.080   .     S
C77    C548    1.387   1_554 S
C77    C555    1.405   1_554 S
C78    C79     1.415   .     A
C78    C554    1.405   .     S
C78    C557    1.421   .     S
C79    C83     1.416   .     A
C80    C555    1.421   1_554 S
C80    C558    1.428   1_554 S
C81    C82     1.410   .     A
C81    C557    1.428   .     S
C81    C551    1.418   .     S
C82    C83     1.396   .     A
C82    F86     1.356   .     S
F85    C227    1.361   .     S
H88    C119    1.086   .     S
O90    Zn106   1.930   .     S
O90    Zn103   1.958   .     S
O90    Zn104   1.933   .     S
O90    Zn105   1.938   .     S
O91    Zn104   1.922   .     S
O92    Zn106   1.929   .     S
O93    Zn105   1.920   .     S
O94    Zn103   1.915   .     S
O95    Zn103   1.930   .     S
O96    Zn106   1.937   .     S
O97    Zn104   1.929   .     S
O98    Zn105   1.937   .     S
O99    Zn106   1.931   .     S
O100   Zn103   1.926   .     S
O101   Zn104   1.942   .     S
O102   Zn105   1.933   .     S
Br107  C438    1.932   1_545 S
Br108  C604    1.928   .     S
Br109  C114    1.939   .     S
Br110  C129    1.935   .     S
Br111  C601    1.921   1_554 S
Br112  C136    1.934   .     S
C113   O150    1.266   .     A
C113   O152    1.266   .     A
C113   C119    1.437   .     S
C114   C128    1.396   .     A
C114   C133    1.423   .     A
C115   C127    1.394   .     A
C115   F137    1.360   .     S
C115   C128    1.397   .     A
C116   O151    1.281   .     A
C116   C118    1.455   .     S
C116   O153    1.279   .     A
C117   C132    1.425   .     A
C117   C129    1.427   .     A
C117   C126    1.486   .     S
C118   C13     1.336   1_655 S
C118   F34     1.362   1_655 S
C120   C123    1.454   .     S
C120   Br266   1.932   .     S
C120   C280    1.341   .     S
C121   C122    1.431   .     S
C121   C438    1.341   1_545 S
C121   F456    1.361   1_545 S
C122   O154    1.272   .     A
C122   O148    1.271   .     A
C123   O149    1.271   .     A
C123   O155    1.270   .     A
C124   C129    1.400   .     A
C124   Br588   1.921   .     S
C124   C607    1.387   .     S
C125   O144    1.272   .     A
C125   O146    1.282   .     A
C125   C128    1.465   .     S
C126   O147    1.294   .     A
C126   O145    1.280   .     A
C127   Br585   1.928   1_554 S
C127   C611    1.418   1_554 S
C130   H142    1.080   .     S
C130   C601    1.387   1_554 S
C130   C608    1.405   1_554 S
C131   C132    1.415   .     A
C131   C607    1.405   .     S
C131   C610    1.421   .     S
C132   C136    1.416   .     A
C133   C608    1.421   1_554 S
C133   C611    1.428   1_554 S
C134   C135    1.410   .     A
C134   C610    1.428   .     S
C134   C604    1.418   .     S
C135   C136    1.396   .     A
C135   F139    1.356   .     S
F138   C280    1.361   .     S
H141   C13     1.086   1_655 S
O143   Zn159   1.930   .     S
O143   Zn156   1.958   .     S
O143   Zn157   1.933   .     S
O143   Zn158   1.938   .     S
O144   Zn157   1.922   .     S
O145   Zn159   1.929   .     S
O146   Zn158   1.920   .     S
O147   Zn156   1.915   .     S
O148   Zn156   1.930   .     S
O149   Zn159   1.937   .     S
O150   Zn157   1.929   .     S
O151   Zn158   1.937   .     S
O152   Zn159   1.931   .     S
O153   Zn156   1.926   .     S
O154   Zn157   1.942   .     S
O155   Zn158   1.933   .     S
Br161  C657    1.928   .     S
Br162  C167    1.939   .     S
Br163  C182    1.935   .     S
Br164  C654    1.921   1_554 S
Br165  C189    1.934   .     S
C166   O203    1.266   .     A
C166   O205    1.266   .     A
C166   C172    1.437   .     S
C167   C181    1.396   .     A
C167   C186    1.423   .     A
C168   C180    1.394   .     A
C168   F190    1.360   .     S
C168   C181    1.397   .     A
C169   O204    1.281   .     A
C169   C171    1.455   .     S
C169   O206    1.279   .     A
C170   C185    1.425   .     A
C170   C182    1.427   .     A
C170   C179    1.486   .     S
C171   C225    1.336   .     S
C171   F246    1.362   .     S
C172   C277    1.336   1_455 S
C172   H300    1.086   1_455 S
C173   C176    1.454   .     S
C173   Br319   1.932   .     S
C173   C333    1.341   .     S
C174   C175    1.431   .     S
C175   O207    1.272   .     A
C175   O201    1.271   .     A
C176   O202    1.271   .     A
C176   O208    1.270   .     A
C177   C182    1.400   .     A
C177   Br641   1.921   .     S
C177   C660    1.387   .     S
C178   O197    1.272   .     A
C178   O199    1.282   .     A
C178   C181    1.465   .     S
C179   O200    1.294   .     A
C179   O198    1.280   .     A
C180   Br638   1.928   1_554 S
C180   C664    1.418   1_554 S
C183   H195    1.080   .     S
C183   C654    1.387   1_554 S
C183   C661    1.405   1_554 S
C184   C185    1.415   .     A
C184   C660    1.405   .     S
C184   C663    1.421   .     S
C185   C189    1.416   .     A
C186   C661    1.421   1_554 S
C186   C664    1.428   1_554 S
C187   C188    1.410   .     A
C187   C663    1.428   .     S
C187   C657    1.418   .     S
C188   C189    1.396   .     A
C188   F192    1.356   .     S
F191   C333    1.361   .     S
F193   C277    1.362   1_455 S
H194   C225    1.086   .     S
O196   Zn212   1.930   .     S
O196   Zn209   1.958   .     S
O196   Zn210   1.933   .     S
O196   Zn211   1.938   .     S
O197   Zn210   1.922   .     S
O198   Zn212   1.929   .     S
O199   Zn211   1.920   .     S
O200   Zn209   1.915   .     S
O201   Zn209   1.930   .     S
O202   Zn212   1.937   .     S
O203   Zn210   1.929   .     S
O204   Zn211   1.937   .     S
O205   Zn212   1.931   .     S
O206   Zn209   1.926   .     S
O207   Zn210   1.942   .     S
O208   Zn211   1.933   .     S
Br214  C710    1.928   .     S
Br215  C220    1.939   .     S
Br216  C235    1.935   .     S
Br217  C707    1.921   1_554 S
Br218  C242    1.934   .     S
C219   O256    1.266   .     A
C219   O258    1.266   .     A
C219   C225    1.437   .     S
C220   C234    1.396   .     A
C220   C239    1.423   .     A
C221   C233    1.394   .     A
C221   F243    1.360   .     S
C221   C234    1.397   .     A
C222   O257    1.281   .     A
C222   C224    1.455   .     S
C222   O259    1.279   .     A
C223   C238    1.425   .     A
C223   C235    1.427   .     A
C223   C232    1.486   .     S
C224   C278    1.336   .     S
C224   F299    1.362   .     S
C226   C229    1.454   .     S
C226   Br372   1.932   .     S
C226   C386    1.341   .     S
C227   C228    1.431   .     S
C228   O260    1.272   .     A
C228   O254    1.271   .     A
C229   O255    1.271   .     A
C229   O261    1.270   .     A
C230   C235    1.400   .     A
C230   Br694   1.921   .     S
C230   C713    1.387   .     S
C231   O250    1.272   .     A
C231   O252    1.282   .     A
C231   C234    1.465   .     S
C232   O253    1.294   .     A
C232   O251    1.280   .     A
C233   Br691   1.928   1_554 S
C233   C717    1.418   1_554 S
C236   H248    1.080   .     S
C236   C707    1.387   1_554 S
C236   C714    1.405   1_554 S
C237   C238    1.415   .     A
C237   C713    1.405   .     S
C237   C716    1.421   .     S
C238   C242    1.416   .     A
C239   C714    1.421   1_554 S
C239   C717    1.428   1_554 S
C240   C241    1.410   .     A
C240   C716    1.428   .     S
C240   C710    1.418   .     S
C241   C242    1.396   .     A
C241   F245    1.356   .     S
F244   C386    1.361   .     S
H247   C278    1.086   .     S
O249   Zn265   1.930   .     S
O249   Zn262   1.958   .     S
O249   Zn263   1.933   .     S
O249   Zn264   1.938   .     S
O250   Zn263   1.922   .     S
O251   Zn265   1.929   .     S
O252   Zn264   1.920   .     S
O253   Zn262   1.915   .     S
O254   Zn262   1.930   .     S
O255   Zn265   1.937   .     S
O256   Zn263   1.929   .     S
O257   Zn264   1.937   .     S
O258   Zn265   1.931   .     S
O259   Zn262   1.926   .     S
O260   Zn263   1.942   .     S
O261   Zn264   1.933   .     S
Br267  C763    1.928   .     S
Br268  C273    1.939   .     S
Br269  C288    1.935   .     S
Br270  C760    1.921   1_554 S
Br271  C295    1.934   .     S
C272   O309    1.266   .     A
C272   O311    1.266   .     A
C272   C278    1.437   .     S
C273   C287    1.396   .     A
C273   C292    1.423   .     A
C274   C286    1.394   .     A
C274   F296    1.360   .     S
C274   C287    1.397   .     A
C275   O310    1.281   .     A
C275   C277    1.455   .     S
C275   O312    1.279   .     A
C276   C291    1.425   .     A
C276   C288    1.427   .     A
C276   C285    1.486   .     S
C277   C172    1.336   1_655 S
C277   F193    1.362   1_655 S
C279   C282    1.454   .     S
C279   Br425   1.932   .     S
C279   C439    1.341   .     S
C280   C281    1.431   .     S
C281   O313    1.272   .     A
C281   O307    1.271   .     A
C282   O308    1.271   .     A
C282   O314    1.270   .     A
C283   C288    1.400   .     A
C283   Br747   1.921   .     S
C283   C766    1.387   .     S
C284   O303    1.272   .     A
C284   O305    1.282   .     A
C284   C287    1.465   .     S
C285   O306    1.294   .     A
C285   O304    1.280   .     A
C286   Br744   1.928   1_554 S
C286   C770    1.418   1_554 S
C289   H301    1.080   .     S
C289   C760    1.387   1_554 S
C289   C767    1.405   1_554 S
C290   C291    1.415   .     A
C290   C766    1.405   .     S
C290   C769    1.421   .     S
C291   C295    1.416   .     A
C292   C767    1.421   1_554 S
C292   C770    1.428   1_554 S
C293   C294    1.410   .     A
C293   C769    1.428   .     S
C293   C763    1.418   .     S
C294   C295    1.396   .     A
C294   F298    1.356   .     S
F297   C439    1.361   .     S
H300   C172    1.086   1_655 S
O302   Zn318   1.930   .     S
O302   Zn315   1.958   .     S
O302   Zn316   1.933   .     S
O302   Zn317   1.938   .     S
O303   Zn316   1.922   .     S
O304   Zn318   1.929   .     S
O305   Zn317   1.920   .     S
O306   Zn315   1.915   .     S
O307   Zn315   1.930   .     S
O308   Zn318   1.937   .     S
O309   Zn316   1.929   .     S
O310   Zn317   1.937   .     S
O311   Zn318   1.931   .     S
O312   Zn315   1.926   .     S
O313   Zn316   1.942   .     S
O314   Zn317   1.933   .     S
Br320  C816    1.928   .     S
Br321  C326    1.939   .     S
Br322  C341    1.935   .     S
Br323  C813    1.921   1_554 S
Br324  C348    1.934   .     S
C325   O362    1.266   .     A
C325   O364    1.266   .     A
C325   C331    1.437   .     S
C326   C340    1.396   .     A
C326   C345    1.423   .     A
C327   C339    1.394   .     A
C327   F349    1.360   .     S
C327   C340    1.397   .     A
C328   O363    1.281   .     A
C328   C330    1.455   .     S
C328   O365    1.279   .     A
C329   C344    1.425   .     A
C329   C341    1.427   .     A
C329   C338    1.486   .     S
C330   C384    1.336   .     S
C330   F405    1.362   .     S
C331   C436    1.336   1_455 S
C331   H459    1.086   1_455 S
C332   C335    1.454   .     S
C332   Br1     1.932   1_565 S
C332   C15     1.341   1_565 S
C333   C334    1.431   .     S
C334   O366    1.272   .     A
C334   O360    1.271   .     A
C335   O361    1.271   .     A
C335   O367    1.270   .     A
C336   C341    1.400   .     A
C336   Br800   1.921   .     S
C336   C819    1.387   .     S
C337   O356    1.272   .     A
C337   O358    1.282   .     A
C337   C340    1.465   .     S
C338   O359    1.294   .     A
C338   O357    1.280   .     A
C339   Br797   1.928   1_554 S
C339   C823    1.418   1_554 S
C342   H354    1.080   .     S
C342   C813    1.387   1_554 S
C342   C820    1.405   1_554 S
C343   C344    1.415   .     A
C343   C819    1.405   .     S
C343   C822    1.421   .     S
C344   C348    1.416   .     A
C345   C820    1.421   1_554 S
C345   C823    1.428   1_554 S
C346   C347    1.410   .     A
C346   C822    1.428   .     S
C346   C816    1.418   .     S
C347   C348    1.396   .     A
C347   F351    1.356   .     S
F350   C15     1.361   1_565 S
F352   C436    1.362   1_455 S
H353   C384    1.086   .     S
O355   Zn371   1.930   .     S
O355   Zn368   1.958   .     S
O355   Zn369   1.933   .     S
O355   Zn370   1.938   .     S
O356   Zn369   1.922   .     S
O357   Zn371   1.929   .     S
O358   Zn370   1.920   .     S
O359   Zn368   1.915   .     S
O360   Zn368   1.930   .     S
O361   Zn371   1.937   .     S
O362   Zn369   1.929   .     S
O363   Zn370   1.937   .     S
O364   Zn371   1.931   .     S
O365   Zn368   1.926   .     S
O366   Zn369   1.942   .     S
O367   Zn370   1.933   .     S
Br373  C869    1.928   .     S
Br374  C379    1.939   .     S
Br375  C394    1.935   .     S
Br376  C866    1.921   1_554 S
Br377  C401    1.934   .     S
C378   O415    1.266   .     A
C378   O417    1.266   .     A
C378   C384    1.437   .     S
C379   C393    1.396   .     A
C379   C398    1.423   .     A
C380   C392    1.394   .     A
C380   F402    1.360   .     S
C380   C393    1.397   .     A
C381   O416    1.281   .     A
C381   C383    1.455   .     S
C381   O418    1.279   .     A
C382   C397    1.425   .     A
C382   C394    1.427   .     A
C382   C391    1.486   .     S
C383   C437    1.336   .     S
C383   F458    1.362   .     S
C385   C388    1.454   .     S
C385   Br54    1.932   1_565 S
C385   C68     1.341   1_565 S
C386   C387    1.431   .     S
C387   O419    1.272   .     A
C387   O413    1.271   .     A
C388   O414    1.271   .     A
C388   O420    1.270   .     A
C389   C394    1.400   .     A
C389   Br853   1.921   .     S
C389   C872    1.387   .     S
C390   O409    1.272   .     A
C390   O411    1.282   .     A
C390   C393    1.465   .     S
C391   O412    1.294   .     A
C391   O410    1.280   .     A
C392   Br850   1.928   1_554 S
C392   C876    1.418   1_554 S
C395   H407    1.080   .     S
C395   C866    1.387   1_554 S
C395   C873    1.405   1_554 S
C396   C397    1.415   .     A
C396   C872    1.405   .     S
C396   C875    1.421   .     S
C397   C401    1.416   .     A
C398   C873    1.421   1_554 S
C398   C876    1.428   1_554 S
C399   C400    1.410   .     A
C399   C875    1.428   .     S
C399   C869    1.418   .     S
C400   C401    1.396   .     A
C400   F404    1.356   .     S
F403   C68     1.361   1_565 S
H406   C437    1.086   .     S
O408   Zn424   1.930   .     S
O408   Zn421   1.958   .     S
O408   Zn422   1.933   .     S
O408   Zn423   1.938   .     S
O409   Zn422   1.922   .     S
O410   Zn424   1.929   .     S
O411   Zn423   1.920   .     S
O412   Zn421   1.915   .     S
O413   Zn421   1.930   .     S
O414   Zn424   1.937   .     S
O415   Zn422   1.929   .     S
O416   Zn423   1.937   .     S
O417   Zn424   1.931   .     S
O418   Zn421   1.926   .     S
O419   Zn422   1.942   .     S
O420   Zn423   1.933   .     S
Br426  C922    1.928   .     S
Br427  C432    1.939   .     S
Br428  C447    1.935   .     S
Br429  C919    1.921   1_554 S
Br430  C454    1.934   .     S
C431   O468    1.266   .     A
C431   O470    1.266   .     A
C431   C437    1.437   .     S
C432   C446    1.396   .     A
C432   C451    1.423   .     A
C433   C445    1.394   .     A
C433   F455    1.360   .     S
C433   C446    1.397   .     A
C434   O469    1.281   .     A
C434   C436    1.455   .     S
C434   O471    1.279   .     A
C435   C450    1.425   .     A
C435   C447    1.427   .     A
C435   C444    1.486   .     S
C436   C331    1.336   1_655 S
C436   F352    1.362   1_655 S
C438   C441    1.454   .     S
C438   Br107   1.932   1_565 S
C438   C121    1.341   1_565 S
C439   C440    1.431   .     S
C440   O472    1.272   .     A
C440   O466    1.271   .     A
C441   O467    1.271   .     A
C441   O473    1.270   .     A
C442   C447    1.400   .     A
C442   Br906   1.921   .     S
C442   C925    1.387   .     S
C443   O462    1.272   .     A
C443   O464    1.282   .     A
C443   C446    1.465   .     S
C444   O465    1.294   .     A
C444   O463    1.280   .     A
C445   Br903   1.928   1_554 S
C445   C929    1.418   1_554 S
C448   H460    1.080   .     S
C448   C919    1.387   1_554 S
C448   C926    1.405   1_554 S
C449   C450    1.415   .     A
C449   C925    1.405   .     S
C449   C928    1.421   .     S
C450   C454    1.416   .     A
C451   C926    1.421   1_554 S
C451   C929    1.428   1_554 S
C452   C453    1.410   .     A
C452   C928    1.428   .     S
C452   C922    1.418   .     S
C453   C454    1.396   .     A
C453   F457    1.356   .     S
F456   C121    1.361   1_565 S
H459   C331    1.086   1_655 S
O461   Zn477   1.930   .     S
O461   Zn474   1.958   .     S
O461   Zn475   1.933   .     S
O461   Zn476   1.938   .     S
O462   Zn475   1.922   .     S
O463   Zn477   1.929   .     S
O464   Zn476   1.920   .     S
O465   Zn474   1.915   .     S
O466   Zn474   1.930   .     S
O467   Zn477   1.937   .     S
O468   Zn475   1.929   .     S
O469   Zn476   1.937   .     S
O470   Zn477   1.931   .     S
O471   Zn474   1.926   .     S
O472   Zn475   1.942   .     S
O473   Zn476   1.933   .     S
Br478  C809    1.932   1_545 S
Br479  C21     1.928   1_556 S
Br480  C485    1.939   .     S
Br481  C500    1.935   .     S
Br483  C507    1.934   .     S
C484   O521    1.266   .     A
C484   O523    1.266   .     A
C484   C490    1.437   .     S
C485   C499    1.396   .     A
C485   C504    1.423   .     A
C486   C498    1.394   .     A
C486   F508    1.360   .     S
C486   C499    1.397   .     A
C487   O522    1.281   .     A
C487   C489    1.455   .     S
C487   O524    1.279   .     A
C488   C503    1.425   .     A
C488   C500    1.427   .     A
C488   C497    1.486   .     S
C489   C543    1.336   .     S
C489   F564    1.362   .     S
C490   C595    1.336   1_455 S
C490   H618    1.086   1_455 S
C491   C494    1.454   .     S
C491   Br637   1.932   .     S
C491   C651    1.341   .     S
C492   C493    1.431   .     S
C492   C809    1.341   1_545 S
C492   F827    1.361   1_545 S
C493   O525    1.272   .     A
C493   O519    1.271   .     A
C494   O520    1.271   .     A
C494   O526    1.270   .     A
C495   C500    1.400   .     A
C495   Br5     1.921   1_556 S
C495   C24     1.387   1_556 S
C496   O515    1.272   .     A
C496   O517    1.282   .     A
C496   C499    1.465   .     S
C497   O518    1.294   .     A
C497   O516    1.280   .     A
C501   H513    1.080   .     S
C502   C503    1.415   .     A
C502   C24     1.405   1_556 S
C502   C27     1.421   1_556 S
C503   C507    1.416   .     A
C505   C506    1.410   .     A
C505   C27     1.428   1_556 S
C505   C21     1.418   1_556 S
C506   C507    1.396   .     A
C506   F510    1.356   .     S
F509   C651    1.361   .     S
F511   C595    1.362   1_455 S
H512   C543    1.086   .     S
O514   Zn530   1.930   .     S
O514   Zn527   1.958   .     S
O514   Zn528   1.933   .     S
O514   Zn529   1.938   .     S
O515   Zn528   1.922   .     S
O516   Zn530   1.929   .     S
O517   Zn529   1.920   .     S
O518   Zn527   1.915   .     S
O519   Zn527   1.930   .     S
O520   Zn530   1.937   .     S
O521   Zn528   1.929   .     S
O522   Zn529   1.937   .     S
O523   Zn530   1.931   .     S
O524   Zn527   1.926   .     S
O525   Zn528   1.942   .     S
O526   Zn529   1.933   .     S
Br531  C862    1.932   1_545 S
Br532  C74     1.928   1_556 S
Br533  C538    1.939   .     S
Br534  C553    1.935   .     S
Br536  C560    1.934   .     S
C537   O574    1.266   .     A
C537   O576    1.266   .     A
C537   C543    1.437   .     S
C538   C552    1.396   .     A
C538   C557    1.423   .     A
C539   C551    1.394   .     A
C539   F561    1.360   .     S
C539   C552    1.397   .     A
C540   O575    1.281   .     A
C540   C542    1.455   .     S
C540   O577    1.279   .     A
C541   C556    1.425   .     A
C541   C553    1.427   .     A
C541   C550    1.486   .     S
C542   C596    1.336   .     S
C542   F617    1.362   .     S
C544   C547    1.454   .     S
C544   Br690   1.932   .     S
C544   C704    1.341   .     S
C545   C546    1.431   .     S
C545   C862    1.341   1_545 S
C545   F880    1.361   1_545 S
C546   O578    1.272   .     A
C546   O572    1.271   .     A
C547   O573    1.271   .     A
C547   O579    1.270   .     A
C548   C553    1.400   .     A
C548   Br58    1.921   1_556 S
C548   C77     1.387   1_556 S
C549   O568    1.272   .     A
C549   O570    1.282   .     A
C549   C552    1.465   .     S
C550   O571    1.294   .     A
C550   O569    1.280   .     A
C554   H566    1.080   .     S
C555   C556    1.415   .     A
C555   C77     1.405   1_556 S
C555   C80     1.421   1_556 S
C556   C560    1.416   .     A
C558   C559    1.410   .     A
C558   C80     1.428   1_556 S
C558   C74     1.418   1_556 S
C559   C560    1.396   .     A
C559   F563    1.356   .     S
F562   C704    1.361   .     S
H565   C596    1.086   .     S
O567   Zn583   1.930   .     S
O567   Zn580   1.958   .     S
O567   Zn581   1.933   .     S
O567   Zn582   1.938   .     S
O568   Zn581   1.922   .     S
O569   Zn583   1.929   .     S
O570   Zn582   1.920   .     S
O571   Zn580   1.915   .     S
O572   Zn580   1.930   .     S
O573   Zn583   1.937   .     S
O574   Zn581   1.929   .     S
O575   Zn582   1.937   .     S
O576   Zn583   1.931   .     S
O577   Zn580   1.926   .     S
O578   Zn581   1.942   .     S
O579   Zn582   1.933   .     S
Br584  C915    1.932   1_545 S
Br585  C127    1.928   1_556 S
Br586  C591    1.939   .     S
Br587  C606    1.935   .     S
Br589  C613    1.934   .     S
C590   O627    1.266   .     A
C590   O629    1.266   .     A
C590   C596    1.437   .     S
C591   C605    1.396   .     A
C591   C610    1.423   .     A
C592   C604    1.394   .     A
C592   F614    1.360   .     S
C592   C605    1.397   .     A
C593   O628    1.281   .     A
C593   C595    1.455   .     S
C593   O630    1.279   .     A
C594   C609    1.425   .     A
C594   C606    1.427   .     A
C594   C603    1.486   .     S
C595   C490    1.336   1_655 S
C595   F511    1.362   1_655 S
C597   C600    1.454   .     S
C597   Br743   1.932   .     S
C597   C757    1.341   .     S
C598   C599    1.431   .     S
C598   C915    1.341   1_545 S
C598   F933    1.361   1_545 S
C599   O631    1.272   .     A
C599   O625    1.271   .     A
C600   O626    1.271   .     A
C600   O632    1.270   .     A
C601   C606    1.400   .     A
C601   Br111   1.921   1_556 S
C601   C130    1.387   1_556 S
C602   O621    1.272   .     A
C602   O623    1.282   .     A
C602   C605    1.465   .     S
C603   O624    1.294   .     A
C603   O622    1.280   .     A
C607   H619    1.080   .     S
C608   C609    1.415   .     A
C608   C130    1.405   1_556 S
C608   C133    1.421   1_556 S
C609   C613    1.416   .     A
C611   C612    1.410   .     A
C611   C133    1.428   1_556 S
C611   C127    1.418   1_556 S
C612   C613    1.396   .     A
C612   F616    1.356   .     S
F615   C757    1.361   .     S
H618   C490    1.086   1_655 S
O620   Zn636   1.930   .     S
O620   Zn633   1.958   .     S
O620   Zn634   1.933   .     S
O620   Zn635   1.938   .     S
O621   Zn634   1.922   .     S
O622   Zn636   1.929   .     S
O623   Zn635   1.920   .     S
O624   Zn633   1.915   .     S
O625   Zn633   1.930   .     S
O626   Zn636   1.937   .     S
O627   Zn634   1.929   .     S
O628   Zn635   1.937   .     S
O629   Zn636   1.931   .     S
O630   Zn633   1.926   .     S
O631   Zn634   1.942   .     S
O632   Zn635   1.933   .     S
Br638  C180    1.928   1_556 S
Br639  C644    1.939   .     S
Br640  C659    1.935   .     S
Br642  C666    1.934   .     S
C643   O680    1.266   .     A
C643   O682    1.266   .     A
C643   C649    1.437   .     S
C644   C658    1.396   .     A
C644   C663    1.423   .     A
C645   C657    1.394   .     A
C645   F667    1.360   .     S
C645   C658    1.397   .     A
C646   O681    1.281   .     A
C646   C648    1.455   .     S
C646   O683    1.279   .     A
C647   C662    1.425   .     A
C647   C659    1.427   .     A
C647   C656    1.486   .     S
C648   C702    1.336   .     S
C648   F723    1.362   .     S
C649   C754    1.336   1_455 S
C649   H777    1.086   1_455 S
C650   C653    1.454   .     S
C650   Br796   1.932   .     S
C650   C810    1.341   .     S
C651   C652    1.431   .     S
C652   O684    1.272   .     A
C652   O678    1.271   .     A
C653   O679    1.271   .     A
C653   O685    1.270   .     A
C654   C659    1.400   .     A
C654   Br164   1.921   1_556 S
C654   C183    1.387   1_556 S
C655   O674    1.272   .     A
C655   O676    1.282   .     A
C655   C658    1.465   .     S
C656   O677    1.294   .     A
C656   O675    1.280   .     A
C660   H672    1.080   .     S
C661   C662    1.415   .     A
C661   C183    1.405   1_556 S
C661   C186    1.421   1_556 S
C662   C666    1.416   .     A
C664   C665    1.410   .     A
C664   C186    1.428   1_556 S
C664   C180    1.418   1_556 S
C665   C666    1.396   .     A
C665   F669    1.356   .     S
F668   C810    1.361   .     S
F670   C754    1.362   1_455 S
H671   C702    1.086   .     S
O673   Zn689   1.930   .     S
O673   Zn686   1.958   .     S
O673   Zn687   1.933   .     S
O673   Zn688   1.938   .     S
O674   Zn687   1.922   .     S
O675   Zn689   1.929   .     S
O676   Zn688   1.920   .     S
O677   Zn686   1.915   .     S
O678   Zn686   1.930   .     S
O679   Zn689   1.937   .     S
O680   Zn687   1.929   .     S
O681   Zn688   1.937   .     S
O682   Zn689   1.931   .     S
O683   Zn686   1.926   .     S
O684   Zn687   1.942   .     S
O685   Zn688   1.933   .     S
Br691  C233    1.928   1_556 S
Br692  C697    1.939   .     S
Br693  C712    1.935   .     S
Br695  C719    1.934   .     S
C696   O733    1.266   .     A
C696   O735    1.266   .     A
C696   C702    1.437   .     S
C697   C711    1.396   .     A
C697   C716    1.423   .     A
C698   C710    1.394   .     A
C698   F720    1.360   .     S
C698   C711    1.397   .     A
C699   O734    1.281   .     A
C699   C701    1.455   .     S
C699   O736    1.279   .     A
C700   C715    1.425   .     A
C700   C712    1.427   .     A
C700   C709    1.486   .     S
C701   C755    1.336   .     S
C701   F776    1.362   .     S
C703   C706    1.454   .     S
C703   Br849   1.932   .     S
C703   C863    1.341   .     S
C704   C705    1.431   .     S
C705   O737    1.272   .     A
C705   O731    1.271   .     A
C706   O732    1.271   .     A
C706   O738    1.270   .     A
C707   C712    1.400   .     A
C707   Br217   1.921   1_556 S
C707   C236    1.387   1_556 S
C708   O727    1.272   .     A
C708   O729    1.282   .     A
C708   C711    1.465   .     S
C709   O730    1.294   .     A
C709   O728    1.280   .     A
C713   H725    1.080   .     S
C714   C715    1.415   .     A
C714   C236    1.405   1_556 S
C714   C239    1.421   1_556 S
C715   C719    1.416   .     A
C717   C718    1.410   .     A
C717   C239    1.428   1_556 S
C717   C233    1.418   1_556 S
C718   C719    1.396   .     A
C718   F722    1.356   .     S
F721   C863    1.361   .     S
H724   C755    1.086   .     S
O726   Zn742   1.930   .     S
O726   Zn739   1.958   .     S
O726   Zn740   1.933   .     S
O726   Zn741   1.938   .     S
O727   Zn740   1.922   .     S
O728   Zn742   1.929   .     S
O729   Zn741   1.920   .     S
O730   Zn739   1.915   .     S
O731   Zn739   1.930   .     S
O732   Zn742   1.937   .     S
O733   Zn740   1.929   .     S
O734   Zn741   1.937   .     S
O735   Zn742   1.931   .     S
O736   Zn739   1.926   .     S
O737   Zn740   1.942   .     S
O738   Zn741   1.933   .     S
Br744  C286    1.928   1_556 S
Br745  C750    1.939   .     S
Br746  C765    1.935   .     S
Br748  C772    1.934   .     S
C749   O786    1.266   .     A
C749   O788    1.266   .     A
C749   C755    1.437   .     S
C750   C764    1.396   .     A
C750   C769    1.423   .     A
C751   C763    1.394   .     A
C751   F773    1.360   .     S
C751   C764    1.397   .     A
C752   O787    1.281   .     A
C752   C754    1.455   .     S
C752   O789    1.279   .     A
C753   C768    1.425   .     A
C753   C765    1.427   .     A
C753   C762    1.486   .     S
C754   C649    1.336   1_655 S
C754   F670    1.362   1_655 S
C756   C759    1.454   .     S
C756   Br902   1.932   .     S
C756   C916    1.341   .     S
C757   C758    1.431   .     S
C758   O790    1.272   .     A
C758   O784    1.271   .     A
C759   O785    1.271   .     A
C759   O791    1.270   .     A
C760   C765    1.400   .     A
C760   Br270   1.921   1_556 S
C760   C289    1.387   1_556 S
C761   O780    1.272   .     A
C761   O782    1.282   .     A
C761   C764    1.465   .     S
C762   O783    1.294   .     A
C762   O781    1.280   .     A
C766   H778    1.080   .     S
C767   C768    1.415   .     A
C767   C289    1.405   1_556 S
C767   C292    1.421   1_556 S
C768   C772    1.416   .     A
C770   C771    1.410   .     A
C770   C292    1.428   1_556 S
C770   C286    1.418   1_556 S
C771   C772    1.396   .     A
C771   F775    1.356   .     S
F774   C916    1.361   .     S
H777   C649    1.086   1_655 S
O779   Zn795   1.930   .     S
O779   Zn792   1.958   .     S
O779   Zn793   1.933   .     S
O779   Zn794   1.938   .     S
O780   Zn793   1.922   .     S
O781   Zn795   1.929   .     S
O782   Zn794   1.920   .     S
O783   Zn792   1.915   .     S
O784   Zn792   1.930   .     S
O785   Zn795   1.937   .     S
O786   Zn793   1.929   .     S
O787   Zn794   1.937   .     S
O788   Zn795   1.931   .     S
O789   Zn792   1.926   .     S
O790   Zn793   1.942   .     S
O791   Zn794   1.933   .     S
Br797  C339    1.928   1_556 S
Br798  C803    1.939   .     S
Br799  C818    1.935   .     S
Br801  C825    1.934   .     S
C802   O839    1.266   .     A
C802   O841    1.266   .     A
C802   C808    1.437   .     S
C803   C817    1.396   .     A
C803   C822    1.423   .     A
C804   C816    1.394   .     A
C804   F826    1.360   .     S
C804   C817    1.397   .     A
C805   O840    1.281   .     A
C805   C807    1.455   .     S
C805   O842    1.279   .     A
C806   C821    1.425   .     A
C806   C818    1.427   .     A
C806   C815    1.486   .     S
C807   C861    1.336   .     S
C807   F882    1.362   .     S
C808   C913    1.336   1_455 S
C808   H936    1.086   1_455 S
C809   C812    1.454   .     S
C809   Br478   1.932   1_565 S
C809   C492    1.341   1_565 S
C810   C811    1.431   .     S
C811   O843    1.272   .     A
C811   O837    1.271   .     A
C812   O838    1.271   .     A
C812   O844    1.270   .     A
C813   C818    1.400   .     A
C813   Br323   1.921   1_556 S
C813   C342    1.387   1_556 S
C814   O833    1.272   .     A
C814   O835    1.282   .     A
C814   C817    1.465   .     S
C815   O836    1.294   .     A
C815   O834    1.280   .     A
C819   H831    1.080   .     S
C820   C821    1.415   .     A
C820   C342    1.405   1_556 S
C820   C345    1.421   1_556 S
C821   C825    1.416   .     A
C823   C824    1.410   .     A
C823   C345    1.428   1_556 S
C823   C339    1.418   1_556 S
C824   C825    1.396   .     A
C824   F828    1.356   .     S
F827   C492    1.361   1_565 S
F829   C913    1.362   1_455 S
H830   C861    1.086   .     S
O832   Zn848   1.930   .     S
O832   Zn845   1.958   .     S
O832   Zn846   1.933   .     S
O832   Zn847   1.938   .     S
O833   Zn846   1.922   .     S
O834   Zn848   1.929   .     S
O835   Zn847   1.920   .     S
O836   Zn845   1.915   .     S
O837   Zn845   1.930   .     S
O838   Zn848   1.937   .     S
O839   Zn846   1.929   .     S
O840   Zn847   1.937   .     S
O841   Zn848   1.931   .     S
O842   Zn845   1.926   .     S
O843   Zn846   1.942   .     S
O844   Zn847   1.933   .     S
Br850  C392    1.928   1_556 S
Br851  C856    1.939   .     S
Br852  C871    1.935   .     S
Br854  C878    1.934   .     S
C855   O892    1.266   .     A
C855   O894    1.266   .     A
C855   C861    1.437   .     S
C856   C870    1.396   .     A
C856   C875    1.423   .     A
C857   C869    1.394   .     A
C857   F879    1.360   .     S
C857   C870    1.397   .     A
C858   O893    1.281   .     A
C858   C860    1.455   .     S
C858   O895    1.279   .     A
C859   C874    1.425   .     A
C859   C871    1.427   .     A
C859   C868    1.486   .     S
C860   C914    1.336   .     S
C860   F935    1.362   .     S
C862   C865    1.454   .     S
C862   Br531   1.932   1_565 S
C862   C545    1.341   1_565 S
C863   C864    1.431   .     S
C864   O896    1.272   .     A
C864   O890    1.271   .     A
C865   O891    1.271   .     A
C865   O897    1.270   .     A
C866   C871    1.400   .     A
C866   Br376   1.921   1_556 S
C866   C395    1.387   1_556 S
C867   O886    1.272   .     A
C867   O888    1.282   .     A
C867   C870    1.465   .     S
C868   O889    1.294   .     A
C868   O887    1.280   .     A
C872   H884    1.080   .     S
C873   C874    1.415   .     A
C873   C395    1.405   1_556 S
C873   C398    1.421   1_556 S
C874   C878    1.416   .     A
C876   C877    1.410   .     A
C876   C398    1.428   1_556 S
C876   C392    1.418   1_556 S
C877   C878    1.396   .     A
C877   F881    1.356   .     S
F880   C545    1.361   1_565 S
H883   C914    1.086   .     S
O885   Zn901   1.930   .     S
O885   Zn898   1.958   .     S
O885   Zn899   1.933   .     S
O885   Zn900   1.938   .     S
O886   Zn899   1.922   .     S
O887   Zn901   1.929   .     S
O888   Zn900   1.920   .     S
O889   Zn898   1.915   .     S
O890   Zn898   1.930   .     S
O891   Zn901   1.937   .     S
O892   Zn899   1.929   .     S
O893   Zn900   1.937   .     S
O894   Zn901   1.931   .     S
O895   Zn898   1.926   .     S
O896   Zn899   1.942   .     S
O897   Zn900   1.933   .     S
Br903  C445    1.928   1_556 S
Br904  C909    1.939   .     S
Br905  C924    1.935   .     S
Br907  C931    1.934   .     S
C908   O945    1.266   .     A
C908   O947    1.266   .     A
C908   C914    1.437   .     S
C909   C923    1.396   .     A
C909   C928    1.423   .     A
C910   C922    1.394   .     A
C910   F932    1.360   .     S
C910   C923    1.397   .     A
C911   O946    1.281   .     A
C911   C913    1.455   .     S
C911   O948    1.279   .     A
C912   C927    1.425   .     A
C912   C924    1.427   .     A
C912   C921    1.486   .     S
C913   C808    1.336   1_655 S
C913   F829    1.362   1_655 S
C915   C918    1.454   .     S
C915   Br584   1.932   1_565 S
C915   C598    1.341   1_565 S
C916   C917    1.431   .     S
C917   O949    1.272   .     A
C917   O943    1.271   .     A
C918   O944    1.271   .     A
C918   O950    1.270   .     A
C919   C924    1.400   .     A
C919   Br429   1.921   1_556 S
C919   C448    1.387   1_556 S
C920   O939    1.272   .     A
C920   O941    1.282   .     A
C920   C923    1.465   .     S
C921   O942    1.294   .     A
C921   O940    1.280   .     A
C925   H937    1.080   .     S
C926   C927    1.415   .     A
C926   C448    1.405   1_556 S
C926   C451    1.421   1_556 S
C927   C931    1.416   .     A
C929   C930    1.410   .     A
C929   C451    1.428   1_556 S
C929   C445    1.418   1_556 S
C930   C931    1.396   .     A
C930   F934    1.356   .     S
F933   C598    1.361   1_565 S
H936   C808    1.086   1_655 S
O938   Zn954   1.930   .     S
O938   Zn951   1.958   .     S
O938   Zn952   1.933   .     S
O938   Zn953   1.938   .     S
O939   Zn952   1.922   .     S
O940   Zn954   1.929   .     S
O941   Zn953   1.920   .     S
O942   Zn951   1.915   .     S
O943   Zn951   1.930   .     S
O944   Zn954   1.937   .     S
O945   Zn952   1.929   .     S
O946   Zn953   1.937   .     S
O947   Zn954   1.931   .     S
O948   Zn951   1.926   .     S
O949   Zn952   1.942   .     S
O950   Zn953   1.933   .     S
