data_str_m2_o1_o17_pcu_sym.231
_audit_creation_date              2020-01-03
_audit_creation_method            'Materials Studio'
_symmetry_space_group_name_H-M    'P1'
_symmetry_Int_Tables_number       1
_symmetry_cell_setting            triclinic
loop_
_symmetry_equiv_pos_as_xyz
  x,y,z
_cell_length_a                    32.4850
_cell_length_b                    28.7505
_cell_length_c                    30.1271
_cell_angle_alpha                 89.7014
_cell_angle_beta                  91.6484
_cell_angle_gamma                 89.9401
loop_
_atom_site_label
_atom_site_type_symbol
_atom_site_fract_x
_atom_site_fract_y
_atom_site_fract_z
_atom_site_U_iso_or_equiv
_atom_site_adp_type
_atom_site_occupancy
C1     C     0.08742   0.16668   0.24995   0.00000  Uiso   1.00
C2     C     0.24591   0.16665   0.25003   0.00000  Uiso   1.00
C3     C     0.13695   0.24432   0.02222   0.00000  Uiso   1.00
C4     C     0.20017   0.09082   0.47783   0.00000  Uiso   1.00
C5     C     0.02131   0.12443   0.24904   0.00000  Uiso   1.00
C6     C     0.31202   0.20891   0.25087   0.00000  Uiso   1.00
C7     C     0.31206   0.12441   0.24901   0.00000  Uiso   1.00
C8     C     0.02127   0.20892   0.25089   0.00000  Uiso   1.00
C9     C     0.29056   0.16665   0.24998   0.00000  Uiso   1.00
C10    C     0.04277   0.16668   0.24995   0.00000  Uiso   1.00
C11    C     0.14037   0.02499   0.22228   0.00000  Uiso   1.00
C12    C     0.19293   0.30834   0.27776   0.00000  Uiso   1.00
C13    C     0.19308   0.02460   0.27759   0.00000  Uiso   1.00
C14    C     0.14026   0.30873   0.22240   0.00000  Uiso   1.00
C15    C     0.16679   0.16678   0.16439   0.00000  Uiso   1.00
C16    C     0.16663   0.16657   0.33560   0.00000  Uiso   1.00
C17    C     0.18222   0.12824   0.40785   0.00000  Uiso   1.00
C18    C     0.15324   0.20598   0.09219   0.00000  Uiso   1.00
C19    C     0.16670   0.16656   0.38399   0.00000  Uiso   1.00
C20    C     0.16753   0.16704   0.11602   0.00000  Uiso   1.00
C21    C     0.15160   0.20527   0.40634   0.00000  Uiso   1.00
C22    C     0.18275   0.12838   0.09366   0.00000  Uiso   1.00
C23    C     0.15205   0.20628   0.45277   0.00000  Uiso   1.00
C24    C     0.18434   0.12843   0.04728   0.00000  Uiso   1.00
C25    C     0.16816   0.16752   0.47674   0.00000  Uiso   1.00
C26    C     0.16859   0.16738   0.02332   0.00000  Uiso   1.00
C27    C     0.18351   0.12866   0.45408   0.00000  Uiso   1.00
C28    C     0.15296   0.20611   0.04597   0.00000  Uiso   1.00
C29    C     0.13637   0.24482   0.47577   0.00000  Uiso   1.00
C30    C     0.20091   0.09035   0.02429   0.00000  Uiso   1.00
Cu31   Cu    0.16667   0.21355   0.25000   0.00000  Uiso   1.00
Cu32   Cu    0.16667   0.11978   0.25000   0.00000  Uiso   1.00
H33    H     0.19373   0.09826   0.39047   0.00000  Uiso   1.00
H34    H     0.14162   0.23591   0.10956   0.00000  Uiso   1.00
H35    H     0.13902   0.23428   0.38726   0.00000  Uiso   1.00
H36    H     0.19374   0.09855   0.11266   0.00000  Uiso   1.00
H37    H     0.12487   0.27398   0.03976   0.00000  Uiso   1.00
H38    H     0.21308   0.06168   0.46024   0.00000  Uiso   1.00
H39    H     0.03731   0.09138   0.24833   0.00000  Uiso   1.00
H40    H     0.29602   0.24195   0.25158   0.00000  Uiso   1.00
H41    H     0.29608   0.09137   0.24820   0.00000  Uiso   1.00
H42    H     0.03725   0.24197   0.25169   0.00000  Uiso   1.00
N43    N     0.16667   0.28402   0.25000   0.00000  Uiso   1.00
N44    N     0.16667   0.04931   0.25000   0.00000  Uiso   1.00
O45    O     0.10655   0.20625   0.24999   0.00000  Uiso   1.00
O46    O     0.22679   0.12709   0.25000   0.00000  Uiso   1.00
O47    O     0.22679   0.20625   0.25000   0.00000  Uiso   1.00
O48    O     0.10655   0.12709   0.24999   0.00000  Uiso   1.00
O49    O     0.16666   0.20627   0.18513   0.00000  Uiso   1.00
O50    O     0.16668   0.12707   0.31487   0.00000  Uiso   1.00
O51    O     0.16668   0.20627   0.31487   0.00000  Uiso   1.00
O52    O     0.16666   0.12707   0.18513   0.00000  Uiso   1.00
N53    N     0.11923   0.28378   0.45245   0.00000  Uiso   1.00
H54    H     0.09419   0.29814   0.46766   0.00000  Uiso   1.00
C55    C     0.14917   0.31871   0.44111   0.00000  Uiso   1.00
H56    H     0.16277   0.00075   0.47187   0.00000  Uiso   1.00
H57    H     0.13390   0.01338   0.42113   0.00000  Uiso   1.00
H58    H     0.17402   0.30338   0.42122   0.00000  Uiso   1.00
N59    N     0.21824   0.05143   0.04756   0.00000  Uiso   1.00
H60    H     0.21385   0.02022   0.03138   0.00000  Uiso   1.00
C61    C     0.26074   0.05777   0.06191   0.00000  Uiso   1.00
H62    H     0.28062   0.06114   0.03265   0.00000  Uiso   1.00
H63    H     0.27112   0.02717   0.08191   0.00000  Uiso   1.00
H64    H     0.26418   0.08928   0.08287   0.00000  Uiso   1.00
C65    C     0.11260   0.04985   0.19228   0.00000  Uiso   1.00
N66    N     0.09024   0.06939   0.16805   0.00000  Uiso   1.00
C67    C     0.22061   0.28348   0.30786   0.00000  Uiso   1.00
N68    N     0.24289   0.26394   0.33218   0.00000  Uiso   1.00
C69    C     0.22197   0.04897   0.30638   0.00000  Uiso   1.00
N70    N     0.24548   0.06800   0.32945   0.00000  Uiso   1.00
C71    C     0.11147   0.28434   0.19351   0.00000  Uiso   1.00
N72    N     0.08808   0.26526   0.17033   0.00000  Uiso   1.00
C73    C     0.42075   0.16668   0.24995   0.00000  Uiso   1.00
C74    C     0.57925   0.16665   0.25003   0.00000  Uiso   1.00
C75    C     0.47028   0.24432   0.02222   0.00000  Uiso   1.00
C76    C     0.53350   0.09082   0.47783   0.00000  Uiso   1.00
C77    C     0.35464   0.12443   0.24904   0.00000  Uiso   1.00
C78    C     0.64535   0.20891   0.25087   0.00000  Uiso   1.00
C79    C     0.64539   0.12441   0.24901   0.00000  Uiso   1.00
C80    C     0.35461   0.20892   0.25089   0.00000  Uiso   1.00
C81    C     0.62389   0.16665   0.24998   0.00000  Uiso   1.00
C82    C     0.37610   0.16668   0.24995   0.00000  Uiso   1.00
C83    C     0.47370   0.02499   0.22228   0.00000  Uiso   1.00
C84    C     0.52626   0.30834   0.27776   0.00000  Uiso   1.00
C85    C     0.52642   0.02460   0.27759   0.00000  Uiso   1.00
C86    C     0.47359   0.30873   0.22240   0.00000  Uiso   1.00
C87    C     0.50013   0.16678   0.16439   0.00000  Uiso   1.00
C88    C     0.49996   0.16657   0.33560   0.00000  Uiso   1.00
C89    C     0.51556   0.12824   0.40785   0.00000  Uiso   1.00
C90    C     0.48657   0.20598   0.09219   0.00000  Uiso   1.00
C91    C     0.50003   0.16656   0.38399   0.00000  Uiso   1.00
C92    C     0.50086   0.16704   0.11602   0.00000  Uiso   1.00
C93    C     0.48493   0.20527   0.40634   0.00000  Uiso   1.00
C94    C     0.51609   0.12838   0.09366   0.00000  Uiso   1.00
C95    C     0.48538   0.20628   0.45277   0.00000  Uiso   1.00
C96    C     0.51768   0.12843   0.04728   0.00000  Uiso   1.00
C97    C     0.50149   0.16752   0.47674   0.00000  Uiso   1.00
C98    C     0.50192   0.16738   0.02332   0.00000  Uiso   1.00
C99    C     0.51685   0.12866   0.45408   0.00000  Uiso   1.00
C100   C     0.48629   0.20611   0.04597   0.00000  Uiso   1.00
C101   C     0.46970   0.24482   0.47577   0.00000  Uiso   1.00
C102   C     0.53424   0.09035   0.02429   0.00000  Uiso   1.00
Cu103  Cu    0.50000   0.21355   0.25000   0.00000  Uiso   1.00
Cu104  Cu    0.50000   0.11978   0.25000   0.00000  Uiso   1.00
H105   H     0.52706   0.09826   0.39047   0.00000  Uiso   1.00
H106   H     0.47495   0.23591   0.10956   0.00000  Uiso   1.00
H107   H     0.47235   0.23428   0.38726   0.00000  Uiso   1.00
H108   H     0.52708   0.09855   0.11266   0.00000  Uiso   1.00
H109   H     0.45820   0.27398   0.03976   0.00000  Uiso   1.00
H110   H     0.54641   0.06168   0.46024   0.00000  Uiso   1.00
H111   H     0.37064   0.09138   0.24833   0.00000  Uiso   1.00
H112   H     0.62935   0.24195   0.25158   0.00000  Uiso   1.00
H113   H     0.62941   0.09137   0.24820   0.00000  Uiso   1.00
H114   H     0.37058   0.24197   0.25169   0.00000  Uiso   1.00
N115   N     0.50000   0.28402   0.25000   0.00000  Uiso   1.00
N116   N     0.50000   0.04931   0.25000   0.00000  Uiso   1.00
O117   O     0.43988   0.20625   0.24999   0.00000  Uiso   1.00
O118   O     0.56012   0.12709   0.25000   0.00000  Uiso   1.00
O119   O     0.56012   0.20625   0.25000   0.00000  Uiso   1.00
O120   O     0.43988   0.12709   0.24999   0.00000  Uiso   1.00
O121   O     0.49999   0.20627   0.18513   0.00000  Uiso   1.00
O122   O     0.50001   0.12707   0.31487   0.00000  Uiso   1.00
O123   O     0.50001   0.20627   0.31487   0.00000  Uiso   1.00
O124   O     0.49999   0.12707   0.18513   0.00000  Uiso   1.00
N125   N     0.45256   0.28378   0.45245   0.00000  Uiso   1.00
H126   H     0.42752   0.29814   0.46766   0.00000  Uiso   1.00
C127   C     0.48250   0.31871   0.44111   0.00000  Uiso   1.00
H128   H     0.49610   0.00075   0.47187   0.00000  Uiso   1.00
H129   H     0.46724   0.01338   0.42113   0.00000  Uiso   1.00
H130   H     0.50735   0.30338   0.42122   0.00000  Uiso   1.00
N131   N     0.55157   0.05143   0.04756   0.00000  Uiso   1.00
H132   H     0.54718   0.02022   0.03138   0.00000  Uiso   1.00
C133   C     0.59407   0.05777   0.06191   0.00000  Uiso   1.00
H134   H     0.61395   0.06114   0.03265   0.00000  Uiso   1.00
H135   H     0.60446   0.02717   0.08191   0.00000  Uiso   1.00
H136   H     0.59751   0.08928   0.08287   0.00000  Uiso   1.00
C137   C     0.44593   0.04985   0.19228   0.00000  Uiso   1.00
N138   N     0.42358   0.06939   0.16805   0.00000  Uiso   1.00
C139   C     0.55394   0.28348   0.30786   0.00000  Uiso   1.00
N140   N     0.57622   0.26394   0.33218   0.00000  Uiso   1.00
C141   C     0.55531   0.04897   0.30638   0.00000  Uiso   1.00
N142   N     0.57882   0.06800   0.32945   0.00000  Uiso   1.00
C143   C     0.44480   0.28434   0.19351   0.00000  Uiso   1.00
N144   N     0.42141   0.26526   0.17033   0.00000  Uiso   1.00
C145   C     0.75409   0.16668   0.24995   0.00000  Uiso   1.00
C146   C     0.91258   0.16665   0.25003   0.00000  Uiso   1.00
C147   C     0.80361   0.24432   0.02222   0.00000  Uiso   1.00
C148   C     0.86684   0.09082   0.47783   0.00000  Uiso   1.00
C149   C     0.68797   0.12443   0.24904   0.00000  Uiso   1.00
C150   C     0.97869   0.20891   0.25087   0.00000  Uiso   1.00
C151   C     0.97872   0.12441   0.24901   0.00000  Uiso   1.00
C152   C     0.68794   0.20892   0.25089   0.00000  Uiso   1.00
C153   C     0.95723   0.16665   0.24998   0.00000  Uiso   1.00
C154   C     0.70944   0.16668   0.24995   0.00000  Uiso   1.00
C155   C     0.80704   0.02499   0.22228   0.00000  Uiso   1.00
C156   C     0.85960   0.30834   0.27776   0.00000  Uiso   1.00
C157   C     0.85975   0.02460   0.27759   0.00000  Uiso   1.00
C158   C     0.80692   0.30873   0.22240   0.00000  Uiso   1.00
C159   C     0.83346   0.16678   0.16439   0.00000  Uiso   1.00
C160   C     0.83330   0.16657   0.33560   0.00000  Uiso   1.00
C161   C     0.84889   0.12824   0.40785   0.00000  Uiso   1.00
C162   C     0.81990   0.20598   0.09219   0.00000  Uiso   1.00
C163   C     0.83336   0.16656   0.38399   0.00000  Uiso   1.00
C164   C     0.83420   0.16704   0.11602   0.00000  Uiso   1.00
C165   C     0.81826   0.20527   0.40634   0.00000  Uiso   1.00
C166   C     0.84942   0.12838   0.09366   0.00000  Uiso   1.00
C167   C     0.81872   0.20628   0.45277   0.00000  Uiso   1.00
C168   C     0.85101   0.12843   0.04728   0.00000  Uiso   1.00
C169   C     0.83483   0.16752   0.47674   0.00000  Uiso   1.00
C170   C     0.83526   0.16738   0.02332   0.00000  Uiso   1.00
C171   C     0.85018   0.12866   0.45408   0.00000  Uiso   1.00
C172   C     0.81962   0.20611   0.04597   0.00000  Uiso   1.00
C173   C     0.80303   0.24482   0.47577   0.00000  Uiso   1.00
C174   C     0.86757   0.09035   0.02429   0.00000  Uiso   1.00
Cu175  Cu    0.83333   0.21355   0.25000   0.00000  Uiso   1.00
Cu176  Cu    0.83333   0.11978   0.25000   0.00000  Uiso   1.00
H177   H     0.86039   0.09826   0.39047   0.00000  Uiso   1.00
H178   H     0.80828   0.23591   0.10956   0.00000  Uiso   1.00
H179   H     0.80568   0.23428   0.38726   0.00000  Uiso   1.00
H180   H     0.86041   0.09855   0.11266   0.00000  Uiso   1.00
H181   H     0.79154   0.27398   0.03976   0.00000  Uiso   1.00
H182   H     0.87974   0.06168   0.46024   0.00000  Uiso   1.00
H183   H     0.70398   0.09138   0.24833   0.00000  Uiso   1.00
H184   H     0.96269   0.24195   0.25158   0.00000  Uiso   1.00
H185   H     0.96275   0.09137   0.24820   0.00000  Uiso   1.00
H186   H     0.70392   0.24197   0.25169   0.00000  Uiso   1.00
N187   N     0.83333   0.28402   0.25000   0.00000  Uiso   1.00
N188   N     0.83333   0.04931   0.25000   0.00000  Uiso   1.00
O189   O     0.77321   0.20625   0.24999   0.00000  Uiso   1.00
O190   O     0.89345   0.12709   0.25000   0.00000  Uiso   1.00
O191   O     0.89345   0.20625   0.25000   0.00000  Uiso   1.00
O192   O     0.77321   0.12709   0.24999   0.00000  Uiso   1.00
O193   O     0.83332   0.20627   0.18513   0.00000  Uiso   1.00
O194   O     0.83334   0.12707   0.31487   0.00000  Uiso   1.00
O195   O     0.83334   0.20627   0.31487   0.00000  Uiso   1.00
O196   O     0.83332   0.12707   0.18513   0.00000  Uiso   1.00
N197   N     0.78589   0.28378   0.45245   0.00000  Uiso   1.00
H198   H     0.76085   0.29814   0.46766   0.00000  Uiso   1.00
C199   C     0.81584   0.31871   0.44111   0.00000  Uiso   1.00
H200   H     0.82944   0.00075   0.47187   0.00000  Uiso   1.00
H201   H     0.80057   0.01338   0.42113   0.00000  Uiso   1.00
H202   H     0.84068   0.30338   0.42122   0.00000  Uiso   1.00
N203   N     0.88491   0.05143   0.04756   0.00000  Uiso   1.00
H204   H     0.88051   0.02022   0.03138   0.00000  Uiso   1.00
C205   C     0.92740   0.05777   0.06191   0.00000  Uiso   1.00
H206   H     0.94729   0.06114   0.03265   0.00000  Uiso   1.00
H207   H     0.93779   0.02717   0.08191   0.00000  Uiso   1.00
H208   H     0.93084   0.08928   0.08287   0.00000  Uiso   1.00
C209   C     0.77927   0.04985   0.19228   0.00000  Uiso   1.00
N210   N     0.75691   0.06939   0.16805   0.00000  Uiso   1.00
C211   C     0.88728   0.28348   0.30786   0.00000  Uiso   1.00
N212   N     0.90955   0.26394   0.33218   0.00000  Uiso   1.00
C213   C     0.88864   0.04897   0.30638   0.00000  Uiso   1.00
N214   N     0.91215   0.06800   0.32945   0.00000  Uiso   1.00
C215   C     0.77814   0.28434   0.19351   0.00000  Uiso   1.00
N216   N     0.75474   0.26526   0.17033   0.00000  Uiso   1.00
C217   C     0.08742   0.50001   0.24995   0.00000  Uiso   1.00
C218   C     0.24591   0.49999   0.25003   0.00000  Uiso   1.00
C219   C     0.13695   0.57766   0.02222   0.00000  Uiso   1.00
C220   C     0.20017   0.42416   0.47783   0.00000  Uiso   1.00
C221   C     0.02131   0.45776   0.24904   0.00000  Uiso   1.00
C222   C     0.31202   0.54224   0.25087   0.00000  Uiso   1.00
C223   C     0.31206   0.45775   0.24901   0.00000  Uiso   1.00
C224   C     0.02127   0.54225   0.25089   0.00000  Uiso   1.00
C225   C     0.29056   0.49998   0.24998   0.00000  Uiso   1.00
C226   C     0.04277   0.50002   0.24995   0.00000  Uiso   1.00
C227   C     0.14037   0.35833   0.22228   0.00000  Uiso   1.00
C228   C     0.19293   0.64167   0.27776   0.00000  Uiso   1.00
C229   C     0.19308   0.35793   0.27759   0.00000  Uiso   1.00
C230   C     0.14026   0.64206   0.22240   0.00000  Uiso   1.00
C231   C     0.16679   0.50011   0.16439   0.00000  Uiso   1.00
C232   C     0.16663   0.49991   0.33560   0.00000  Uiso   1.00
C233   C     0.18222   0.46158   0.40785   0.00000  Uiso   1.00
C234   C     0.15324   0.53931   0.09219   0.00000  Uiso   1.00
C235   C     0.16670   0.49989   0.38399   0.00000  Uiso   1.00
C236   C     0.16753   0.50037   0.11602   0.00000  Uiso   1.00
C237   C     0.15160   0.53861   0.40634   0.00000  Uiso   1.00
C238   C     0.18275   0.46171   0.09366   0.00000  Uiso   1.00
C239   C     0.15205   0.53962   0.45277   0.00000  Uiso   1.00
C240   C     0.18434   0.46176   0.04728   0.00000  Uiso   1.00
C241   C     0.16816   0.50086   0.47674   0.00000  Uiso   1.00
C242   C     0.16859   0.50072   0.02332   0.00000  Uiso   1.00
C243   C     0.18351   0.46199   0.45408   0.00000  Uiso   1.00
C244   C     0.15296   0.53945   0.04597   0.00000  Uiso   1.00
C245   C     0.13637   0.57815   0.47577   0.00000  Uiso   1.00
C246   C     0.20091   0.42368   0.02429   0.00000  Uiso   1.00
Cu247  Cu    0.16667   0.54689   0.25000   0.00000  Uiso   1.00
Cu248  Cu    0.16667   0.45311   0.25000   0.00000  Uiso   1.00
H249   H     0.19373   0.43159   0.39047   0.00000  Uiso   1.00
H250   H     0.14162   0.56924   0.10956   0.00000  Uiso   1.00
H251   H     0.13902   0.56761   0.38726   0.00000  Uiso   1.00
H252   H     0.19374   0.43188   0.11266   0.00000  Uiso   1.00
H253   H     0.12487   0.60732   0.03976   0.00000  Uiso   1.00
H254   H     0.21308   0.39502   0.46024   0.00000  Uiso   1.00
H255   H     0.03731   0.42472   0.24833   0.00000  Uiso   1.00
H256   H     0.29602   0.57528   0.25158   0.00000  Uiso   1.00
H257   H     0.29608   0.42470   0.24820   0.00000  Uiso   1.00
H258   H     0.03725   0.57530   0.25169   0.00000  Uiso   1.00
N259   N     0.16667   0.61736   0.25000   0.00000  Uiso   1.00
N260   N     0.16667   0.38264   0.25000   0.00000  Uiso   1.00
O261   O     0.10655   0.53958   0.24999   0.00000  Uiso   1.00
O262   O     0.22679   0.46042   0.25000   0.00000  Uiso   1.00
O263   O     0.22679   0.53958   0.25000   0.00000  Uiso   1.00
O264   O     0.10655   0.46042   0.24999   0.00000  Uiso   1.00
O265   O     0.16666   0.53960   0.18513   0.00000  Uiso   1.00
O266   O     0.16668   0.46040   0.31487   0.00000  Uiso   1.00
O267   O     0.16668   0.53960   0.31487   0.00000  Uiso   1.00
O268   O     0.16666   0.46040   0.18513   0.00000  Uiso   1.00
N269   N     0.11923   0.61712   0.45245   0.00000  Uiso   1.00
H270   H     0.09419   0.63147   0.46766   0.00000  Uiso   1.00
C271   C     0.14917   0.65205   0.44111   0.00000  Uiso   1.00
H272   H     0.16277   0.33408   0.47187   0.00000  Uiso   1.00
H273   H     0.13390   0.34671   0.42113   0.00000  Uiso   1.00
H274   H     0.17402   0.63672   0.42122   0.00000  Uiso   1.00
N275   N     0.21824   0.38477   0.04756   0.00000  Uiso   1.00
H276   H     0.21385   0.35355   0.03138   0.00000  Uiso   1.00
C277   C     0.26074   0.39110   0.06191   0.00000  Uiso   1.00
H278   H     0.28062   0.39447   0.03265   0.00000  Uiso   1.00
H279   H     0.27112   0.36050   0.08191   0.00000  Uiso   1.00
H280   H     0.26418   0.42261   0.08287   0.00000  Uiso   1.00
C281   C     0.11260   0.38318   0.19228   0.00000  Uiso   1.00
N282   N     0.09024   0.40273   0.16805   0.00000  Uiso   1.00
C283   C     0.22061   0.61681   0.30786   0.00000  Uiso   1.00
N284   N     0.24289   0.59728   0.33218   0.00000  Uiso   1.00
C285   C     0.22197   0.38230   0.30638   0.00000  Uiso   1.00
N286   N     0.24548   0.40133   0.32945   0.00000  Uiso   1.00
C287   C     0.11147   0.61767   0.19351   0.00000  Uiso   1.00
N288   N     0.08808   0.59860   0.17033   0.00000  Uiso   1.00
C289   C     0.42075   0.50001   0.24995   0.00000  Uiso   1.00
C290   C     0.57925   0.49999   0.25003   0.00000  Uiso   1.00
C291   C     0.47028   0.57766   0.02222   0.00000  Uiso   1.00
C292   C     0.53350   0.42416   0.47783   0.00000  Uiso   1.00
C293   C     0.35464   0.45776   0.24904   0.00000  Uiso   1.00
C294   C     0.64535   0.54224   0.25087   0.00000  Uiso   1.00
C295   C     0.64539   0.45775   0.24901   0.00000  Uiso   1.00
C296   C     0.35461   0.54225   0.25089   0.00000  Uiso   1.00
C297   C     0.62389   0.49998   0.24998   0.00000  Uiso   1.00
C298   C     0.37610   0.50002   0.24995   0.00000  Uiso   1.00
C299   C     0.47370   0.35833   0.22228   0.00000  Uiso   1.00
C300   C     0.52626   0.64167   0.27776   0.00000  Uiso   1.00
C301   C     0.52642   0.35793   0.27759   0.00000  Uiso   1.00
C302   C     0.47359   0.64206   0.22240   0.00000  Uiso   1.00
C303   C     0.50013   0.50011   0.16439   0.00000  Uiso   1.00
C304   C     0.49996   0.49991   0.33560   0.00000  Uiso   1.00
C305   C     0.51556   0.46158   0.40785   0.00000  Uiso   1.00
C306   C     0.48657   0.53931   0.09219   0.00000  Uiso   1.00
C307   C     0.50003   0.49989   0.38399   0.00000  Uiso   1.00
C308   C     0.50086   0.50037   0.11602   0.00000  Uiso   1.00
C309   C     0.48493   0.53861   0.40634   0.00000  Uiso   1.00
C310   C     0.51609   0.46171   0.09366   0.00000  Uiso   1.00
C311   C     0.48538   0.53962   0.45277   0.00000  Uiso   1.00
C312   C     0.51768   0.46176   0.04728   0.00000  Uiso   1.00
C313   C     0.50149   0.50086   0.47674   0.00000  Uiso   1.00
C314   C     0.50192   0.50072   0.02332   0.00000  Uiso   1.00
C315   C     0.51685   0.46199   0.45408   0.00000  Uiso   1.00
C316   C     0.48629   0.53945   0.04597   0.00000  Uiso   1.00
C317   C     0.46970   0.57815   0.47577   0.00000  Uiso   1.00
C318   C     0.53424   0.42368   0.02429   0.00000  Uiso   1.00
Cu319  Cu    0.50000   0.54689   0.25000   0.00000  Uiso   1.00
Cu320  Cu    0.50000   0.45311   0.25000   0.00000  Uiso   1.00
H321   H     0.52706   0.43159   0.39047   0.00000  Uiso   1.00
H322   H     0.47495   0.56924   0.10956   0.00000  Uiso   1.00
H323   H     0.47235   0.56761   0.38726   0.00000  Uiso   1.00
H324   H     0.52708   0.43188   0.11266   0.00000  Uiso   1.00
H325   H     0.45820   0.60732   0.03976   0.00000  Uiso   1.00
H326   H     0.54641   0.39502   0.46024   0.00000  Uiso   1.00
H327   H     0.37064   0.42472   0.24833   0.00000  Uiso   1.00
H328   H     0.62935   0.57528   0.25158   0.00000  Uiso   1.00
H329   H     0.62941   0.42470   0.24820   0.00000  Uiso   1.00
H330   H     0.37058   0.57530   0.25169   0.00000  Uiso   1.00
N331   N     0.50000   0.61736   0.25000   0.00000  Uiso   1.00
N332   N     0.50000   0.38264   0.25000   0.00000  Uiso   1.00
O333   O     0.43988   0.53958   0.24999   0.00000  Uiso   1.00
O334   O     0.56012   0.46042   0.25000   0.00000  Uiso   1.00
O335   O     0.56012   0.53958   0.25000   0.00000  Uiso   1.00
O336   O     0.43988   0.46042   0.24999   0.00000  Uiso   1.00
O337   O     0.49999   0.53960   0.18513   0.00000  Uiso   1.00
O338   O     0.50001   0.46040   0.31487   0.00000  Uiso   1.00
O339   O     0.50001   0.53960   0.31487   0.00000  Uiso   1.00
O340   O     0.49999   0.46040   0.18513   0.00000  Uiso   1.00
N341   N     0.45256   0.61712   0.45245   0.00000  Uiso   1.00
H342   H     0.42752   0.63147   0.46766   0.00000  Uiso   1.00
C343   C     0.48250   0.65205   0.44111   0.00000  Uiso   1.00
H344   H     0.49610   0.33408   0.47187   0.00000  Uiso   1.00
H345   H     0.46724   0.34671   0.42113   0.00000  Uiso   1.00
H346   H     0.50735   0.63672   0.42122   0.00000  Uiso   1.00
N347   N     0.55157   0.38477   0.04756   0.00000  Uiso   1.00
H348   H     0.54718   0.35355   0.03138   0.00000  Uiso   1.00
C349   C     0.59407   0.39110   0.06191   0.00000  Uiso   1.00
H350   H     0.61395   0.39447   0.03265   0.00000  Uiso   1.00
H351   H     0.60446   0.36050   0.08191   0.00000  Uiso   1.00
H352   H     0.59751   0.42261   0.08287   0.00000  Uiso   1.00
C353   C     0.44593   0.38318   0.19228   0.00000  Uiso   1.00
N354   N     0.42358   0.40273   0.16805   0.00000  Uiso   1.00
C355   C     0.55394   0.61681   0.30786   0.00000  Uiso   1.00
N356   N     0.57622   0.59728   0.33218   0.00000  Uiso   1.00
C357   C     0.55531   0.38230   0.30638   0.00000  Uiso   1.00
N358   N     0.57882   0.40133   0.32945   0.00000  Uiso   1.00
C359   C     0.44480   0.61767   0.19351   0.00000  Uiso   1.00
N360   N     0.42141   0.59860   0.17033   0.00000  Uiso   1.00
C361   C     0.75409   0.50001   0.24995   0.00000  Uiso   1.00
C362   C     0.91258   0.49999   0.25003   0.00000  Uiso   1.00
C363   C     0.80361   0.57766   0.02222   0.00000  Uiso   1.00
C364   C     0.86684   0.42416   0.47783   0.00000  Uiso   1.00
C365   C     0.68797   0.45776   0.24904   0.00000  Uiso   1.00
C366   C     0.97869   0.54224   0.25087   0.00000  Uiso   1.00
C367   C     0.97872   0.45775   0.24901   0.00000  Uiso   1.00
C368   C     0.68794   0.54225   0.25089   0.00000  Uiso   1.00
C369   C     0.95723   0.49998   0.24998   0.00000  Uiso   1.00
C370   C     0.70944   0.50002   0.24995   0.00000  Uiso   1.00
C371   C     0.80704   0.35833   0.22228   0.00000  Uiso   1.00
C372   C     0.85960   0.64167   0.27776   0.00000  Uiso   1.00
C373   C     0.85975   0.35793   0.27759   0.00000  Uiso   1.00
C374   C     0.80692   0.64206   0.22240   0.00000  Uiso   1.00
C375   C     0.83346   0.50011   0.16439   0.00000  Uiso   1.00
C376   C     0.83330   0.49991   0.33560   0.00000  Uiso   1.00
C377   C     0.84889   0.46158   0.40785   0.00000  Uiso   1.00
C378   C     0.81990   0.53931   0.09219   0.00000  Uiso   1.00
C379   C     0.83336   0.49989   0.38399   0.00000  Uiso   1.00
C380   C     0.83420   0.50037   0.11602   0.00000  Uiso   1.00
C381   C     0.81826   0.53861   0.40634   0.00000  Uiso   1.00
C382   C     0.84942   0.46171   0.09366   0.00000  Uiso   1.00
C383   C     0.81872   0.53962   0.45277   0.00000  Uiso   1.00
C384   C     0.85101   0.46176   0.04728   0.00000  Uiso   1.00
C385   C     0.83483   0.50086   0.47674   0.00000  Uiso   1.00
C386   C     0.83526   0.50072   0.02332   0.00000  Uiso   1.00
C387   C     0.85018   0.46199   0.45408   0.00000  Uiso   1.00
C388   C     0.81962   0.53945   0.04597   0.00000  Uiso   1.00
C389   C     0.80303   0.57815   0.47577   0.00000  Uiso   1.00
C390   C     0.86757   0.42368   0.02429   0.00000  Uiso   1.00
Cu391  Cu    0.83333   0.54689   0.25000   0.00000  Uiso   1.00
Cu392  Cu    0.83333   0.45311   0.25000   0.00000  Uiso   1.00
H393   H     0.86039   0.43159   0.39047   0.00000  Uiso   1.00
H394   H     0.80828   0.56924   0.10956   0.00000  Uiso   1.00
H395   H     0.80568   0.56761   0.38726   0.00000  Uiso   1.00
H396   H     0.86041   0.43188   0.11266   0.00000  Uiso   1.00
H397   H     0.79154   0.60732   0.03976   0.00000  Uiso   1.00
H398   H     0.87974   0.39502   0.46024   0.00000  Uiso   1.00
H399   H     0.70398   0.42472   0.24833   0.00000  Uiso   1.00
H400   H     0.96269   0.57528   0.25158   0.00000  Uiso   1.00
H401   H     0.96275   0.42470   0.24820   0.00000  Uiso   1.00
H402   H     0.70392   0.57530   0.25169   0.00000  Uiso   1.00
N403   N     0.83333   0.61736   0.25000   0.00000  Uiso   1.00
N404   N     0.83333   0.38264   0.25000   0.00000  Uiso   1.00
O405   O     0.77321   0.53958   0.24999   0.00000  Uiso   1.00
O406   O     0.89345   0.46042   0.25000   0.00000  Uiso   1.00
O407   O     0.89345   0.53958   0.25000   0.00000  Uiso   1.00
O408   O     0.77321   0.46042   0.24999   0.00000  Uiso   1.00
O409   O     0.83332   0.53960   0.18513   0.00000  Uiso   1.00
O410   O     0.83334   0.46040   0.31487   0.00000  Uiso   1.00
O411   O     0.83334   0.53960   0.31487   0.00000  Uiso   1.00
O412   O     0.83332   0.46040   0.18513   0.00000  Uiso   1.00
N413   N     0.78589   0.61712   0.45245   0.00000  Uiso   1.00
H414   H     0.76085   0.63147   0.46766   0.00000  Uiso   1.00
C415   C     0.81584   0.65205   0.44111   0.00000  Uiso   1.00
H416   H     0.82944   0.33408   0.47187   0.00000  Uiso   1.00
H417   H     0.80057   0.34671   0.42113   0.00000  Uiso   1.00
H418   H     0.84068   0.63672   0.42122   0.00000  Uiso   1.00
N419   N     0.88491   0.38477   0.04756   0.00000  Uiso   1.00
H420   H     0.88051   0.35355   0.03138   0.00000  Uiso   1.00
C421   C     0.92740   0.39110   0.06191   0.00000  Uiso   1.00
H422   H     0.94729   0.39447   0.03265   0.00000  Uiso   1.00
H423   H     0.93779   0.36050   0.08191   0.00000  Uiso   1.00
H424   H     0.93084   0.42261   0.08287   0.00000  Uiso   1.00
C425   C     0.77927   0.38318   0.19228   0.00000  Uiso   1.00
N426   N     0.75691   0.40273   0.16805   0.00000  Uiso   1.00
C427   C     0.88728   0.61681   0.30786   0.00000  Uiso   1.00
N428   N     0.90955   0.59728   0.33218   0.00000  Uiso   1.00
C429   C     0.88864   0.38230   0.30638   0.00000  Uiso   1.00
N430   N     0.91215   0.40133   0.32945   0.00000  Uiso   1.00
C431   C     0.77814   0.61767   0.19351   0.00000  Uiso   1.00
N432   N     0.75474   0.59860   0.17033   0.00000  Uiso   1.00
C433   C     0.08742   0.83335   0.24995   0.00000  Uiso   1.00
C434   C     0.24591   0.83332   0.25003   0.00000  Uiso   1.00
C435   C     0.13695   0.91099   0.02222   0.00000  Uiso   1.00
C436   C     0.20017   0.75749   0.47783   0.00000  Uiso   1.00
C437   C     0.02131   0.79109   0.24904   0.00000  Uiso   1.00
C438   C     0.31202   0.87557   0.25087   0.00000  Uiso   1.00
C439   C     0.31206   0.79108   0.24901   0.00000  Uiso   1.00
C440   C     0.02127   0.87559   0.25089   0.00000  Uiso   1.00
C441   C     0.29056   0.83332   0.24998   0.00000  Uiso   1.00
C442   C     0.04277   0.83335   0.24995   0.00000  Uiso   1.00
C443   C     0.14037   0.69166   0.22228   0.00000  Uiso   1.00
C444   C     0.19293   0.97500   0.27776   0.00000  Uiso   1.00
C445   C     0.19308   0.69127   0.27759   0.00000  Uiso   1.00
C446   C     0.14026   0.97539   0.22240   0.00000  Uiso   1.00
C447   C     0.16679   0.83344   0.16439   0.00000  Uiso   1.00
C448   C     0.16663   0.83324   0.33560   0.00000  Uiso   1.00
C449   C     0.18222   0.79491   0.40785   0.00000  Uiso   1.00
C450   C     0.15324   0.87265   0.09219   0.00000  Uiso   1.00
C451   C     0.16670   0.83323   0.38399   0.00000  Uiso   1.00
C452   C     0.16753   0.83370   0.11602   0.00000  Uiso   1.00
C453   C     0.15160   0.87194   0.40634   0.00000  Uiso   1.00
C454   C     0.18275   0.79505   0.09366   0.00000  Uiso   1.00
C455   C     0.15205   0.87295   0.45277   0.00000  Uiso   1.00
C456   C     0.18434   0.79509   0.04728   0.00000  Uiso   1.00
C457   C     0.16816   0.83419   0.47674   0.00000  Uiso   1.00
C458   C     0.16859   0.83405   0.02332   0.00000  Uiso   1.00
C459   C     0.18351   0.79533   0.45408   0.00000  Uiso   1.00
C460   C     0.15296   0.87278   0.04597   0.00000  Uiso   1.00
C461   C     0.13637   0.91148   0.47577   0.00000  Uiso   1.00
C462   C     0.20091   0.75702   0.02429   0.00000  Uiso   1.00
Cu463  Cu    0.16667   0.88022   0.25000   0.00000  Uiso   1.00
Cu464  Cu    0.16667   0.78645   0.25000   0.00000  Uiso   1.00
H465   H     0.19373   0.76493   0.39047   0.00000  Uiso   1.00
H466   H     0.14162   0.90257   0.10956   0.00000  Uiso   1.00
H467   H     0.13902   0.90095   0.38726   0.00000  Uiso   1.00
H468   H     0.19374   0.76521   0.11266   0.00000  Uiso   1.00
H469   H     0.12487   0.94065   0.03976   0.00000  Uiso   1.00
H470   H     0.21308   0.72835   0.46024   0.00000  Uiso   1.00
H471   H     0.03731   0.75805   0.24833   0.00000  Uiso   1.00
H472   H     0.29602   0.90862   0.25158   0.00000  Uiso   1.00
H473   H     0.29608   0.75803   0.24820   0.00000  Uiso   1.00
H474   H     0.03725   0.90863   0.25169   0.00000  Uiso   1.00
N475   N     0.16667   0.95069   0.25000   0.00000  Uiso   1.00
N476   N     0.16667   0.71598   0.25000   0.00000  Uiso   1.00
O477   O     0.10655   0.87291   0.24999   0.00000  Uiso   1.00
O478   O     0.22679   0.79375   0.25000   0.00000  Uiso   1.00
O479   O     0.22679   0.87291   0.25000   0.00000  Uiso   1.00
O480   O     0.10655   0.79375   0.24999   0.00000  Uiso   1.00
O481   O     0.16666   0.87293   0.18513   0.00000  Uiso   1.00
O482   O     0.16668   0.79373   0.31487   0.00000  Uiso   1.00
O483   O     0.16668   0.87293   0.31487   0.00000  Uiso   1.00
O484   O     0.16666   0.79373   0.18513   0.00000  Uiso   1.00
N485   N     0.11923   0.95045   0.45245   0.00000  Uiso   1.00
H486   H     0.09419   0.96481   0.46766   0.00000  Uiso   1.00
C487   C     0.14917   0.98538   0.44111   0.00000  Uiso   1.00
H488   H     0.16277   0.66742   0.47187   0.00000  Uiso   1.00
H489   H     0.13390   0.68004   0.42113   0.00000  Uiso   1.00
H490   H     0.17402   0.97005   0.42122   0.00000  Uiso   1.00
N491   N     0.21824   0.71810   0.04756   0.00000  Uiso   1.00
H492   H     0.21385   0.68689   0.03138   0.00000  Uiso   1.00
C493   C     0.26074   0.72443   0.06191   0.00000  Uiso   1.00
H494   H     0.28062   0.72781   0.03265   0.00000  Uiso   1.00
H495   H     0.27112   0.69384   0.08191   0.00000  Uiso   1.00
H496   H     0.26418   0.75594   0.08287   0.00000  Uiso   1.00
C497   C     0.11260   0.71652   0.19228   0.00000  Uiso   1.00
N498   N     0.09024   0.73606   0.16805   0.00000  Uiso   1.00
C499   C     0.22061   0.95015   0.30786   0.00000  Uiso   1.00
N500   N     0.24289   0.93061   0.33218   0.00000  Uiso   1.00
C501   C     0.22197   0.71563   0.30638   0.00000  Uiso   1.00
N502   N     0.24548   0.73467   0.32945   0.00000  Uiso   1.00
C503   C     0.11147   0.95100   0.19351   0.00000  Uiso   1.00
N504   N     0.08808   0.93193   0.17033   0.00000  Uiso   1.00
C505   C     0.42075   0.83335   0.24995   0.00000  Uiso   1.00
C506   C     0.57925   0.83332   0.25003   0.00000  Uiso   1.00
C507   C     0.47028   0.91099   0.02222   0.00000  Uiso   1.00
C508   C     0.53350   0.75749   0.47783   0.00000  Uiso   1.00
C509   C     0.35464   0.79109   0.24904   0.00000  Uiso   1.00
C510   C     0.64535   0.87557   0.25087   0.00000  Uiso   1.00
C511   C     0.64539   0.79108   0.24901   0.00000  Uiso   1.00
C512   C     0.35461   0.87559   0.25089   0.00000  Uiso   1.00
C513   C     0.62389   0.83332   0.24998   0.00000  Uiso   1.00
C514   C     0.37610   0.83335   0.24995   0.00000  Uiso   1.00
C515   C     0.47370   0.69166   0.22228   0.00000  Uiso   1.00
C516   C     0.52626   0.97500   0.27776   0.00000  Uiso   1.00
C517   C     0.52642   0.69127   0.27759   0.00000  Uiso   1.00
C518   C     0.47359   0.97539   0.22240   0.00000  Uiso   1.00
C519   C     0.50013   0.83344   0.16439   0.00000  Uiso   1.00
C520   C     0.49996   0.83324   0.33560   0.00000  Uiso   1.00
C521   C     0.51556   0.79491   0.40785   0.00000  Uiso   1.00
C522   C     0.48657   0.87265   0.09219   0.00000  Uiso   1.00
C523   C     0.50003   0.83323   0.38399   0.00000  Uiso   1.00
C524   C     0.50086   0.83370   0.11602   0.00000  Uiso   1.00
C525   C     0.48493   0.87194   0.40634   0.00000  Uiso   1.00
C526   C     0.51609   0.79505   0.09366   0.00000  Uiso   1.00
C527   C     0.48538   0.87295   0.45277   0.00000  Uiso   1.00
C528   C     0.51768   0.79509   0.04728   0.00000  Uiso   1.00
C529   C     0.50149   0.83419   0.47674   0.00000  Uiso   1.00
C530   C     0.50192   0.83405   0.02332   0.00000  Uiso   1.00
C531   C     0.51685   0.79533   0.45408   0.00000  Uiso   1.00
C532   C     0.48629   0.87278   0.04597   0.00000  Uiso   1.00
C533   C     0.46970   0.91148   0.47577   0.00000  Uiso   1.00
C534   C     0.53424   0.75702   0.02429   0.00000  Uiso   1.00
Cu535  Cu    0.50000   0.88022   0.25000   0.00000  Uiso   1.00
Cu536  Cu    0.50000   0.78645   0.25000   0.00000  Uiso   1.00
H537   H     0.52706   0.76493   0.39047   0.00000  Uiso   1.00
H538   H     0.47495   0.90257   0.10956   0.00000  Uiso   1.00
H539   H     0.47235   0.90095   0.38726   0.00000  Uiso   1.00
H540   H     0.52708   0.76521   0.11266   0.00000  Uiso   1.00
H541   H     0.45820   0.94065   0.03976   0.00000  Uiso   1.00
H542   H     0.54641   0.72835   0.46024   0.00000  Uiso   1.00
H543   H     0.37064   0.75805   0.24833   0.00000  Uiso   1.00
H544   H     0.62935   0.90862   0.25158   0.00000  Uiso   1.00
H545   H     0.62941   0.75803   0.24820   0.00000  Uiso   1.00
H546   H     0.37058   0.90863   0.25169   0.00000  Uiso   1.00
N547   N     0.50000   0.95069   0.25000   0.00000  Uiso   1.00
N548   N     0.50000   0.71598   0.25000   0.00000  Uiso   1.00
O549   O     0.43988   0.87291   0.24999   0.00000  Uiso   1.00
O550   O     0.56012   0.79375   0.25000   0.00000  Uiso   1.00
O551   O     0.56012   0.87291   0.25000   0.00000  Uiso   1.00
O552   O     0.43988   0.79375   0.24999   0.00000  Uiso   1.00
O553   O     0.49999   0.87293   0.18513   0.00000  Uiso   1.00
O554   O     0.50001   0.79373   0.31487   0.00000  Uiso   1.00
O555   O     0.50001   0.87293   0.31487   0.00000  Uiso   1.00
O556   O     0.49999   0.79373   0.18513   0.00000  Uiso   1.00
N557   N     0.45256   0.95045   0.45245   0.00000  Uiso   1.00
H558   H     0.42752   0.96481   0.46766   0.00000  Uiso   1.00
C559   C     0.48250   0.98538   0.44111   0.00000  Uiso   1.00
H560   H     0.49610   0.66742   0.47187   0.00000  Uiso   1.00
H561   H     0.46724   0.68004   0.42113   0.00000  Uiso   1.00
H562   H     0.50735   0.97005   0.42122   0.00000  Uiso   1.00
N563   N     0.55157   0.71810   0.04756   0.00000  Uiso   1.00
H564   H     0.54718   0.68689   0.03138   0.00000  Uiso   1.00
C565   C     0.59407   0.72443   0.06191   0.00000  Uiso   1.00
H566   H     0.61395   0.72781   0.03265   0.00000  Uiso   1.00
H567   H     0.60446   0.69384   0.08191   0.00000  Uiso   1.00
H568   H     0.59751   0.75594   0.08287   0.00000  Uiso   1.00
C569   C     0.44593   0.71652   0.19228   0.00000  Uiso   1.00
N570   N     0.42358   0.73606   0.16805   0.00000  Uiso   1.00
C571   C     0.55394   0.95015   0.30786   0.00000  Uiso   1.00
N572   N     0.57622   0.93061   0.33218   0.00000  Uiso   1.00
C573   C     0.55531   0.71563   0.30638   0.00000  Uiso   1.00
N574   N     0.57882   0.73467   0.32945   0.00000  Uiso   1.00
C575   C     0.44480   0.95100   0.19351   0.00000  Uiso   1.00
N576   N     0.42141   0.93193   0.17033   0.00000  Uiso   1.00
C577   C     0.75409   0.83335   0.24995   0.00000  Uiso   1.00
C578   C     0.91258   0.83332   0.25003   0.00000  Uiso   1.00
C579   C     0.80361   0.91099   0.02222   0.00000  Uiso   1.00
C580   C     0.86684   0.75749   0.47783   0.00000  Uiso   1.00
C581   C     0.68797   0.79109   0.24904   0.00000  Uiso   1.00
C582   C     0.97869   0.87557   0.25087   0.00000  Uiso   1.00
C583   C     0.97872   0.79108   0.24901   0.00000  Uiso   1.00
C584   C     0.68794   0.87559   0.25089   0.00000  Uiso   1.00
C585   C     0.95723   0.83332   0.24998   0.00000  Uiso   1.00
C586   C     0.70944   0.83335   0.24995   0.00000  Uiso   1.00
C587   C     0.80704   0.69166   0.22228   0.00000  Uiso   1.00
C588   C     0.85960   0.97500   0.27776   0.00000  Uiso   1.00
C589   C     0.85975   0.69127   0.27759   0.00000  Uiso   1.00
C590   C     0.80692   0.97539   0.22240   0.00000  Uiso   1.00
C591   C     0.83346   0.83344   0.16439   0.00000  Uiso   1.00
C592   C     0.83330   0.83324   0.33560   0.00000  Uiso   1.00
C593   C     0.84889   0.79491   0.40785   0.00000  Uiso   1.00
C594   C     0.81990   0.87265   0.09219   0.00000  Uiso   1.00
C595   C     0.83336   0.83323   0.38399   0.00000  Uiso   1.00
C596   C     0.83420   0.83370   0.11602   0.00000  Uiso   1.00
C597   C     0.81826   0.87194   0.40634   0.00000  Uiso   1.00
C598   C     0.84942   0.79505   0.09366   0.00000  Uiso   1.00
C599   C     0.81872   0.87295   0.45277   0.00000  Uiso   1.00
C600   C     0.85101   0.79509   0.04728   0.00000  Uiso   1.00
C601   C     0.83483   0.83419   0.47674   0.00000  Uiso   1.00
C602   C     0.83526   0.83405   0.02332   0.00000  Uiso   1.00
C603   C     0.85018   0.79533   0.45408   0.00000  Uiso   1.00
C604   C     0.81962   0.87278   0.04597   0.00000  Uiso   1.00
C605   C     0.80303   0.91148   0.47577   0.00000  Uiso   1.00
C606   C     0.86757   0.75702   0.02429   0.00000  Uiso   1.00
Cu607  Cu    0.83333   0.88022   0.25000   0.00000  Uiso   1.00
Cu608  Cu    0.83333   0.78645   0.25000   0.00000  Uiso   1.00
H609   H     0.86039   0.76493   0.39047   0.00000  Uiso   1.00
H610   H     0.80828   0.90257   0.10956   0.00000  Uiso   1.00
H611   H     0.80568   0.90095   0.38726   0.00000  Uiso   1.00
H612   H     0.86041   0.76521   0.11266   0.00000  Uiso   1.00
H613   H     0.79154   0.94065   0.03976   0.00000  Uiso   1.00
H614   H     0.87974   0.72835   0.46024   0.00000  Uiso   1.00
H615   H     0.70398   0.75805   0.24833   0.00000  Uiso   1.00
H616   H     0.96269   0.90862   0.25158   0.00000  Uiso   1.00
H617   H     0.96275   0.75803   0.24820   0.00000  Uiso   1.00
H618   H     0.70392   0.90863   0.25169   0.00000  Uiso   1.00
N619   N     0.83333   0.95069   0.25000   0.00000  Uiso   1.00
N620   N     0.83333   0.71598   0.25000   0.00000  Uiso   1.00
O621   O     0.77321   0.87291   0.24999   0.00000  Uiso   1.00
O622   O     0.89345   0.79375   0.25000   0.00000  Uiso   1.00
O623   O     0.89345   0.87291   0.25000   0.00000  Uiso   1.00
O624   O     0.77321   0.79375   0.24999   0.00000  Uiso   1.00
O625   O     0.83332   0.87293   0.18513   0.00000  Uiso   1.00
O626   O     0.83334   0.79373   0.31487   0.00000  Uiso   1.00
O627   O     0.83334   0.87293   0.31487   0.00000  Uiso   1.00
O628   O     0.83332   0.79373   0.18513   0.00000  Uiso   1.00
N629   N     0.78589   0.95045   0.45245   0.00000  Uiso   1.00
H630   H     0.76085   0.96481   0.46766   0.00000  Uiso   1.00
C631   C     0.81584   0.98538   0.44111   0.00000  Uiso   1.00
H632   H     0.82944   0.66742   0.47187   0.00000  Uiso   1.00
H633   H     0.80057   0.68004   0.42113   0.00000  Uiso   1.00
H634   H     0.84068   0.97005   0.42122   0.00000  Uiso   1.00
N635   N     0.88491   0.71810   0.04756   0.00000  Uiso   1.00
H636   H     0.88051   0.68689   0.03138   0.00000  Uiso   1.00
C637   C     0.92740   0.72443   0.06191   0.00000  Uiso   1.00
H638   H     0.94729   0.72781   0.03265   0.00000  Uiso   1.00
H639   H     0.93779   0.69384   0.08191   0.00000  Uiso   1.00
H640   H     0.93084   0.75594   0.08287   0.00000  Uiso   1.00
C641   C     0.77927   0.71652   0.19228   0.00000  Uiso   1.00
N642   N     0.75691   0.73606   0.16805   0.00000  Uiso   1.00
C643   C     0.88728   0.95015   0.30786   0.00000  Uiso   1.00
N644   N     0.90955   0.93061   0.33218   0.00000  Uiso   1.00
C645   C     0.88864   0.71563   0.30638   0.00000  Uiso   1.00
N646   N     0.91215   0.73467   0.32945   0.00000  Uiso   1.00
C647   C     0.77814   0.95100   0.19351   0.00000  Uiso   1.00
N648   N     0.75474   0.93193   0.17033   0.00000  Uiso   1.00
C649   C     0.08742   0.16668   0.74995   0.00000  Uiso   1.00
C650   C     0.24591   0.16665   0.75003   0.00000  Uiso   1.00
C651   C     0.13695   0.24432   0.52222   0.00000  Uiso   1.00
C652   C     0.20017   0.09082   0.97783   0.00000  Uiso   1.00
C653   C     0.02131   0.12443   0.74904   0.00000  Uiso   1.00
C654   C     0.31202   0.20891   0.75087   0.00000  Uiso   1.00
C655   C     0.31206   0.12441   0.74901   0.00000  Uiso   1.00
C656   C     0.02127   0.20892   0.75089   0.00000  Uiso   1.00
C657   C     0.29056   0.16665   0.74998   0.00000  Uiso   1.00
C658   C     0.04277   0.16668   0.74995   0.00000  Uiso   1.00
C659   C     0.14037   0.02499   0.72228   0.00000  Uiso   1.00
C660   C     0.19293   0.30834   0.77776   0.00000  Uiso   1.00
C661   C     0.19308   0.02460   0.77759   0.00000  Uiso   1.00
C662   C     0.14026   0.30873   0.72240   0.00000  Uiso   1.00
C663   C     0.16679   0.16678   0.66439   0.00000  Uiso   1.00
C664   C     0.16663   0.16657   0.83560   0.00000  Uiso   1.00
C665   C     0.18222   0.12824   0.90785   0.00000  Uiso   1.00
C666   C     0.15324   0.20598   0.59219   0.00000  Uiso   1.00
C667   C     0.16670   0.16656   0.88399   0.00000  Uiso   1.00
C668   C     0.16753   0.16704   0.61602   0.00000  Uiso   1.00
C669   C     0.15160   0.20527   0.90634   0.00000  Uiso   1.00
C670   C     0.18275   0.12838   0.59366   0.00000  Uiso   1.00
C671   C     0.15205   0.20628   0.95277   0.00000  Uiso   1.00
C672   C     0.18434   0.12843   0.54728   0.00000  Uiso   1.00
C673   C     0.16816   0.16752   0.97674   0.00000  Uiso   1.00
C674   C     0.16859   0.16738   0.52332   0.00000  Uiso   1.00
C675   C     0.18351   0.12866   0.95408   0.00000  Uiso   1.00
C676   C     0.15296   0.20611   0.54597   0.00000  Uiso   1.00
C677   C     0.13637   0.24482   0.97577   0.00000  Uiso   1.00
C678   C     0.20091   0.09035   0.52429   0.00000  Uiso   1.00
Cu679  Cu    0.16667   0.21355   0.75000   0.00000  Uiso   1.00
Cu680  Cu    0.16667   0.11978   0.75000   0.00000  Uiso   1.00
H681   H     0.19373   0.09826   0.89047   0.00000  Uiso   1.00
H682   H     0.14162   0.23591   0.60956   0.00000  Uiso   1.00
H683   H     0.13902   0.23428   0.88726   0.00000  Uiso   1.00
H684   H     0.19374   0.09855   0.61266   0.00000  Uiso   1.00
H685   H     0.12487   0.27398   0.53976   0.00000  Uiso   1.00
H686   H     0.21308   0.06168   0.96024   0.00000  Uiso   1.00
H687   H     0.03731   0.09138   0.74833   0.00000  Uiso   1.00
H688   H     0.29602   0.24195   0.75158   0.00000  Uiso   1.00
H689   H     0.29608   0.09137   0.74820   0.00000  Uiso   1.00
H690   H     0.03725   0.24197   0.75169   0.00000  Uiso   1.00
N691   N     0.16667   0.28402   0.75000   0.00000  Uiso   1.00
N692   N     0.16667   0.04931   0.75000   0.00000  Uiso   1.00
O693   O     0.10655   0.20625   0.74999   0.00000  Uiso   1.00
O694   O     0.22679   0.12709   0.75000   0.00000  Uiso   1.00
O695   O     0.22679   0.20625   0.75000   0.00000  Uiso   1.00
O696   O     0.10655   0.12709   0.74999   0.00000  Uiso   1.00
O697   O     0.16666   0.20627   0.68513   0.00000  Uiso   1.00
O698   O     0.16668   0.12707   0.81487   0.00000  Uiso   1.00
O699   O     0.16668   0.20627   0.81487   0.00000  Uiso   1.00
O700   O     0.16666   0.12707   0.68513   0.00000  Uiso   1.00
N701   N     0.11923   0.28378   0.95245   0.00000  Uiso   1.00
H702   H     0.09419   0.29814   0.96766   0.00000  Uiso   1.00
C703   C     0.14917   0.31871   0.94111   0.00000  Uiso   1.00
H704   H     0.16277   0.00075   0.97187   0.00000  Uiso   1.00
H705   H     0.13390   0.01338   0.92113   0.00000  Uiso   1.00
H706   H     0.17402   0.30338   0.92122   0.00000  Uiso   1.00
N707   N     0.21824   0.05143   0.54756   0.00000  Uiso   1.00
H708   H     0.21385   0.02022   0.53138   0.00000  Uiso   1.00
C709   C     0.26074   0.05777   0.56191   0.00000  Uiso   1.00
H710   H     0.28062   0.06114   0.53265   0.00000  Uiso   1.00
H711   H     0.27112   0.02717   0.58191   0.00000  Uiso   1.00
H712   H     0.26418   0.08928   0.58287   0.00000  Uiso   1.00
C713   C     0.11260   0.04985   0.69228   0.00000  Uiso   1.00
N714   N     0.09024   0.06939   0.66805   0.00000  Uiso   1.00
C715   C     0.22061   0.28348   0.80786   0.00000  Uiso   1.00
N716   N     0.24289   0.26394   0.83218   0.00000  Uiso   1.00
C717   C     0.22197   0.04897   0.80638   0.00000  Uiso   1.00
N718   N     0.24548   0.06800   0.82945   0.00000  Uiso   1.00
C719   C     0.11147   0.28434   0.69351   0.00000  Uiso   1.00
N720   N     0.08808   0.26526   0.67033   0.00000  Uiso   1.00
C721   C     0.42075   0.16668   0.74995   0.00000  Uiso   1.00
C722   C     0.57925   0.16665   0.75003   0.00000  Uiso   1.00
C723   C     0.47028   0.24432   0.52222   0.00000  Uiso   1.00
C724   C     0.53350   0.09082   0.97783   0.00000  Uiso   1.00
C725   C     0.35464   0.12443   0.74904   0.00000  Uiso   1.00
C726   C     0.64535   0.20891   0.75087   0.00000  Uiso   1.00
C727   C     0.64539   0.12441   0.74901   0.00000  Uiso   1.00
C728   C     0.35461   0.20892   0.75089   0.00000  Uiso   1.00
C729   C     0.62389   0.16665   0.74998   0.00000  Uiso   1.00
C730   C     0.37610   0.16668   0.74995   0.00000  Uiso   1.00
C731   C     0.47370   0.02499   0.72228   0.00000  Uiso   1.00
C732   C     0.52626   0.30834   0.77776   0.00000  Uiso   1.00
C733   C     0.52642   0.02460   0.77759   0.00000  Uiso   1.00
C734   C     0.47359   0.30873   0.72240   0.00000  Uiso   1.00
C735   C     0.50013   0.16678   0.66439   0.00000  Uiso   1.00
C736   C     0.49996   0.16657   0.83560   0.00000  Uiso   1.00
C737   C     0.51556   0.12824   0.90785   0.00000  Uiso   1.00
C738   C     0.48657   0.20598   0.59219   0.00000  Uiso   1.00
C739   C     0.50003   0.16656   0.88399   0.00000  Uiso   1.00
C740   C     0.50086   0.16704   0.61602   0.00000  Uiso   1.00
C741   C     0.48493   0.20527   0.90634   0.00000  Uiso   1.00
C742   C     0.51609   0.12838   0.59366   0.00000  Uiso   1.00
C743   C     0.48538   0.20628   0.95277   0.00000  Uiso   1.00
C744   C     0.51768   0.12843   0.54728   0.00000  Uiso   1.00
C745   C     0.50149   0.16752   0.97674   0.00000  Uiso   1.00
C746   C     0.50192   0.16738   0.52332   0.00000  Uiso   1.00
C747   C     0.51685   0.12866   0.95408   0.00000  Uiso   1.00
C748   C     0.48629   0.20611   0.54597   0.00000  Uiso   1.00
C749   C     0.46970   0.24482   0.97577   0.00000  Uiso   1.00
C750   C     0.53424   0.09035   0.52429   0.00000  Uiso   1.00
Cu751  Cu    0.50000   0.21355   0.75000   0.00000  Uiso   1.00
Cu752  Cu    0.50000   0.11978   0.75000   0.00000  Uiso   1.00
H753   H     0.52706   0.09826   0.89047   0.00000  Uiso   1.00
H754   H     0.47495   0.23591   0.60956   0.00000  Uiso   1.00
H755   H     0.47235   0.23428   0.88726   0.00000  Uiso   1.00
H756   H     0.52708   0.09855   0.61266   0.00000  Uiso   1.00
H757   H     0.45820   0.27398   0.53976   0.00000  Uiso   1.00
H758   H     0.54641   0.06168   0.96024   0.00000  Uiso   1.00
H759   H     0.37064   0.09138   0.74833   0.00000  Uiso   1.00
H760   H     0.62935   0.24195   0.75158   0.00000  Uiso   1.00
H761   H     0.62941   0.09137   0.74820   0.00000  Uiso   1.00
H762   H     0.37058   0.24197   0.75169   0.00000  Uiso   1.00
N763   N     0.50000   0.28402   0.75000   0.00000  Uiso   1.00
N764   N     0.50000   0.04931   0.75000   0.00000  Uiso   1.00
O765   O     0.43988   0.20625   0.74999   0.00000  Uiso   1.00
O766   O     0.56012   0.12709   0.75000   0.00000  Uiso   1.00
O767   O     0.56012   0.20625   0.75000   0.00000  Uiso   1.00
O768   O     0.43988   0.12709   0.74999   0.00000  Uiso   1.00
O769   O     0.49999   0.20627   0.68513   0.00000  Uiso   1.00
O770   O     0.50001   0.12707   0.81487   0.00000  Uiso   1.00
O771   O     0.50001   0.20627   0.81487   0.00000  Uiso   1.00
O772   O     0.49999   0.12707   0.68513   0.00000  Uiso   1.00
N773   N     0.45256   0.28378   0.95245   0.00000  Uiso   1.00
H774   H     0.42752   0.29814   0.96766   0.00000  Uiso   1.00
C775   C     0.48250   0.31871   0.94111   0.00000  Uiso   1.00
H776   H     0.49610   0.00075   0.97187   0.00000  Uiso   1.00
H777   H     0.46724   0.01338   0.92113   0.00000  Uiso   1.00
H778   H     0.50735   0.30338   0.92122   0.00000  Uiso   1.00
N779   N     0.55157   0.05143   0.54756   0.00000  Uiso   1.00
H780   H     0.54718   0.02022   0.53138   0.00000  Uiso   1.00
C781   C     0.59407   0.05777   0.56191   0.00000  Uiso   1.00
H782   H     0.61395   0.06114   0.53265   0.00000  Uiso   1.00
H783   H     0.60446   0.02717   0.58191   0.00000  Uiso   1.00
H784   H     0.59751   0.08928   0.58287   0.00000  Uiso   1.00
C785   C     0.44593   0.04985   0.69228   0.00000  Uiso   1.00
N786   N     0.42358   0.06939   0.66805   0.00000  Uiso   1.00
C787   C     0.55394   0.28348   0.80786   0.00000  Uiso   1.00
N788   N     0.57622   0.26394   0.83218   0.00000  Uiso   1.00
C789   C     0.55531   0.04897   0.80638   0.00000  Uiso   1.00
N790   N     0.57882   0.06800   0.82945   0.00000  Uiso   1.00
C791   C     0.44480   0.28434   0.69351   0.00000  Uiso   1.00
N792   N     0.42141   0.26526   0.67033   0.00000  Uiso   1.00
C793   C     0.75409   0.16668   0.74995   0.00000  Uiso   1.00
C794   C     0.91258   0.16665   0.75003   0.00000  Uiso   1.00
C795   C     0.80361   0.24432   0.52222   0.00000  Uiso   1.00
C796   C     0.86684   0.09082   0.97783   0.00000  Uiso   1.00
C797   C     0.68797   0.12443   0.74904   0.00000  Uiso   1.00
C798   C     0.97869   0.20891   0.75087   0.00000  Uiso   1.00
C799   C     0.97872   0.12441   0.74901   0.00000  Uiso   1.00
C800   C     0.68794   0.20892   0.75089   0.00000  Uiso   1.00
C801   C     0.95723   0.16665   0.74998   0.00000  Uiso   1.00
C802   C     0.70944   0.16668   0.74995   0.00000  Uiso   1.00
C803   C     0.80704   0.02499   0.72228   0.00000  Uiso   1.00
C804   C     0.85960   0.30834   0.77776   0.00000  Uiso   1.00
C805   C     0.85975   0.02460   0.77759   0.00000  Uiso   1.00
C806   C     0.80692   0.30873   0.72240   0.00000  Uiso   1.00
C807   C     0.83346   0.16678   0.66439   0.00000  Uiso   1.00
C808   C     0.83330   0.16657   0.83560   0.00000  Uiso   1.00
C809   C     0.84889   0.12824   0.90785   0.00000  Uiso   1.00
C810   C     0.81990   0.20598   0.59219   0.00000  Uiso   1.00
C811   C     0.83336   0.16656   0.88399   0.00000  Uiso   1.00
C812   C     0.83420   0.16704   0.61602   0.00000  Uiso   1.00
C813   C     0.81826   0.20527   0.90634   0.00000  Uiso   1.00
C814   C     0.84942   0.12838   0.59366   0.00000  Uiso   1.00
C815   C     0.81872   0.20628   0.95277   0.00000  Uiso   1.00
C816   C     0.85101   0.12843   0.54728   0.00000  Uiso   1.00
C817   C     0.83483   0.16752   0.97674   0.00000  Uiso   1.00
C818   C     0.83526   0.16738   0.52332   0.00000  Uiso   1.00
C819   C     0.85018   0.12866   0.95408   0.00000  Uiso   1.00
C820   C     0.81962   0.20611   0.54597   0.00000  Uiso   1.00
C821   C     0.80303   0.24482   0.97577   0.00000  Uiso   1.00
C822   C     0.86757   0.09035   0.52429   0.00000  Uiso   1.00
Cu823  Cu    0.83333   0.21355   0.75000   0.00000  Uiso   1.00
Cu824  Cu    0.83333   0.11978   0.75000   0.00000  Uiso   1.00
H825   H     0.86039   0.09826   0.89047   0.00000  Uiso   1.00
H826   H     0.80828   0.23591   0.60956   0.00000  Uiso   1.00
H827   H     0.80568   0.23428   0.88726   0.00000  Uiso   1.00
H828   H     0.86041   0.09855   0.61266   0.00000  Uiso   1.00
H829   H     0.79154   0.27398   0.53976   0.00000  Uiso   1.00
H830   H     0.87974   0.06168   0.96024   0.00000  Uiso   1.00
H831   H     0.70398   0.09138   0.74833   0.00000  Uiso   1.00
H832   H     0.96269   0.24195   0.75158   0.00000  Uiso   1.00
H833   H     0.96275   0.09137   0.74820   0.00000  Uiso   1.00
H834   H     0.70392   0.24197   0.75169   0.00000  Uiso   1.00
N835   N     0.83333   0.28402   0.75000   0.00000  Uiso   1.00
N836   N     0.83333   0.04931   0.75000   0.00000  Uiso   1.00
O837   O     0.77321   0.20625   0.74999   0.00000  Uiso   1.00
O838   O     0.89345   0.12709   0.75000   0.00000  Uiso   1.00
O839   O     0.89345   0.20625   0.75000   0.00000  Uiso   1.00
O840   O     0.77321   0.12709   0.74999   0.00000  Uiso   1.00
O841   O     0.83332   0.20627   0.68513   0.00000  Uiso   1.00
O842   O     0.83334   0.12707   0.81487   0.00000  Uiso   1.00
O843   O     0.83334   0.20627   0.81487   0.00000  Uiso   1.00
O844   O     0.83332   0.12707   0.68513   0.00000  Uiso   1.00
N845   N     0.78589   0.28378   0.95245   0.00000  Uiso   1.00
H846   H     0.76085   0.29814   0.96766   0.00000  Uiso   1.00
C847   C     0.81584   0.31871   0.94111   0.00000  Uiso   1.00
H848   H     0.82944   0.00075   0.97187   0.00000  Uiso   1.00
H849   H     0.80057   0.01338   0.92113   0.00000  Uiso   1.00
H850   H     0.84068   0.30338   0.92122   0.00000  Uiso   1.00
N851   N     0.88491   0.05143   0.54756   0.00000  Uiso   1.00
H852   H     0.88051   0.02022   0.53138   0.00000  Uiso   1.00
C853   C     0.92740   0.05777   0.56191   0.00000  Uiso   1.00
H854   H     0.94729   0.06114   0.53265   0.00000  Uiso   1.00
H855   H     0.93779   0.02717   0.58191   0.00000  Uiso   1.00
H856   H     0.93084   0.08928   0.58287   0.00000  Uiso   1.00
C857   C     0.77927   0.04985   0.69228   0.00000  Uiso   1.00
N858   N     0.75691   0.06939   0.66805   0.00000  Uiso   1.00
C859   C     0.88728   0.28348   0.80786   0.00000  Uiso   1.00
N860   N     0.90955   0.26394   0.83218   0.00000  Uiso   1.00
C861   C     0.88864   0.04897   0.80638   0.00000  Uiso   1.00
N862   N     0.91215   0.06800   0.82945   0.00000  Uiso   1.00
C863   C     0.77814   0.28434   0.69351   0.00000  Uiso   1.00
N864   N     0.75474   0.26526   0.67033   0.00000  Uiso   1.00
C865   C     0.08742   0.50001   0.74995   0.00000  Uiso   1.00
C866   C     0.24591   0.49999   0.75003   0.00000  Uiso   1.00
C867   C     0.13695   0.57766   0.52222   0.00000  Uiso   1.00
C868   C     0.20017   0.42416   0.97783   0.00000  Uiso   1.00
C869   C     0.02131   0.45776   0.74904   0.00000  Uiso   1.00
C870   C     0.31202   0.54224   0.75087   0.00000  Uiso   1.00
C871   C     0.31206   0.45775   0.74901   0.00000  Uiso   1.00
C872   C     0.02127   0.54225   0.75089   0.00000  Uiso   1.00
C873   C     0.29056   0.49998   0.74998   0.00000  Uiso   1.00
C874   C     0.04277   0.50002   0.74995   0.00000  Uiso   1.00
C875   C     0.14037   0.35833   0.72228   0.00000  Uiso   1.00
C876   C     0.19293   0.64167   0.77776   0.00000  Uiso   1.00
C877   C     0.19308   0.35793   0.77759   0.00000  Uiso   1.00
C878   C     0.14026   0.64206   0.72240   0.00000  Uiso   1.00
C879   C     0.16679   0.50011   0.66439   0.00000  Uiso   1.00
C880   C     0.16663   0.49991   0.83560   0.00000  Uiso   1.00
C881   C     0.18222   0.46158   0.90785   0.00000  Uiso   1.00
C882   C     0.15324   0.53931   0.59219   0.00000  Uiso   1.00
C883   C     0.16670   0.49989   0.88399   0.00000  Uiso   1.00
C884   C     0.16753   0.50037   0.61602   0.00000  Uiso   1.00
C885   C     0.15160   0.53861   0.90634   0.00000  Uiso   1.00
C886   C     0.18275   0.46171   0.59366   0.00000  Uiso   1.00
C887   C     0.15205   0.53962   0.95277   0.00000  Uiso   1.00
C888   C     0.18434   0.46176   0.54728   0.00000  Uiso   1.00
C889   C     0.16816   0.50086   0.97674   0.00000  Uiso   1.00
C890   C     0.16859   0.50072   0.52332   0.00000  Uiso   1.00
C891   C     0.18351   0.46199   0.95408   0.00000  Uiso   1.00
C892   C     0.15296   0.53945   0.54597   0.00000  Uiso   1.00
C893   C     0.13637   0.57815   0.97577   0.00000  Uiso   1.00
C894   C     0.20091   0.42368   0.52429   0.00000  Uiso   1.00
Cu895  Cu    0.16667   0.54689   0.75000   0.00000  Uiso   1.00
Cu896  Cu    0.16667   0.45311   0.75000   0.00000  Uiso   1.00
H897   H     0.19373   0.43159   0.89047   0.00000  Uiso   1.00
H898   H     0.14162   0.56924   0.60956   0.00000  Uiso   1.00
H899   H     0.13902   0.56761   0.88726   0.00000  Uiso   1.00
H900   H     0.19374   0.43188   0.61266   0.00000  Uiso   1.00
H901   H     0.12487   0.60732   0.53976   0.00000  Uiso   1.00
H902   H     0.21308   0.39502   0.96024   0.00000  Uiso   1.00
H903   H     0.03731   0.42472   0.74833   0.00000  Uiso   1.00
H904   H     0.29602   0.57528   0.75158   0.00000  Uiso   1.00
H905   H     0.29608   0.42470   0.74820   0.00000  Uiso   1.00
H906   H     0.03725   0.57530   0.75169   0.00000  Uiso   1.00
N907   N     0.16667   0.61736   0.75000   0.00000  Uiso   1.00
N908   N     0.16667   0.38264   0.75000   0.00000  Uiso   1.00
O909   O     0.10655   0.53958   0.74999   0.00000  Uiso   1.00
O910   O     0.22679   0.46042   0.75000   0.00000  Uiso   1.00
O911   O     0.22679   0.53958   0.75000   0.00000  Uiso   1.00
O912   O     0.10655   0.46042   0.74999   0.00000  Uiso   1.00
O913   O     0.16666   0.53960   0.68513   0.00000  Uiso   1.00
O914   O     0.16668   0.46040   0.81487   0.00000  Uiso   1.00
O915   O     0.16668   0.53960   0.81487   0.00000  Uiso   1.00
O916   O     0.16666   0.46040   0.68513   0.00000  Uiso   1.00
N917   N     0.11923   0.61712   0.95245   0.00000  Uiso   1.00
H918   H     0.09419   0.63147   0.96766   0.00000  Uiso   1.00
C919   C     0.14917   0.65205   0.94111   0.00000  Uiso   1.00
H920   H     0.16277   0.33408   0.97187   0.00000  Uiso   1.00
H921   H     0.13390   0.34671   0.92113   0.00000  Uiso   1.00
H922   H     0.17402   0.63672   0.92122   0.00000  Uiso   1.00
N923   N     0.21824   0.38477   0.54756   0.00000  Uiso   1.00
H924   H     0.21385   0.35355   0.53138   0.00000  Uiso   1.00
C925   C     0.26074   0.39110   0.56191   0.00000  Uiso   1.00
H926   H     0.28062   0.39447   0.53265   0.00000  Uiso   1.00
H927   H     0.27112   0.36050   0.58191   0.00000  Uiso   1.00
H928   H     0.26418   0.42261   0.58287   0.00000  Uiso   1.00
C929   C     0.11260   0.38318   0.69228   0.00000  Uiso   1.00
N930   N     0.09024   0.40273   0.66805   0.00000  Uiso   1.00
C931   C     0.22061   0.61681   0.80786   0.00000  Uiso   1.00
N932   N     0.24289   0.59728   0.83218   0.00000  Uiso   1.00
C933   C     0.22197   0.38230   0.80638   0.00000  Uiso   1.00
N934   N     0.24548   0.40133   0.82945   0.00000  Uiso   1.00
C935   C     0.11147   0.61767   0.69351   0.00000  Uiso   1.00
N936   N     0.08808   0.59860   0.67033   0.00000  Uiso   1.00
C937   C     0.42075   0.50001   0.74995   0.00000  Uiso   1.00
C938   C     0.57925   0.49999   0.75003   0.00000  Uiso   1.00
C939   C     0.47028   0.57766   0.52222   0.00000  Uiso   1.00
C940   C     0.53350   0.42416   0.97783   0.00000  Uiso   1.00
C941   C     0.35464   0.45776   0.74904   0.00000  Uiso   1.00
C942   C     0.64535   0.54224   0.75087   0.00000  Uiso   1.00
C943   C     0.64539   0.45775   0.74901   0.00000  Uiso   1.00
C944   C     0.35461   0.54225   0.75089   0.00000  Uiso   1.00
C945   C     0.62389   0.49998   0.74998   0.00000  Uiso   1.00
C946   C     0.37610   0.50002   0.74995   0.00000  Uiso   1.00
C947   C     0.47370   0.35833   0.72228   0.00000  Uiso   1.00
C948   C     0.52626   0.64167   0.77776   0.00000  Uiso   1.00
C949   C     0.52642   0.35793   0.77759   0.00000  Uiso   1.00
C950   C     0.47359   0.64206   0.72240   0.00000  Uiso   1.00
C951   C     0.50013   0.50011   0.66439   0.00000  Uiso   1.00
C952   C     0.49996   0.49991   0.83560   0.00000  Uiso   1.00
C953   C     0.51556   0.46158   0.90785   0.00000  Uiso   1.00
C954   C     0.48657   0.53931   0.59219   0.00000  Uiso   1.00
C955   C     0.50003   0.49989   0.88399   0.00000  Uiso   1.00
C956   C     0.50086   0.50037   0.61602   0.00000  Uiso   1.00
C957   C     0.48493   0.53861   0.90634   0.00000  Uiso   1.00
C958   C     0.51609   0.46171   0.59366   0.00000  Uiso   1.00
C959   C     0.48538   0.53962   0.95277   0.00000  Uiso   1.00
C960   C     0.51768   0.46176   0.54728   0.00000  Uiso   1.00
C961   C     0.50149   0.50086   0.97674   0.00000  Uiso   1.00
C962   C     0.50192   0.50072   0.52332   0.00000  Uiso   1.00
C963   C     0.51685   0.46199   0.95408   0.00000  Uiso   1.00
C964   C     0.48629   0.53945   0.54597   0.00000  Uiso   1.00
C965   C     0.46970   0.57815   0.97577   0.00000  Uiso   1.00
C966   C     0.53424   0.42368   0.52429   0.00000  Uiso   1.00
Cu967  Cu    0.50000   0.54689   0.75000   0.00000  Uiso   1.00
Cu968  Cu    0.50000   0.45311   0.75000   0.00000  Uiso   1.00
H969   H     0.52706   0.43159   0.89047   0.00000  Uiso   1.00
H970   H     0.47495   0.56924   0.60956   0.00000  Uiso   1.00
H971   H     0.47235   0.56761   0.88726   0.00000  Uiso   1.00
H972   H     0.52708   0.43188   0.61266   0.00000  Uiso   1.00
H973   H     0.45820   0.60732   0.53976   0.00000  Uiso   1.00
H974   H     0.54641   0.39502   0.96024   0.00000  Uiso   1.00
H975   H     0.37064   0.42472   0.74833   0.00000  Uiso   1.00
H976   H     0.62935   0.57528   0.75158   0.00000  Uiso   1.00
H977   H     0.62941   0.42470   0.74820   0.00000  Uiso   1.00
H978   H     0.37058   0.57530   0.75169   0.00000  Uiso   1.00
N979   N     0.50000   0.61736   0.75000   0.00000  Uiso   1.00
N980   N     0.50000   0.38264   0.75000   0.00000  Uiso   1.00
O981   O     0.43988   0.53958   0.74999   0.00000  Uiso   1.00
O982   O     0.56012   0.46042   0.75000   0.00000  Uiso   1.00
O983   O     0.56012   0.53958   0.75000   0.00000  Uiso   1.00
O984   O     0.43988   0.46042   0.74999   0.00000  Uiso   1.00
O985   O     0.49999   0.53960   0.68513   0.00000  Uiso   1.00
O986   O     0.50001   0.46040   0.81487   0.00000  Uiso   1.00
O987   O     0.50001   0.53960   0.81487   0.00000  Uiso   1.00
O988   O     0.49999   0.46040   0.68513   0.00000  Uiso   1.00
N989   N     0.45256   0.61712   0.95245   0.00000  Uiso   1.00
H990   H     0.42752   0.63147   0.96766   0.00000  Uiso   1.00
C991   C     0.48250   0.65205   0.94111   0.00000  Uiso   1.00
H992   H     0.49610   0.33408   0.97187   0.00000  Uiso   1.00
H993   H     0.46724   0.34671   0.92113   0.00000  Uiso   1.00
H994   H     0.50735   0.63672   0.92122   0.00000  Uiso   1.00
N995   N     0.55157   0.38477   0.54756   0.00000  Uiso   1.00
H996   H     0.54718   0.35355   0.53138   0.00000  Uiso   1.00
C997   C     0.59407   0.39110   0.56191   0.00000  Uiso   1.00
H998   H     0.61395   0.39447   0.53265   0.00000  Uiso   1.00
H999   H     0.60446   0.36050   0.58191   0.00000  Uiso   1.00
H1000  H     0.59751   0.42261   0.58287   0.00000  Uiso   1.00
C1001  C     0.44593   0.38318   0.69228   0.00000  Uiso   1.00
N1002  N     0.42358   0.40273   0.66805   0.00000  Uiso   1.00
C1003  C     0.55394   0.61681   0.80786   0.00000  Uiso   1.00
N1004  N     0.57622   0.59728   0.83218   0.00000  Uiso   1.00
C1005  C     0.55531   0.38230   0.80638   0.00000  Uiso   1.00
N1006  N     0.57882   0.40133   0.82945   0.00000  Uiso   1.00
C1007  C     0.44480   0.61767   0.69351   0.00000  Uiso   1.00
N1008  N     0.42141   0.59860   0.67033   0.00000  Uiso   1.00
C1009  C     0.75409   0.50001   0.74995   0.00000  Uiso   1.00
C1010  C     0.91258   0.49999   0.75003   0.00000  Uiso   1.00
C1011  C     0.80361   0.57766   0.52222   0.00000  Uiso   1.00
C1012  C     0.86684   0.42416   0.97783   0.00000  Uiso   1.00
C1013  C     0.68797   0.45776   0.74904   0.00000  Uiso   1.00
C1014  C     0.97869   0.54224   0.75087   0.00000  Uiso   1.00
C1015  C     0.97872   0.45775   0.74901   0.00000  Uiso   1.00
C1016  C     0.68794   0.54225   0.75089   0.00000  Uiso   1.00
C1017  C     0.95723   0.49998   0.74998   0.00000  Uiso   1.00
C1018  C     0.70944   0.50002   0.74995   0.00000  Uiso   1.00
C1019  C     0.80704   0.35833   0.72228   0.00000  Uiso   1.00
C1020  C     0.85960   0.64167   0.77776   0.00000  Uiso   1.00
C1021  C     0.85975   0.35793   0.77759   0.00000  Uiso   1.00
C1022  C     0.80692   0.64206   0.72240   0.00000  Uiso   1.00
C1023  C     0.83346   0.50011   0.66439   0.00000  Uiso   1.00
C1024  C     0.83330   0.49991   0.83560   0.00000  Uiso   1.00
C1025  C     0.84889   0.46158   0.90785   0.00000  Uiso   1.00
C1026  C     0.81990   0.53931   0.59219   0.00000  Uiso   1.00
C1027  C     0.83336   0.49989   0.88399   0.00000  Uiso   1.00
C1028  C     0.83420   0.50037   0.61602   0.00000  Uiso   1.00
C1029  C     0.81826   0.53861   0.90634   0.00000  Uiso   1.00
C1030  C     0.84942   0.46171   0.59366   0.00000  Uiso   1.00
C1031  C     0.81872   0.53962   0.95277   0.00000  Uiso   1.00
C1032  C     0.85101   0.46176   0.54728   0.00000  Uiso   1.00
C1033  C     0.83483   0.50086   0.97674   0.00000  Uiso   1.00
C1034  C     0.83526   0.50072   0.52332   0.00000  Uiso   1.00
C1035  C     0.85018   0.46199   0.95408   0.00000  Uiso   1.00
C1036  C     0.81962   0.53945   0.54597   0.00000  Uiso   1.00
C1037  C     0.80303   0.57815   0.97577   0.00000  Uiso   1.00
C1038  C     0.86757   0.42368   0.52429   0.00000  Uiso   1.00
Cu1039 Cu    0.83333   0.54689   0.75000   0.00000  Uiso   1.00
Cu1040 Cu    0.83333   0.45311   0.75000   0.00000  Uiso   1.00
H1041  H     0.86039   0.43159   0.89047   0.00000  Uiso   1.00
H1042  H     0.80828   0.56924   0.60956   0.00000  Uiso   1.00
H1043  H     0.80568   0.56761   0.88726   0.00000  Uiso   1.00
H1044  H     0.86041   0.43188   0.61266   0.00000  Uiso   1.00
H1045  H     0.79154   0.60732   0.53976   0.00000  Uiso   1.00
H1046  H     0.87974   0.39502   0.96024   0.00000  Uiso   1.00
H1047  H     0.70398   0.42472   0.74833   0.00000  Uiso   1.00
H1048  H     0.96269   0.57528   0.75158   0.00000  Uiso   1.00
H1049  H     0.96275   0.42470   0.74820   0.00000  Uiso   1.00
H1050  H     0.70392   0.57530   0.75169   0.00000  Uiso   1.00
N1051  N     0.83333   0.61736   0.75000   0.00000  Uiso   1.00
N1052  N     0.83333   0.38264   0.75000   0.00000  Uiso   1.00
O1053  O     0.77321   0.53958   0.74999   0.00000  Uiso   1.00
O1054  O     0.89345   0.46042   0.75000   0.00000  Uiso   1.00
O1055  O     0.89345   0.53958   0.75000   0.00000  Uiso   1.00
O1056  O     0.77321   0.46042   0.74999   0.00000  Uiso   1.00
O1057  O     0.83332   0.53960   0.68513   0.00000  Uiso   1.00
O1058  O     0.83334   0.46040   0.81487   0.00000  Uiso   1.00
O1059  O     0.83334   0.53960   0.81487   0.00000  Uiso   1.00
O1060  O     0.83332   0.46040   0.68513   0.00000  Uiso   1.00
N1061  N     0.78589   0.61712   0.95245   0.00000  Uiso   1.00
H1062  H     0.76085   0.63147   0.96766   0.00000  Uiso   1.00
C1063  C     0.81584   0.65205   0.94111   0.00000  Uiso   1.00
H1064  H     0.82944   0.33408   0.97187   0.00000  Uiso   1.00
H1065  H     0.80057   0.34671   0.92113   0.00000  Uiso   1.00
H1066  H     0.84068   0.63672   0.92122   0.00000  Uiso   1.00
N1067  N     0.88491   0.38477   0.54756   0.00000  Uiso   1.00
H1068  H     0.88051   0.35355   0.53138   0.00000  Uiso   1.00
C1069  C     0.92740   0.39110   0.56191   0.00000  Uiso   1.00
H1070  H     0.94729   0.39447   0.53265   0.00000  Uiso   1.00
H1071  H     0.93779   0.36050   0.58191   0.00000  Uiso   1.00
H1072  H     0.93084   0.42261   0.58287   0.00000  Uiso   1.00
C1073  C     0.77927   0.38318   0.69228   0.00000  Uiso   1.00
N1074  N     0.75691   0.40273   0.66805   0.00000  Uiso   1.00
C1075  C     0.88728   0.61681   0.80786   0.00000  Uiso   1.00
N1076  N     0.90955   0.59728   0.83218   0.00000  Uiso   1.00
C1077  C     0.88864   0.38230   0.80638   0.00000  Uiso   1.00
N1078  N     0.91215   0.40133   0.82945   0.00000  Uiso   1.00
C1079  C     0.77814   0.61767   0.69351   0.00000  Uiso   1.00
N1080  N     0.75474   0.59860   0.67033   0.00000  Uiso   1.00
C1081  C     0.08742   0.83335   0.74995   0.00000  Uiso   1.00
C1082  C     0.24591   0.83332   0.75003   0.00000  Uiso   1.00
C1083  C     0.13695   0.91099   0.52222   0.00000  Uiso   1.00
C1084  C     0.20017   0.75749   0.97783   0.00000  Uiso   1.00
C1085  C     0.02131   0.79109   0.74904   0.00000  Uiso   1.00
C1086  C     0.31202   0.87557   0.75087   0.00000  Uiso   1.00
C1087  C     0.31206   0.79108   0.74901   0.00000  Uiso   1.00
C1088  C     0.02127   0.87559   0.75089   0.00000  Uiso   1.00
C1089  C     0.29056   0.83332   0.74998   0.00000  Uiso   1.00
C1090  C     0.04277   0.83335   0.74995   0.00000  Uiso   1.00
C1091  C     0.14037   0.69166   0.72228   0.00000  Uiso   1.00
C1092  C     0.19293   0.97500   0.77776   0.00000  Uiso   1.00
C1093  C     0.19308   0.69127   0.77759   0.00000  Uiso   1.00
C1094  C     0.14026   0.97539   0.72240   0.00000  Uiso   1.00
C1095  C     0.16679   0.83344   0.66439   0.00000  Uiso   1.00
C1096  C     0.16663   0.83324   0.83560   0.00000  Uiso   1.00
C1097  C     0.18222   0.79491   0.90785   0.00000  Uiso   1.00
C1098  C     0.15324   0.87265   0.59219   0.00000  Uiso   1.00
C1099  C     0.16670   0.83323   0.88399   0.00000  Uiso   1.00
C1100  C     0.16753   0.83370   0.61602   0.00000  Uiso   1.00
C1101  C     0.15160   0.87194   0.90634   0.00000  Uiso   1.00
C1102  C     0.18275   0.79505   0.59366   0.00000  Uiso   1.00
C1103  C     0.15205   0.87295   0.95277   0.00000  Uiso   1.00
C1104  C     0.18434   0.79509   0.54728   0.00000  Uiso   1.00
C1105  C     0.16816   0.83419   0.97674   0.00000  Uiso   1.00
C1106  C     0.16859   0.83405   0.52332   0.00000  Uiso   1.00
C1107  C     0.18351   0.79533   0.95408   0.00000  Uiso   1.00
C1108  C     0.15296   0.87278   0.54597   0.00000  Uiso   1.00
C1109  C     0.13637   0.91148   0.97577   0.00000  Uiso   1.00
C1110  C     0.20091   0.75702   0.52429   0.00000  Uiso   1.00
Cu1111 Cu    0.16667   0.88022   0.75000   0.00000  Uiso   1.00
Cu1112 Cu    0.16667   0.78645   0.75000   0.00000  Uiso   1.00
H1113  H     0.19373   0.76493   0.89047   0.00000  Uiso   1.00
H1114  H     0.14162   0.90257   0.60956   0.00000  Uiso   1.00
H1115  H     0.13902   0.90095   0.88726   0.00000  Uiso   1.00
H1116  H     0.19374   0.76521   0.61266   0.00000  Uiso   1.00
H1117  H     0.12487   0.94065   0.53976   0.00000  Uiso   1.00
H1118  H     0.21308   0.72835   0.96024   0.00000  Uiso   1.00
H1119  H     0.03731   0.75805   0.74833   0.00000  Uiso   1.00
H1120  H     0.29602   0.90862   0.75158   0.00000  Uiso   1.00
H1121  H     0.29608   0.75803   0.74820   0.00000  Uiso   1.00
H1122  H     0.03725   0.90863   0.75169   0.00000  Uiso   1.00
N1123  N     0.16667   0.95069   0.75000   0.00000  Uiso   1.00
N1124  N     0.16667   0.71598   0.75000   0.00000  Uiso   1.00
O1125  O     0.10655   0.87291   0.74999   0.00000  Uiso   1.00
O1126  O     0.22679   0.79375   0.75000   0.00000  Uiso   1.00
O1127  O     0.22679   0.87291   0.75000   0.00000  Uiso   1.00
O1128  O     0.10655   0.79375   0.74999   0.00000  Uiso   1.00
O1129  O     0.16666   0.87293   0.68513   0.00000  Uiso   1.00
O1130  O     0.16668   0.79373   0.81487   0.00000  Uiso   1.00
O1131  O     0.16668   0.87293   0.81487   0.00000  Uiso   1.00
O1132  O     0.16666   0.79373   0.68513   0.00000  Uiso   1.00
N1133  N     0.11923   0.95045   0.95245   0.00000  Uiso   1.00
H1134  H     0.09419   0.96481   0.96766   0.00000  Uiso   1.00
C1135  C     0.14917   0.98538   0.94111   0.00000  Uiso   1.00
H1136  H     0.16277   0.66742   0.97187   0.00000  Uiso   1.00
H1137  H     0.13390   0.68004   0.92113   0.00000  Uiso   1.00
H1138  H     0.17402   0.97005   0.92122   0.00000  Uiso   1.00
N1139  N     0.21824   0.71810   0.54756   0.00000  Uiso   1.00
H1140  H     0.21385   0.68689   0.53138   0.00000  Uiso   1.00
C1141  C     0.26074   0.72443   0.56191   0.00000  Uiso   1.00
H1142  H     0.28062   0.72781   0.53265   0.00000  Uiso   1.00
H1143  H     0.27112   0.69384   0.58191   0.00000  Uiso   1.00
H1144  H     0.26418   0.75594   0.58287   0.00000  Uiso   1.00
C1145  C     0.11260   0.71652   0.69228   0.00000  Uiso   1.00
N1146  N     0.09024   0.73606   0.66805   0.00000  Uiso   1.00
C1147  C     0.22061   0.95015   0.80786   0.00000  Uiso   1.00
N1148  N     0.24289   0.93061   0.83218   0.00000  Uiso   1.00
C1149  C     0.22197   0.71563   0.80638   0.00000  Uiso   1.00
N1150  N     0.24548   0.73467   0.82945   0.00000  Uiso   1.00
C1151  C     0.11147   0.95100   0.69351   0.00000  Uiso   1.00
N1152  N     0.08808   0.93193   0.67033   0.00000  Uiso   1.00
C1153  C     0.42075   0.83335   0.74995   0.00000  Uiso   1.00
C1154  C     0.57925   0.83332   0.75003   0.00000  Uiso   1.00
C1155  C     0.47028   0.91099   0.52222   0.00000  Uiso   1.00
C1156  C     0.53350   0.75749   0.97783   0.00000  Uiso   1.00
C1157  C     0.35464   0.79109   0.74904   0.00000  Uiso   1.00
C1158  C     0.64535   0.87557   0.75087   0.00000  Uiso   1.00
C1159  C     0.64539   0.79108   0.74901   0.00000  Uiso   1.00
C1160  C     0.35461   0.87559   0.75089   0.00000  Uiso   1.00
C1161  C     0.62389   0.83332   0.74998   0.00000  Uiso   1.00
C1162  C     0.37610   0.83335   0.74995   0.00000  Uiso   1.00
C1163  C     0.47370   0.69166   0.72228   0.00000  Uiso   1.00
C1164  C     0.52626   0.97500   0.77776   0.00000  Uiso   1.00
C1165  C     0.52642   0.69127   0.77759   0.00000  Uiso   1.00
C1166  C     0.47359   0.97539   0.72240   0.00000  Uiso   1.00
C1167  C     0.50013   0.83344   0.66439   0.00000  Uiso   1.00
C1168  C     0.49996   0.83324   0.83560   0.00000  Uiso   1.00
C1169  C     0.51556   0.79491   0.90785   0.00000  Uiso   1.00
C1170  C     0.48657   0.87265   0.59219   0.00000  Uiso   1.00
C1171  C     0.50003   0.83323   0.88399   0.00000  Uiso   1.00
C1172  C     0.50086   0.83370   0.61602   0.00000  Uiso   1.00
C1173  C     0.48493   0.87194   0.90634   0.00000  Uiso   1.00
C1174  C     0.51609   0.79505   0.59366   0.00000  Uiso   1.00
C1175  C     0.48538   0.87295   0.95277   0.00000  Uiso   1.00
C1176  C     0.51768   0.79509   0.54728   0.00000  Uiso   1.00
C1177  C     0.50149   0.83419   0.97674   0.00000  Uiso   1.00
C1178  C     0.50192   0.83405   0.52332   0.00000  Uiso   1.00
C1179  C     0.51685   0.79533   0.95408   0.00000  Uiso   1.00
C1180  C     0.48629   0.87278   0.54597   0.00000  Uiso   1.00
C1181  C     0.46970   0.91148   0.97577   0.00000  Uiso   1.00
C1182  C     0.53424   0.75702   0.52429   0.00000  Uiso   1.00
Cu1183 Cu    0.50000   0.88022   0.75000   0.00000  Uiso   1.00
Cu1184 Cu    0.50000   0.78645   0.75000   0.00000  Uiso   1.00
H1185  H     0.52706   0.76493   0.89047   0.00000  Uiso   1.00
H1186  H     0.47495   0.90257   0.60956   0.00000  Uiso   1.00
H1187  H     0.47235   0.90095   0.88726   0.00000  Uiso   1.00
H1188  H     0.52708   0.76521   0.61266   0.00000  Uiso   1.00
H1189  H     0.45820   0.94065   0.53976   0.00000  Uiso   1.00
H1190  H     0.54641   0.72835   0.96024   0.00000  Uiso   1.00
H1191  H     0.37064   0.75805   0.74833   0.00000  Uiso   1.00
H1192  H     0.62935   0.90862   0.75158   0.00000  Uiso   1.00
H1193  H     0.62941   0.75803   0.74820   0.00000  Uiso   1.00
H1194  H     0.37058   0.90863   0.75169   0.00000  Uiso   1.00
N1195  N     0.50000   0.95069   0.75000   0.00000  Uiso   1.00
N1196  N     0.50000   0.71598   0.75000   0.00000  Uiso   1.00
O1197  O     0.43988   0.87291   0.74999   0.00000  Uiso   1.00
O1198  O     0.56012   0.79375   0.75000   0.00000  Uiso   1.00
O1199  O     0.56012   0.87291   0.75000   0.00000  Uiso   1.00
O1200  O     0.43988   0.79375   0.74999   0.00000  Uiso   1.00
O1201  O     0.49999   0.87293   0.68513   0.00000  Uiso   1.00
O1202  O     0.50001   0.79373   0.81487   0.00000  Uiso   1.00
O1203  O     0.50001   0.87293   0.81487   0.00000  Uiso   1.00
O1204  O     0.49999   0.79373   0.68513   0.00000  Uiso   1.00
N1205  N     0.45256   0.95045   0.95245   0.00000  Uiso   1.00
H1206  H     0.42752   0.96481   0.96766   0.00000  Uiso   1.00
C1207  C     0.48250   0.98538   0.94111   0.00000  Uiso   1.00
H1208  H     0.49610   0.66742   0.97187   0.00000  Uiso   1.00
H1209  H     0.46724   0.68004   0.92113   0.00000  Uiso   1.00
H1210  H     0.50735   0.97005   0.92122   0.00000  Uiso   1.00
N1211  N     0.55157   0.71810   0.54756   0.00000  Uiso   1.00
H1212  H     0.54718   0.68689   0.53138   0.00000  Uiso   1.00
C1213  C     0.59407   0.72443   0.56191   0.00000  Uiso   1.00
H1214  H     0.61395   0.72781   0.53265   0.00000  Uiso   1.00
H1215  H     0.60446   0.69384   0.58191   0.00000  Uiso   1.00
H1216  H     0.59751   0.75594   0.58287   0.00000  Uiso   1.00
C1217  C     0.44593   0.71652   0.69228   0.00000  Uiso   1.00
N1218  N     0.42358   0.73606   0.66805   0.00000  Uiso   1.00
C1219  C     0.55394   0.95015   0.80786   0.00000  Uiso   1.00
N1220  N     0.57622   0.93061   0.83218   0.00000  Uiso   1.00
C1221  C     0.55531   0.71563   0.80638   0.00000  Uiso   1.00
N1222  N     0.57882   0.73467   0.82945   0.00000  Uiso   1.00
C1223  C     0.44480   0.95100   0.69351   0.00000  Uiso   1.00
N1224  N     0.42141   0.93193   0.67033   0.00000  Uiso   1.00
C1225  C     0.75409   0.83335   0.74995   0.00000  Uiso   1.00
C1226  C     0.91258   0.83332   0.75003   0.00000  Uiso   1.00
C1227  C     0.80361   0.91099   0.52222   0.00000  Uiso   1.00
C1228  C     0.86684   0.75749   0.97783   0.00000  Uiso   1.00
C1229  C     0.68797   0.79109   0.74904   0.00000  Uiso   1.00
C1230  C     0.97869   0.87557   0.75087   0.00000  Uiso   1.00
C1231  C     0.97872   0.79108   0.74901   0.00000  Uiso   1.00
C1232  C     0.68794   0.87559   0.75089   0.00000  Uiso   1.00
C1233  C     0.95723   0.83332   0.74998   0.00000  Uiso   1.00
C1234  C     0.70944   0.83335   0.74995   0.00000  Uiso   1.00
C1235  C     0.80704   0.69166   0.72228   0.00000  Uiso   1.00
C1236  C     0.85960   0.97500   0.77776   0.00000  Uiso   1.00
C1237  C     0.85975   0.69127   0.77759   0.00000  Uiso   1.00
C1238  C     0.80692   0.97539   0.72240   0.00000  Uiso   1.00
C1239  C     0.83346   0.83344   0.66439   0.00000  Uiso   1.00
C1240  C     0.83330   0.83324   0.83560   0.00000  Uiso   1.00
C1241  C     0.84889   0.79491   0.90785   0.00000  Uiso   1.00
C1242  C     0.81990   0.87265   0.59219   0.00000  Uiso   1.00
C1243  C     0.83336   0.83323   0.88399   0.00000  Uiso   1.00
C1244  C     0.83420   0.83370   0.61602   0.00000  Uiso   1.00
C1245  C     0.81826   0.87194   0.90634   0.00000  Uiso   1.00
C1246  C     0.84942   0.79505   0.59366   0.00000  Uiso   1.00
C1247  C     0.81872   0.87295   0.95277   0.00000  Uiso   1.00
C1248  C     0.85101   0.79509   0.54728   0.00000  Uiso   1.00
C1249  C     0.83483   0.83419   0.97674   0.00000  Uiso   1.00
C1250  C     0.83526   0.83405   0.52332   0.00000  Uiso   1.00
C1251  C     0.85018   0.79533   0.95408   0.00000  Uiso   1.00
C1252  C     0.81962   0.87278   0.54597   0.00000  Uiso   1.00
C1253  C     0.80303   0.91148   0.97577   0.00000  Uiso   1.00
C1254  C     0.86757   0.75702   0.52429   0.00000  Uiso   1.00
Cu1255 Cu    0.83333   0.88022   0.75000   0.00000  Uiso   1.00
Cu1256 Cu    0.83333   0.78645   0.75000   0.00000  Uiso   1.00
H1257  H     0.86039   0.76493   0.89047   0.00000  Uiso   1.00
H1258  H     0.80828   0.90257   0.60956   0.00000  Uiso   1.00
H1259  H     0.80568   0.90095   0.88726   0.00000  Uiso   1.00
H1260  H     0.86041   0.76521   0.61266   0.00000  Uiso   1.00
H1261  H     0.79154   0.94065   0.53976   0.00000  Uiso   1.00
H1262  H     0.87974   0.72835   0.96024   0.00000  Uiso   1.00
H1263  H     0.70398   0.75805   0.74833   0.00000  Uiso   1.00
H1264  H     0.96269   0.90862   0.75158   0.00000  Uiso   1.00
H1265  H     0.96275   0.75803   0.74820   0.00000  Uiso   1.00
H1266  H     0.70392   0.90863   0.75169   0.00000  Uiso   1.00
N1267  N     0.83333   0.95069   0.75000   0.00000  Uiso   1.00
N1268  N     0.83333   0.71598   0.75000   0.00000  Uiso   1.00
O1269  O     0.77321   0.87291   0.74999   0.00000  Uiso   1.00
O1270  O     0.89345   0.79375   0.75000   0.00000  Uiso   1.00
O1271  O     0.89345   0.87291   0.75000   0.00000  Uiso   1.00
O1272  O     0.77321   0.79375   0.74999   0.00000  Uiso   1.00
O1273  O     0.83332   0.87293   0.68513   0.00000  Uiso   1.00
O1274  O     0.83334   0.79373   0.81487   0.00000  Uiso   1.00
O1275  O     0.83334   0.87293   0.81487   0.00000  Uiso   1.00
O1276  O     0.83332   0.79373   0.68513   0.00000  Uiso   1.00
N1277  N     0.78589   0.95045   0.95245   0.00000  Uiso   1.00
H1278  H     0.76085   0.96481   0.96766   0.00000  Uiso   1.00
C1279  C     0.81584   0.98538   0.94111   0.00000  Uiso   1.00
H1280  H     0.82944   0.66742   0.97187   0.00000  Uiso   1.00
H1281  H     0.80057   0.68004   0.92113   0.00000  Uiso   1.00
H1282  H     0.84068   0.97005   0.92122   0.00000  Uiso   1.00
N1283  N     0.88491   0.71810   0.54756   0.00000  Uiso   1.00
H1284  H     0.88051   0.68689   0.53138   0.00000  Uiso   1.00
C1285  C     0.92740   0.72443   0.56191   0.00000  Uiso   1.00
H1286  H     0.94729   0.72781   0.53265   0.00000  Uiso   1.00
H1287  H     0.93779   0.69384   0.58191   0.00000  Uiso   1.00
H1288  H     0.93084   0.75594   0.58287   0.00000  Uiso   1.00
C1289  C     0.77927   0.71652   0.69228   0.00000  Uiso   1.00
N1290  N     0.75691   0.73606   0.66805   0.00000  Uiso   1.00
C1291  C     0.88728   0.95015   0.80786   0.00000  Uiso   1.00
N1292  N     0.90955   0.93061   0.83218   0.00000  Uiso   1.00
C1293  C     0.88864   0.71563   0.80638   0.00000  Uiso   1.00
N1294  N     0.91215   0.73467   0.82945   0.00000  Uiso   1.00
C1295  C     0.77814   0.95100   0.69351   0.00000  Uiso   1.00
N1296  N     0.75474   0.93193   0.67033   0.00000  Uiso   1.00
loop_
_geom_bond_atom_site_label_1
_geom_bond_atom_site_label_2
_geom_bond_distance
_geom_bond_site_symmetry_2
_ccdc_geom_bond_type
C1     O48     1.296   .     A
C1     O45     1.297   .     A
C1     C10     1.450   .     S
C2     O47     1.296   .     A
C2     O46     1.297   .     A
C2     C9      1.450   .     S
C3     C28     1.399   .     A
C3     H37     1.085   .     S
C3     C677    1.399   1_554 S
C4     C27     1.399   .     A
C4     H38     1.084   .     S
C4     C678    1.399   .     S
C5     C10     1.401   .     A
C5     H39     1.083   .     S
C5     C151    1.383   1_455 S
C6     C9      1.401   .     A
C6     H40     1.083   .     S
C6     C80     1.383   .     S
C7     C9      1.401   .     A
C7     H41     1.083   .     S
C7     C77     1.383   .     S
C8     H42     1.083   .     S
C8     C10     1.401   .     A
C8     C150    1.383   1_455 S
C11    N44     1.372   .     A
C11    C65     1.444   .     S
C11    C446    1.426   1_545 S
C12    N43     1.372   .     A
C12    C67     1.444   .     S
C12    C229    1.426   .     S
C13    C69     1.444   .     S
C13    N44     1.372   .     A
C13    C444    1.426   1_545 S
C14    C71     1.444   .     S
C14    N43     1.372   .     A
C14    C227    1.426   .     S
C15    O49     1.299   .     A
C15    O52     1.299   .     A
C15    C20     1.458   .     S
C16    O51     1.298   .     A
C16    C19     1.458   .     S
C16    O50     1.299   .     A
C17    H33     1.082   .     S
C17    C19     1.398   .     A
C17    C27     1.392   .     A
C18    H34     1.083   .     S
C18    C20     1.399   .     A
C18    C28     1.392   .     A
C19    C21     1.399   .     A
C20    C22     1.400   .     A
C21    H35     1.083   .     S
C21    C23     1.399   .     A
C22    C24     1.400   .     A
C22    H36     1.083   .     S
C23    C29     1.412   .     A
C23    C25     1.416   .     A
C24    C26     1.416   .     A
C24    C30     1.413   .     A
C25    C27     1.411   .     A
C25    C674    1.403   .     S
C26    C28     1.411   .     A
C26    C673    1.403   1_554 S
C29    N53     1.424   .     S
C29    C651    1.399   .     S
C30    N59     1.424   .     S
C30    C652    1.399   1_554 S
Cu31   Cu32    2.696   .     S
Cu31   O47     1.964   .     S
Cu31   N43     2.026   .     S
Cu31   O49     1.967   .     S
Cu31   O45     1.964   .     S
Cu31   O51     1.964   .     S
Cu32   O50     1.967   .     S
Cu32   N44     2.026   .     S
Cu32   O48     1.964   .     S
Cu32   O52     1.964   .     S
Cu32   O46     1.964   .     S
N53    C55     1.445   .     S
N53    H54     1.032   .     S
C55    H58     1.111   .     S
C55    H272    1.109   .     S
C55    H273    1.110   .     S
H56    C487    1.109   1_545 S
H57    C487    1.110   1_545 S
N59    H60     1.032   .     S
N59    C61     1.447   .     S
C61    H64     1.111   .     S
C61    H62     1.112   .     S
C61    H63     1.110   .     S
C65    N66     1.158   .     T
C67    N68     1.158   .     T
C69    N70     1.158   .     T
C71    N72     1.158   .     T
C73    O120    1.296   .     A
C73    O117    1.297   .     A
C73    C82     1.450   .     S
C74    O119    1.296   .     A
C74    O118    1.297   .     A
C74    C81     1.450   .     S
C75    C100    1.399   .     A
C75    H109    1.085   .     S
C75    C749    1.399   1_554 S
C76    C99     1.399   .     A
C76    H110    1.084   .     S
C76    C750    1.399   .     S
C77    C82     1.401   .     A
C77    H111    1.083   .     S
C78    C81     1.401   .     A
C78    H112    1.083   .     S
C78    C152    1.383   .     S
C79    C81     1.401   .     A
C79    H113    1.083   .     S
C79    C149    1.383   .     S
C80    H114    1.083   .     S
C80    C82     1.401   .     A
C83    N116    1.372   .     A
C83    C137    1.444   .     S
C83    C518    1.426   1_545 S
C84    N115    1.372   .     A
C84    C139    1.444   .     S
C84    C301    1.426   .     S
C85    C141    1.444   .     S
C85    N116    1.372   .     A
C85    C516    1.426   1_545 S
C86    C143    1.444   .     S
C86    N115    1.372   .     A
C86    C299    1.426   .     S
C87    O121    1.299   .     A
C87    O124    1.299   .     A
C87    C92     1.458   .     S
C88    O123    1.298   .     A
C88    C91     1.458   .     S
C88    O122    1.299   .     A
C89    H105    1.082   .     S
C89    C91     1.398   .     A
C89    C99     1.392   .     A
C90    H106    1.083   .     S
C90    C92     1.399   .     A
C90    C100    1.392   .     A
C91    C93     1.399   .     A
C92    C94     1.400   .     A
C93    H107    1.083   .     S
C93    C95     1.399   .     A
C94    C96     1.400   .     A
C94    H108    1.083   .     S
C95    C101    1.412   .     A
C95    C97     1.416   .     A
C96    C98     1.416   .     A
C96    C102    1.413   .     A
C97    C99     1.411   .     A
C97    C746    1.403   .     S
C98    C100    1.411   .     A
C98    C745    1.403   1_554 S
C101   N125    1.424   .     S
C101   C723    1.399   .     S
C102   N131    1.424   .     S
C102   C724    1.399   1_554 S
Cu103  Cu104   2.696   .     S
Cu103  O119    1.964   .     S
Cu103  N115    2.026   .     S
Cu103  O121    1.967   .     S
Cu103  O117    1.964   .     S
Cu103  O123    1.964   .     S
Cu104  O122    1.967   .     S
Cu104  N116    2.026   .     S
Cu104  O120    1.964   .     S
Cu104  O124    1.964   .     S
Cu104  O118    1.964   .     S
N125   C127    1.445   .     S
N125   H126    1.032   .     S
C127   H130    1.111   .     S
C127   H344    1.109   .     S
C127   H345    1.110   .     S
H128   C559    1.109   1_545 S
H129   C559    1.110   1_545 S
N131   H132    1.032   .     S
N131   C133    1.447   .     S
C133   H136    1.111   .     S
C133   H134    1.112   .     S
C133   H135    1.110   .     S
C137   N138    1.158   .     T
C139   N140    1.158   .     T
C141   N142    1.158   .     T
C143   N144    1.158   .     T
C145   O192    1.296   .     A
C145   O189    1.297   .     A
C145   C154    1.450   .     S
C146   O191    1.296   .     A
C146   O190    1.297   .     A
C146   C153    1.450   .     S
C147   C172    1.399   .     A
C147   H181    1.085   .     S
C147   C821    1.399   1_554 S
C148   C171    1.399   .     A
C148   H182    1.084   .     S
C148   C822    1.399   .     S
C149   C154    1.401   .     A
C149   H183    1.083   .     S
C150   C153    1.401   .     A
C150   H184    1.083   .     S
C150   C8      1.383   1_655 S
C151   C153    1.401   .     A
C151   H185    1.083   .     S
C151   C5      1.383   1_655 S
C152   H186    1.083   .     S
C152   C154    1.401   .     A
C155   N188    1.372   .     A
C155   C209    1.444   .     S
C155   C590    1.426   1_545 S
C156   N187    1.372   .     A
C156   C211    1.444   .     S
C156   C373    1.426   .     S
C157   C213    1.444   .     S
C157   N188    1.372   .     A
C157   C588    1.426   1_545 S
C158   C215    1.444   .     S
C158   N187    1.372   .     A
C158   C371    1.426   .     S
C159   O193    1.299   .     A
C159   O196    1.299   .     A
C159   C164    1.458   .     S
C160   O195    1.298   .     A
C160   C163    1.458   .     S
C160   O194    1.299   .     A
C161   H177    1.082   .     S
C161   C163    1.398   .     A
C161   C171    1.392   .     A
C162   H178    1.083   .     S
C162   C164    1.399   .     A
C162   C172    1.392   .     A
C163   C165    1.399   .     A
C164   C166    1.400   .     A
C165   H179    1.083   .     S
C165   C167    1.399   .     A
C166   C168    1.400   .     A
C166   H180    1.083   .     S
C167   C173    1.412   .     A
C167   C169    1.416   .     A
C168   C170    1.416   .     A
C168   C174    1.413   .     A
C169   C171    1.411   .     A
C169   C818    1.403   .     S
C170   C172    1.411   .     A
C170   C817    1.403   1_554 S
C173   N197    1.424   .     S
C173   C795    1.399   .     S
C174   N203    1.424   .     S
C174   C796    1.399   1_554 S
Cu175  Cu176   2.696   .     S
Cu175  O191    1.964   .     S
Cu175  N187    2.026   .     S
Cu175  O193    1.967   .     S
Cu175  O189    1.964   .     S
Cu175  O195    1.964   .     S
Cu176  O194    1.967   .     S
Cu176  N188    2.026   .     S
Cu176  O192    1.964   .     S
Cu176  O196    1.964   .     S
Cu176  O190    1.964   .     S
N197   C199    1.445   .     S
N197   H198    1.032   .     S
C199   H202    1.111   .     S
C199   H416    1.109   .     S
C199   H417    1.110   .     S
H200   C631    1.109   1_545 S
H201   C631    1.110   1_545 S
N203   H204    1.032   .     S
N203   C205    1.447   .     S
C205   H208    1.111   .     S
C205   H206    1.112   .     S
C205   H207    1.110   .     S
C209   N210    1.158   .     T
C211   N212    1.158   .     T
C213   N214    1.158   .     T
C215   N216    1.158   .     T
C217   O264    1.296   .     A
C217   O261    1.297   .     A
C217   C226    1.450   .     S
C218   O263    1.296   .     A
C218   O262    1.297   .     A
C218   C225    1.450   .     S
C219   C244    1.399   .     A
C219   H253    1.085   .     S
C219   C893    1.399   1_554 S
C220   C243    1.399   .     A
C220   H254    1.084   .     S
C220   C894    1.399   .     S
C221   C226    1.401   .     A
C221   H255    1.083   .     S
C221   C367    1.383   1_455 S
C222   C225    1.401   .     A
C222   H256    1.083   .     S
C222   C296    1.383   .     S
C223   C225    1.401   .     A
C223   H257    1.083   .     S
C223   C293    1.383   .     S
C224   H258    1.083   .     S
C224   C226    1.401   .     A
C224   C366    1.383   1_455 S
C227   N260    1.372   .     A
C227   C281    1.444   .     S
C228   N259    1.372   .     A
C228   C283    1.444   .     S
C228   C445    1.426   .     S
C229   C285    1.444   .     S
C229   N260    1.372   .     A
C230   C287    1.444   .     S
C230   N259    1.372   .     A
C230   C443    1.426   .     S
C231   O265    1.299   .     A
C231   O268    1.299   .     A
C231   C236    1.458   .     S
C232   O267    1.298   .     A
C232   C235    1.458   .     S
C232   O266    1.299   .     A
C233   H249    1.082   .     S
C233   C235    1.398   .     A
C233   C243    1.392   .     A
C234   H250    1.083   .     S
C234   C236    1.399   .     A
C234   C244    1.392   .     A
C235   C237    1.399   .     A
C236   C238    1.400   .     A
C237   H251    1.083   .     S
C237   C239    1.399   .     A
C238   C240    1.400   .     A
C238   H252    1.083   .     S
C239   C245    1.412   .     A
C239   C241    1.416   .     A
C240   C242    1.416   .     A
C240   C246    1.413   .     A
C241   C243    1.411   .     A
C241   C890    1.403   .     S
C242   C244    1.411   .     A
C242   C889    1.403   1_554 S
C245   N269    1.424   .     S
C245   C867    1.399   .     S
C246   N275    1.424   .     S
C246   C868    1.399   1_554 S
Cu247  Cu248   2.696   .     S
Cu247  O263    1.964   .     S
Cu247  N259    2.026   .     S
Cu247  O265    1.967   .     S
Cu247  O261    1.964   .     S
Cu247  O267    1.964   .     S
Cu248  O266    1.967   .     S
Cu248  N260    2.026   .     S
Cu248  O264    1.964   .     S
Cu248  O268    1.964   .     S
Cu248  O262    1.964   .     S
N269   C271    1.445   .     S
N269   H270    1.032   .     S
C271   H274    1.111   .     S
C271   H488    1.109   .     S
C271   H489    1.110   .     S
N275   H276    1.032   .     S
N275   C277    1.447   .     S
C277   H280    1.111   .     S
C277   H278    1.112   .     S
C277   H279    1.110   .     S
C281   N282    1.158   .     T
C283   N284    1.158   .     T
C285   N286    1.158   .     T
C287   N288    1.158   .     T
C289   O336    1.296   .     A
C289   O333    1.297   .     A
C289   C298    1.450   .     S
C290   O335    1.296   .     A
C290   O334    1.297   .     A
C290   C297    1.450   .     S
C291   C316    1.399   .     A
C291   H325    1.085   .     S
C291   C965    1.399   1_554 S
C292   C315    1.399   .     A
C292   H326    1.084   .     S
C292   C966    1.399   .     S
C293   C298    1.401   .     A
C293   H327    1.083   .     S
C294   C297    1.401   .     A
C294   H328    1.083   .     S
C294   C368    1.383   .     S
C295   C297    1.401   .     A
C295   H329    1.083   .     S
C295   C365    1.383   .     S
C296   H330    1.083   .     S
C296   C298    1.401   .     A
C299   N332    1.372   .     A
C299   C353    1.444   .     S
C300   N331    1.372   .     A
C300   C355    1.444   .     S
C300   C517    1.426   .     S
C301   C357    1.444   .     S
C301   N332    1.372   .     A
C302   C359    1.444   .     S
C302   N331    1.372   .     A
C302   C515    1.426   .     S
C303   O337    1.299   .     A
C303   O340    1.299   .     A
C303   C308    1.458   .     S
C304   O339    1.298   .     A
C304   C307    1.458   .     S
C304   O338    1.299   .     A
C305   H321    1.082   .     S
C305   C307    1.398   .     A
C305   C315    1.392   .     A
C306   H322    1.083   .     S
C306   C308    1.399   .     A
C306   C316    1.392   .     A
C307   C309    1.399   .     A
C308   C310    1.400   .     A
C309   H323    1.083   .     S
C309   C311    1.399   .     A
C310   C312    1.400   .     A
C310   H324    1.083   .     S
C311   C317    1.412   .     A
C311   C313    1.416   .     A
C312   C314    1.416   .     A
C312   C318    1.413   .     A
C313   C315    1.411   .     A
C313   C962    1.403   .     S
C314   C316    1.411   .     A
C314   C961    1.403   1_554 S
C317   N341    1.424   .     S
C317   C939    1.399   .     S
C318   N347    1.424   .     S
C318   C940    1.399   1_554 S
Cu319  Cu320   2.696   .     S
Cu319  O335    1.964   .     S
Cu319  N331    2.026   .     S
Cu319  O337    1.967   .     S
Cu319  O333    1.964   .     S
Cu319  O339    1.964   .     S
Cu320  O338    1.967   .     S
Cu320  N332    2.026   .     S
Cu320  O336    1.964   .     S
Cu320  O340    1.964   .     S
Cu320  O334    1.964   .     S
N341   C343    1.445   .     S
N341   H342    1.032   .     S
C343   H346    1.111   .     S
C343   H560    1.109   .     S
C343   H561    1.110   .     S
N347   H348    1.032   .     S
N347   C349    1.447   .     S
C349   H352    1.111   .     S
C349   H350    1.112   .     S
C349   H351    1.110   .     S
C353   N354    1.158   .     T
C355   N356    1.158   .     T
C357   N358    1.158   .     T
C359   N360    1.158   .     T
C361   O408    1.296   .     A
C361   O405    1.297   .     A
C361   C370    1.450   .     S
C362   O407    1.296   .     A
C362   O406    1.297   .     A
C362   C369    1.450   .     S
C363   C388    1.399   .     A
C363   H397    1.085   .     S
C363   C1037   1.399   1_554 S
C364   C387    1.399   .     A
C364   H398    1.084   .     S
C364   C1038   1.399   .     S
C365   C370    1.401   .     A
C365   H399    1.083   .     S
C366   C369    1.401   .     A
C366   H400    1.083   .     S
C366   C224    1.383   1_655 S
C367   C369    1.401   .     A
C367   H401    1.083   .     S
C367   C221    1.383   1_655 S
C368   H402    1.083   .     S
C368   C370    1.401   .     A
C371   N404    1.372   .     A
C371   C425    1.444   .     S
C372   N403    1.372   .     A
C372   C427    1.444   .     S
C372   C589    1.426   .     S
C373   C429    1.444   .     S
C373   N404    1.372   .     A
C374   C431    1.444   .     S
C374   N403    1.372   .     A
C374   C587    1.426   .     S
C375   O409    1.299   .     A
C375   O412    1.299   .     A
C375   C380    1.458   .     S
C376   O411    1.298   .     A
C376   C379    1.458   .     S
C376   O410    1.299   .     A
C377   H393    1.082   .     S
C377   C379    1.398   .     A
C377   C387    1.392   .     A
C378   H394    1.083   .     S
C378   C380    1.399   .     A
C378   C388    1.392   .     A
C379   C381    1.399   .     A
C380   C382    1.400   .     A
C381   H395    1.083   .     S
C381   C383    1.399   .     A
C382   C384    1.400   .     A
C382   H396    1.083   .     S
C383   C389    1.412   .     A
C383   C385    1.416   .     A
C384   C386    1.416   .     A
C384   C390    1.413   .     A
C385   C387    1.411   .     A
C385   C1034   1.403   .     S
C386   C388    1.411   .     A
C386   C1033   1.403   1_554 S
C389   N413    1.424   .     S
C389   C1011   1.399   .     S
C390   N419    1.424   .     S
C390   C1012   1.399   1_554 S
Cu391  Cu392   2.696   .     S
Cu391  O407    1.964   .     S
Cu391  N403    2.026   .     S
Cu391  O409    1.967   .     S
Cu391  O405    1.964   .     S
Cu391  O411    1.964   .     S
Cu392  O410    1.967   .     S
Cu392  N404    2.026   .     S
Cu392  O408    1.964   .     S
Cu392  O412    1.964   .     S
Cu392  O406    1.964   .     S
N413   C415    1.445   .     S
N413   H414    1.032   .     S
C415   H418    1.111   .     S
C415   H632    1.109   .     S
C415   H633    1.110   .     S
N419   H420    1.032   .     S
N419   C421    1.447   .     S
C421   H424    1.111   .     S
C421   H422    1.112   .     S
C421   H423    1.110   .     S
C425   N426    1.158   .     T
C427   N428    1.158   .     T
C429   N430    1.158   .     T
C431   N432    1.158   .     T
C433   O480    1.296   .     A
C433   O477    1.297   .     A
C433   C442    1.450   .     S
C434   O479    1.296   .     A
C434   O478    1.297   .     A
C434   C441    1.450   .     S
C435   C460    1.399   .     A
C435   H469    1.085   .     S
C435   C1109   1.399   1_554 S
C436   C459    1.399   .     A
C436   H470    1.084   .     S
C436   C1110   1.399   .     S
C437   C442    1.401   .     A
C437   H471    1.083   .     S
C437   C583    1.383   1_455 S
C438   C441    1.401   .     A
C438   H472    1.083   .     S
C438   C512    1.383   .     S
C439   C441    1.401   .     A
C439   H473    1.083   .     S
C439   C509    1.383   .     S
C440   H474    1.083   .     S
C440   C442    1.401   .     A
C440   C582    1.383   1_455 S
C443   N476    1.372   .     A
C443   C497    1.444   .     S
C444   N475    1.372   .     A
C444   C499    1.444   .     S
C444   C13     1.426   1_565 S
C445   C501    1.444   .     S
C445   N476    1.372   .     A
C446   C503    1.444   .     S
C446   N475    1.372   .     A
C446   C11     1.426   1_565 S
C447   O481    1.299   .     A
C447   O484    1.299   .     A
C447   C452    1.458   .     S
C448   O483    1.298   .     A
C448   C451    1.458   .     S
C448   O482    1.299   .     A
C449   H465    1.082   .     S
C449   C451    1.398   .     A
C449   C459    1.392   .     A
C450   H466    1.083   .     S
C450   C452    1.399   .     A
C450   C460    1.392   .     A
C451   C453    1.399   .     A
C452   C454    1.400   .     A
C453   H467    1.083   .     S
C453   C455    1.399   .     A
C454   C456    1.400   .     A
C454   H468    1.083   .     S
C455   C461    1.412   .     A
C455   C457    1.416   .     A
C456   C458    1.416   .     A
C456   C462    1.413   .     A
C457   C459    1.411   .     A
C457   C1106   1.403   .     S
C458   C460    1.411   .     A
C458   C1105   1.403   1_554 S
C461   N485    1.424   .     S
C461   C1083   1.399   .     S
C462   N491    1.424   .     S
C462   C1084   1.399   1_554 S
Cu463  Cu464   2.696   .     S
Cu463  O479    1.964   .     S
Cu463  N475    2.026   .     S
Cu463  O481    1.967   .     S
Cu463  O477    1.964   .     S
Cu463  O483    1.964   .     S
Cu464  O482    1.967   .     S
Cu464  N476    2.026   .     S
Cu464  O480    1.964   .     S
Cu464  O484    1.964   .     S
Cu464  O478    1.964   .     S
N485   C487    1.445   .     S
N485   H486    1.032   .     S
C487   H490    1.111   .     S
C487   H56     1.109   1_565 S
C487   H57     1.110   1_565 S
N491   H492    1.032   .     S
N491   C493    1.447   .     S
C493   H496    1.111   .     S
C493   H494    1.112   .     S
C493   H495    1.110   .     S
C497   N498    1.158   .     T
C499   N500    1.158   .     T
C501   N502    1.158   .     T
C503   N504    1.158   .     T
C505   O552    1.296   .     A
C505   O549    1.297   .     A
C505   C514    1.450   .     S
C506   O551    1.296   .     A
C506   O550    1.297   .     A
C506   C513    1.450   .     S
C507   C532    1.399   .     A
C507   H541    1.085   .     S
C507   C1181   1.399   1_554 S
C508   C531    1.399   .     A
C508   H542    1.084   .     S
C508   C1182   1.399   .     S
C509   C514    1.401   .     A
C509   H543    1.083   .     S
C510   C513    1.401   .     A
C510   H544    1.083   .     S
C510   C584    1.383   .     S
C511   C513    1.401   .     A
C511   H545    1.083   .     S
C511   C581    1.383   .     S
C512   H546    1.083   .     S
C512   C514    1.401   .     A
C515   N548    1.372   .     A
C515   C569    1.444   .     S
C516   N547    1.372   .     A
C516   C571    1.444   .     S
C516   C85     1.426   1_565 S
C517   C573    1.444   .     S
C517   N548    1.372   .     A
C518   C575    1.444   .     S
C518   N547    1.372   .     A
C518   C83     1.426   1_565 S
C519   O553    1.299   .     A
C519   O556    1.299   .     A
C519   C524    1.458   .     S
C520   O555    1.298   .     A
C520   C523    1.458   .     S
C520   O554    1.299   .     A
C521   H537    1.082   .     S
C521   C523    1.398   .     A
C521   C531    1.392   .     A
C522   H538    1.083   .     S
C522   C524    1.399   .     A
C522   C532    1.392   .     A
C523   C525    1.399   .     A
C524   C526    1.400   .     A
C525   H539    1.083   .     S
C525   C527    1.399   .     A
C526   C528    1.400   .     A
C526   H540    1.083   .     S
C527   C533    1.412   .     A
C527   C529    1.416   .     A
C528   C530    1.416   .     A
C528   C534    1.413   .     A
C529   C531    1.411   .     A
C529   C1178   1.403   .     S
C530   C532    1.411   .     A
C530   C1177   1.403   1_554 S
C533   N557    1.424   .     S
C533   C1155   1.399   .     S
C534   N563    1.424   .     S
C534   C1156   1.399   1_554 S
Cu535  Cu536   2.696   .     S
Cu535  O551    1.964   .     S
Cu535  N547    2.026   .     S
Cu535  O553    1.967   .     S
Cu535  O549    1.964   .     S
Cu535  O555    1.964   .     S
Cu536  O554    1.967   .     S
Cu536  N548    2.026   .     S
Cu536  O552    1.964   .     S
Cu536  O556    1.964   .     S
Cu536  O550    1.964   .     S
N557   C559    1.445   .     S
N557   H558    1.032   .     S
C559   H562    1.111   .     S
C559   H128    1.109   1_565 S
C559   H129    1.110   1_565 S
N563   H564    1.032   .     S
N563   C565    1.447   .     S
C565   H568    1.111   .     S
C565   H566    1.112   .     S
C565   H567    1.110   .     S
C569   N570    1.158   .     T
C571   N572    1.158   .     T
C573   N574    1.158   .     T
C575   N576    1.158   .     T
C577   O624    1.296   .     A
C577   O621    1.297   .     A
C577   C586    1.450   .     S
C578   O623    1.296   .     A
C578   O622    1.297   .     A
C578   C585    1.450   .     S
C579   C604    1.399   .     A
C579   H613    1.085   .     S
C579   C1253   1.399   1_554 S
C580   C603    1.399   .     A
C580   H614    1.084   .     S
C580   C1254   1.399   .     S
C581   C586    1.401   .     A
C581   H615    1.083   .     S
C582   C585    1.401   .     A
C582   H616    1.083   .     S
C582   C440    1.383   1_655 S
C583   C585    1.401   .     A
C583   H617    1.083   .     S
C583   C437    1.383   1_655 S
C584   H618    1.083   .     S
C584   C586    1.401   .     A
C587   N620    1.372   .     A
C587   C641    1.444   .     S
C588   N619    1.372   .     A
C588   C643    1.444   .     S
C588   C157    1.426   1_565 S
C589   C645    1.444   .     S
C589   N620    1.372   .     A
C590   C647    1.444   .     S
C590   N619    1.372   .     A
C590   C155    1.426   1_565 S
C591   O625    1.299   .     A
C591   O628    1.299   .     A
C591   C596    1.458   .     S
C592   O627    1.298   .     A
C592   C595    1.458   .     S
C592   O626    1.299   .     A
C593   H609    1.082   .     S
C593   C595    1.398   .     A
C593   C603    1.392   .     A
C594   H610    1.083   .     S
C594   C596    1.399   .     A
C594   C604    1.392   .     A
C595   C597    1.399   .     A
C596   C598    1.400   .     A
C597   H611    1.083   .     S
C597   C599    1.399   .     A
C598   C600    1.400   .     A
C598   H612    1.083   .     S
C599   C605    1.412   .     A
C599   C601    1.416   .     A
C600   C602    1.416   .     A
C600   C606    1.413   .     A
C601   C603    1.411   .     A
C601   C1250   1.403   .     S
C602   C604    1.411   .     A
C602   C1249   1.403   1_554 S
C605   N629    1.424   .     S
C605   C1227   1.399   .     S
C606   N635    1.424   .     S
C606   C1228   1.399   1_554 S
Cu607  Cu608   2.696   .     S
Cu607  O623    1.964   .     S
Cu607  N619    2.026   .     S
Cu607  O625    1.967   .     S
Cu607  O621    1.964   .     S
Cu607  O627    1.964   .     S
Cu608  O626    1.967   .     S
Cu608  N620    2.026   .     S
Cu608  O624    1.964   .     S
Cu608  O628    1.964   .     S
Cu608  O622    1.964   .     S
N629   C631    1.445   .     S
N629   H630    1.032   .     S
C631   H634    1.111   .     S
C631   H200    1.109   1_565 S
C631   H201    1.110   1_565 S
N635   H636    1.032   .     S
N635   C637    1.447   .     S
C637   H640    1.111   .     S
C637   H638    1.112   .     S
C637   H639    1.110   .     S
C641   N642    1.158   .     T
C643   N644    1.158   .     T
C645   N646    1.158   .     T
C647   N648    1.158   .     T
C649   O696    1.296   .     A
C649   O693    1.297   .     A
C649   C658    1.450   .     S
C650   O695    1.296   .     A
C650   O694    1.297   .     A
C650   C657    1.450   .     S
C651   C676    1.399   .     A
C651   H685    1.085   .     S
C652   C675    1.399   .     A
C652   H686    1.084   .     S
C652   C30     1.399   1_556 S
C653   C658    1.401   .     A
C653   H687    1.083   .     S
C653   C799    1.383   1_455 S
C654   C657    1.401   .     A
C654   H688    1.083   .     S
C654   C728    1.383   .     S
C655   C657    1.401   .     A
C655   H689    1.083   .     S
C655   C725    1.383   .     S
C656   H690    1.083   .     S
C656   C658    1.401   .     A
C656   C798    1.383   1_455 S
C659   N692    1.372   .     A
C659   C713    1.444   .     S
C659   C1094   1.426   1_545 S
C660   N691    1.372   .     A
C660   C715    1.444   .     S
C660   C877    1.426   .     S
C661   C717    1.444   .     S
C661   N692    1.372   .     A
C661   C1092   1.426   1_545 S
C662   C719    1.444   .     S
C662   N691    1.372   .     A
C662   C875    1.426   .     S
C663   O697    1.299   .     A
C663   O700    1.299   .     A
C663   C668    1.458   .     S
C664   O699    1.298   .     A
C664   C667    1.458   .     S
C664   O698    1.299   .     A
C665   H681    1.082   .     S
C665   C667    1.398   .     A
C665   C675    1.392   .     A
C666   H682    1.083   .     S
C666   C668    1.399   .     A
C666   C676    1.392   .     A
C667   C669    1.399   .     A
C668   C670    1.400   .     A
C669   H683    1.083   .     S
C669   C671    1.399   .     A
C670   C672    1.400   .     A
C670   H684    1.083   .     S
C671   C677    1.412   .     A
C671   C673    1.416   .     A
C672   C674    1.416   .     A
C672   C678    1.413   .     A
C673   C675    1.411   .     A
C673   C26     1.403   1_556 S
C674   C676    1.411   .     A
C677   N701    1.424   .     S
C677   C3      1.399   1_556 S
C678   N707    1.424   .     S
Cu679  Cu680   2.696   .     S
Cu679  O695    1.964   .     S
Cu679  N691    2.026   .     S
Cu679  O697    1.967   .     S
Cu679  O693    1.964   .     S
Cu679  O699    1.964   .     S
Cu680  O698    1.967   .     S
Cu680  N692    2.026   .     S
Cu680  O696    1.964   .     S
Cu680  O700    1.964   .     S
Cu680  O694    1.964   .     S
N701   C703    1.445   .     S
N701   H702    1.032   .     S
C703   H706    1.111   .     S
C703   H920    1.109   .     S
C703   H921    1.110   .     S
H704   C1135   1.109   1_545 S
H705   C1135   1.110   1_545 S
N707   H708    1.032   .     S
N707   C709    1.447   .     S
C709   H712    1.111   .     S
C709   H710    1.112   .     S
C709   H711    1.110   .     S
C713   N714    1.158   .     T
C715   N716    1.158   .     T
C717   N718    1.158   .     T
C719   N720    1.158   .     T
C721   O768    1.296   .     A
C721   O765    1.297   .     A
C721   C730    1.450   .     S
C722   O767    1.296   .     A
C722   O766    1.297   .     A
C722   C729    1.450   .     S
C723   C748    1.399   .     A
C723   H757    1.085   .     S
C724   C747    1.399   .     A
C724   H758    1.084   .     S
C724   C102    1.399   1_556 S
C725   C730    1.401   .     A
C725   H759    1.083   .     S
C726   C729    1.401   .     A
C726   H760    1.083   .     S
C726   C800    1.383   .     S
C727   C729    1.401   .     A
C727   H761    1.083   .     S
C727   C797    1.383   .     S
C728   H762    1.083   .     S
C728   C730    1.401   .     A
C731   N764    1.372   .     A
C731   C785    1.444   .     S
C731   C1166   1.426   1_545 S
C732   N763    1.372   .     A
C732   C787    1.444   .     S
C732   C949    1.426   .     S
C733   C789    1.444   .     S
C733   N764    1.372   .     A
C733   C1164   1.426   1_545 S
C734   C791    1.444   .     S
C734   N763    1.372   .     A
C734   C947    1.426   .     S
C735   O769    1.299   .     A
C735   O772    1.299   .     A
C735   C740    1.458   .     S
C736   O771    1.298   .     A
C736   C739    1.458   .     S
C736   O770    1.299   .     A
C737   H753    1.082   .     S
C737   C739    1.398   .     A
C737   C747    1.392   .     A
C738   H754    1.083   .     S
C738   C740    1.399   .     A
C738   C748    1.392   .     A
C739   C741    1.399   .     A
C740   C742    1.400   .     A
C741   H755    1.083   .     S
C741   C743    1.399   .     A
C742   C744    1.400   .     A
C742   H756    1.083   .     S
C743   C749    1.412   .     A
C743   C745    1.416   .     A
C744   C746    1.416   .     A
C744   C750    1.413   .     A
C745   C747    1.411   .     A
C745   C98     1.403   1_556 S
C746   C748    1.411   .     A
C749   N773    1.424   .     S
C749   C75     1.399   1_556 S
C750   N779    1.424   .     S
Cu751  Cu752   2.696   .     S
Cu751  O767    1.964   .     S
Cu751  N763    2.026   .     S
Cu751  O769    1.967   .     S
Cu751  O765    1.964   .     S
Cu751  O771    1.964   .     S
Cu752  O770    1.967   .     S
Cu752  N764    2.026   .     S
Cu752  O768    1.964   .     S
Cu752  O772    1.964   .     S
Cu752  O766    1.964   .     S
N773   C775    1.445   .     S
N773   H774    1.032   .     S
C775   H778    1.111   .     S
C775   H992    1.109   .     S
C775   H993    1.110   .     S
H776   C1207   1.109   1_545 S
H777   C1207   1.110   1_545 S
N779   H780    1.032   .     S
N779   C781    1.447   .     S
C781   H784    1.111   .     S
C781   H782    1.112   .     S
C781   H783    1.110   .     S
C785   N786    1.158   .     T
C787   N788    1.158   .     T
C789   N790    1.158   .     T
C791   N792    1.158   .     T
C793   O840    1.296   .     A
C793   O837    1.297   .     A
C793   C802    1.450   .     S
C794   O839    1.296   .     A
C794   O838    1.297   .     A
C794   C801    1.450   .     S
C795   C820    1.399   .     A
C795   H829    1.085   .     S
C796   C819    1.399   .     A
C796   H830    1.084   .     S
C796   C174    1.399   1_556 S
C797   C802    1.401   .     A
C797   H831    1.083   .     S
C798   C801    1.401   .     A
C798   H832    1.083   .     S
C798   C656    1.383   1_655 S
C799   C801    1.401   .     A
C799   H833    1.083   .     S
C799   C653    1.383   1_655 S
C800   H834    1.083   .     S
C800   C802    1.401   .     A
C803   N836    1.372   .     A
C803   C857    1.444   .     S
C803   C1238   1.426   1_545 S
C804   N835    1.372   .     A
C804   C859    1.444   .     S
C804   C1021   1.426   .     S
C805   C861    1.444   .     S
C805   N836    1.372   .     A
C805   C1236   1.426   1_545 S
C806   C863    1.444   .     S
C806   N835    1.372   .     A
C806   C1019   1.426   .     S
C807   O841    1.299   .     A
C807   O844    1.299   .     A
C807   C812    1.458   .     S
C808   O843    1.298   .     A
C808   C811    1.458   .     S
C808   O842    1.299   .     A
C809   H825    1.082   .     S
C809   C811    1.398   .     A
C809   C819    1.392   .     A
C810   H826    1.083   .     S
C810   C812    1.399   .     A
C810   C820    1.392   .     A
C811   C813    1.399   .     A
C812   C814    1.400   .     A
C813   H827    1.083   .     S
C813   C815    1.399   .     A
C814   C816    1.400   .     A
C814   H828    1.083   .     S
C815   C821    1.412   .     A
C815   C817    1.416   .     A
C816   C818    1.416   .     A
C816   C822    1.413   .     A
C817   C819    1.411   .     A
C817   C170    1.403   1_556 S
C818   C820    1.411   .     A
C821   N845    1.424   .     S
C821   C147    1.399   1_556 S
C822   N851    1.424   .     S
Cu823  Cu824   2.696   .     S
Cu823  O839    1.964   .     S
Cu823  N835    2.026   .     S
Cu823  O841    1.967   .     S
Cu823  O837    1.964   .     S
Cu823  O843    1.964   .     S
Cu824  O842    1.967   .     S
Cu824  N836    2.026   .     S
Cu824  O840    1.964   .     S
Cu824  O844    1.964   .     S
Cu824  O838    1.964   .     S
N845   C847    1.445   .     S
N845   H846    1.032   .     S
C847   H850    1.111   .     S
C847   H1064   1.109   .     S
C847   H1065   1.110   .     S
H848   C1279   1.109   1_545 S
H849   C1279   1.110   1_545 S
N851   H852    1.032   .     S
N851   C853    1.447   .     S
C853   H856    1.111   .     S
C853   H854    1.112   .     S
C853   H855    1.110   .     S
C857   N858    1.158   .     T
C859   N860    1.158   .     T
C861   N862    1.158   .     T
C863   N864    1.158   .     T
C865   O912    1.296   .     A
C865   O909    1.297   .     A
C865   C874    1.450   .     S
C866   O911    1.296   .     A
C866   O910    1.297   .     A
C866   C873    1.450   .     S
C867   C892    1.399   .     A
C867   H901    1.085   .     S
C868   C891    1.399   .     A
C868   H902    1.084   .     S
C868   C246    1.399   1_556 S
C869   C874    1.401   .     A
C869   H903    1.083   .     S
C869   C1015   1.383   1_455 S
C870   C873    1.401   .     A
C870   H904    1.083   .     S
C870   C944    1.383   .     S
C871   C873    1.401   .     A
C871   H905    1.083   .     S
C871   C941    1.383   .     S
C872   H906    1.083   .     S
C872   C874    1.401   .     A
C872   C1014   1.383   1_455 S
C875   N908    1.372   .     A
C875   C929    1.444   .     S
C876   N907    1.372   .     A
C876   C931    1.444   .     S
C876   C1093   1.426   .     S
C877   C933    1.444   .     S
C877   N908    1.372   .     A
C878   C935    1.444   .     S
C878   N907    1.372   .     A
C878   C1091   1.426   .     S
C879   O913    1.299   .     A
C879   O916    1.299   .     A
C879   C884    1.458   .     S
C880   O915    1.298   .     A
C880   C883    1.458   .     S
C880   O914    1.299   .     A
C881   H897    1.082   .     S
C881   C883    1.398   .     A
C881   C891    1.392   .     A
C882   H898    1.083   .     S
C882   C884    1.399   .     A
C882   C892    1.392   .     A
C883   C885    1.399   .     A
C884   C886    1.400   .     A
C885   H899    1.083   .     S
C885   C887    1.399   .     A
C886   C888    1.400   .     A
C886   H900    1.083   .     S
C887   C893    1.412   .     A
C887   C889    1.416   .     A
C888   C890    1.416   .     A
C888   C894    1.413   .     A
C889   C891    1.411   .     A
C889   C242    1.403   1_556 S
C890   C892    1.411   .     A
C893   N917    1.424   .     S
C893   C219    1.399   1_556 S
C894   N923    1.424   .     S
Cu895  Cu896   2.696   .     S
Cu895  O911    1.964   .     S
Cu895  N907    2.026   .     S
Cu895  O913    1.967   .     S
Cu895  O909    1.964   .     S
Cu895  O915    1.964   .     S
Cu896  O914    1.967   .     S
Cu896  N908    2.026   .     S
Cu896  O912    1.964   .     S
Cu896  O916    1.964   .     S
Cu896  O910    1.964   .     S
N917   C919    1.445   .     S
N917   H918    1.032   .     S
C919   H922    1.111   .     S
C919   H1136   1.109   .     S
C919   H1137   1.110   .     S
N923   H924    1.032   .     S
N923   C925    1.447   .     S
C925   H928    1.111   .     S
C925   H926    1.112   .     S
C925   H927    1.110   .     S
C929   N930    1.158   .     T
C931   N932    1.158   .     T
C933   N934    1.158   .     T
C935   N936    1.158   .     T
C937   O984    1.296   .     A
C937   O981    1.297   .     A
C937   C946    1.450   .     S
C938   O983    1.296   .     A
C938   O982    1.297   .     A
C938   C945    1.450   .     S
C939   C964    1.399   .     A
C939   H973    1.085   .     S
C940   C963    1.399   .     A
C940   H974    1.084   .     S
C940   C318    1.399   1_556 S
C941   C946    1.401   .     A
C941   H975    1.083   .     S
C942   C945    1.401   .     A
C942   H976    1.083   .     S
C942   C1016   1.383   .     S
C943   C945    1.401   .     A
C943   H977    1.083   .     S
C943   C1013   1.383   .     S
C944   H978    1.083   .     S
C944   C946    1.401   .     A
C947   N980    1.372   .     A
C947   C1001   1.444   .     S
C948   N979    1.372   .     A
C948   C1003   1.444   .     S
C948   C1165   1.426   .     S
C949   C1005   1.444   .     S
C949   N980    1.372   .     A
C950   C1007   1.444   .     S
C950   N979    1.372   .     A
C950   C1163   1.426   .     S
C951   O985    1.299   .     A
C951   O988    1.299   .     A
C951   C956    1.458   .     S
C952   O987    1.298   .     A
C952   C955    1.458   .     S
C952   O986    1.299   .     A
C953   H969    1.082   .     S
C953   C955    1.398   .     A
C953   C963    1.392   .     A
C954   H970    1.083   .     S
C954   C956    1.399   .     A
C954   C964    1.392   .     A
C955   C957    1.399   .     A
C956   C958    1.400   .     A
C957   H971    1.083   .     S
C957   C959    1.399   .     A
C958   C960    1.400   .     A
C958   H972    1.083   .     S
C959   C965    1.412   .     A
C959   C961    1.416   .     A
C960   C962    1.416   .     A
C960   C966    1.413   .     A
C961   C963    1.411   .     A
C961   C314    1.403   1_556 S
C962   C964    1.411   .     A
C965   N989    1.424   .     S
C965   C291    1.399   1_556 S
C966   N995    1.424   .     S
Cu967  Cu968   2.696   .     S
Cu967  O983    1.964   .     S
Cu967  N979    2.026   .     S
Cu967  O985    1.967   .     S
Cu967  O981    1.964   .     S
Cu967  O987    1.964   .     S
Cu968  O986    1.967   .     S
Cu968  N980    2.026   .     S
Cu968  O984    1.964   .     S
Cu968  O988    1.964   .     S
Cu968  O982    1.964   .     S
N989   C991    1.445   .     S
N989   H990    1.032   .     S
C991   H994    1.111   .     S
C991   H1208   1.109   .     S
C991   H1209   1.110   .     S
N995   H996    1.032   .     S
N995   C997    1.447   .     S
C997   H1000   1.111   .     S
C997   H998    1.112   .     S
C997   H999    1.110   .     S
C1001  N1002   1.158   .     T
C1003  N1004   1.158   .     T
C1005  N1006   1.158   .     T
C1007  N1008   1.158   .     T
C1009  O1056   1.296   .     A
C1009  O1053   1.297   .     A
C1009  C1018   1.450   .     S
C1010  O1055   1.296   .     A
C1010  O1054   1.297   .     A
C1010  C1017   1.450   .     S
C1011  C1036   1.399   .     A
C1011  H1045   1.085   .     S
C1012  C1035   1.399   .     A
C1012  H1046   1.084   .     S
C1012  C390    1.399   1_556 S
C1013  C1018   1.401   .     A
C1013  H1047   1.083   .     S
C1014  C1017   1.401   .     A
C1014  H1048   1.083   .     S
C1014  C872    1.383   1_655 S
C1015  C1017   1.401   .     A
C1015  H1049   1.083   .     S
C1015  C869    1.383   1_655 S
C1016  H1050   1.083   .     S
C1016  C1018   1.401   .     A
C1019  N1052   1.372   .     A
C1019  C1073   1.444   .     S
C1020  N1051   1.372   .     A
C1020  C1075   1.444   .     S
C1020  C1237   1.426   .     S
C1021  C1077   1.444   .     S
C1021  N1052   1.372   .     A
C1022  C1079   1.444   .     S
C1022  N1051   1.372   .     A
C1022  C1235   1.426   .     S
C1023  O1057   1.299   .     A
C1023  O1060   1.299   .     A
C1023  C1028   1.458   .     S
C1024  O1059   1.298   .     A
C1024  C1027   1.458   .     S
C1024  O1058   1.299   .     A
C1025  H1041   1.082   .     S
C1025  C1027   1.398   .     A
C1025  C1035   1.392   .     A
C1026  H1042   1.083   .     S
C1026  C1028   1.399   .     A
C1026  C1036   1.392   .     A
C1027  C1029   1.399   .     A
C1028  C1030   1.400   .     A
C1029  H1043   1.083   .     S
C1029  C1031   1.399   .     A
C1030  C1032   1.400   .     A
C1030  H1044   1.083   .     S
C1031  C1037   1.412   .     A
C1031  C1033   1.416   .     A
C1032  C1034   1.416   .     A
C1032  C1038   1.413   .     A
C1033  C1035   1.411   .     A
C1033  C386    1.403   1_556 S
C1034  C1036   1.411   .     A
C1037  N1061   1.424   .     S
C1037  C363    1.399   1_556 S
C1038  N1067   1.424   .     S
Cu1039 Cu1040  2.696   .     S
Cu1039 O1055   1.964   .     S
Cu1039 N1051   2.026   .     S
Cu1039 O1057   1.967   .     S
Cu1039 O1053   1.964   .     S
Cu1039 O1059   1.964   .     S
Cu1040 O1058   1.967   .     S
Cu1040 N1052   2.026   .     S
Cu1040 O1056   1.964   .     S
Cu1040 O1060   1.964   .     S
Cu1040 O1054   1.964   .     S
N1061  C1063   1.445   .     S
N1061  H1062   1.032   .     S
C1063  H1066   1.111   .     S
C1063  H1280   1.109   .     S
C1063  H1281   1.110   .     S
N1067  H1068   1.032   .     S
N1067  C1069   1.447   .     S
C1069  H1072   1.111   .     S
C1069  H1070   1.112   .     S
C1069  H1071   1.110   .     S
C1073  N1074   1.158   .     T
C1075  N1076   1.158   .     T
C1077  N1078   1.158   .     T
C1079  N1080   1.158   .     T
C1081  O1128   1.296   .     A
C1081  O1125   1.297   .     A
C1081  C1090   1.450   .     S
C1082  O1127   1.296   .     A
C1082  O1126   1.297   .     A
C1082  C1089   1.450   .     S
C1083  C1108   1.399   .     A
C1083  H1117   1.085   .     S
C1084  C1107   1.399   .     A
C1084  H1118   1.084   .     S
C1084  C462    1.399   1_556 S
C1085  C1090   1.401   .     A
C1085  H1119   1.083   .     S
C1085  C1231   1.383   1_455 S
C1086  C1089   1.401   .     A
C1086  H1120   1.083   .     S
C1086  C1160   1.383   .     S
C1087  C1089   1.401   .     A
C1087  H1121   1.083   .     S
C1087  C1157   1.383   .     S
C1088  H1122   1.083   .     S
C1088  C1090   1.401   .     A
C1088  C1230   1.383   1_455 S
C1091  N1124   1.372   .     A
C1091  C1145   1.444   .     S
C1092  N1123   1.372   .     A
C1092  C1147   1.444   .     S
C1092  C661    1.426   1_565 S
C1093  C1149   1.444   .     S
C1093  N1124   1.372   .     A
C1094  C1151   1.444   .     S
C1094  N1123   1.372   .     A
C1094  C659    1.426   1_565 S
C1095  O1129   1.299   .     A
C1095  O1132   1.299   .     A
C1095  C1100   1.458   .     S
C1096  O1131   1.298   .     A
C1096  C1099   1.458   .     S
C1096  O1130   1.299   .     A
C1097  H1113   1.082   .     S
C1097  C1099   1.398   .     A
C1097  C1107   1.392   .     A
C1098  H1114   1.083   .     S
C1098  C1100   1.399   .     A
C1098  C1108   1.392   .     A
C1099  C1101   1.399   .     A
C1100  C1102   1.400   .     A
C1101  H1115   1.083   .     S
C1101  C1103   1.399   .     A
C1102  C1104   1.400   .     A
C1102  H1116   1.083   .     S
C1103  C1109   1.412   .     A
C1103  C1105   1.416   .     A
C1104  C1106   1.416   .     A
C1104  C1110   1.413   .     A
C1105  C1107   1.411   .     A
C1105  C458    1.403   1_556 S
C1106  C1108   1.411   .     A
C1109  N1133   1.424   .     S
C1109  C435    1.399   1_556 S
C1110  N1139   1.424   .     S
Cu1111 Cu1112  2.696   .     S
Cu1111 O1127   1.964   .     S
Cu1111 N1123   2.026   .     S
Cu1111 O1129   1.967   .     S
Cu1111 O1125   1.964   .     S
Cu1111 O1131   1.964   .     S
Cu1112 O1130   1.967   .     S
Cu1112 N1124   2.026   .     S
Cu1112 O1128   1.964   .     S
Cu1112 O1132   1.964   .     S
Cu1112 O1126   1.964   .     S
N1133  C1135   1.445   .     S
N1133  H1134   1.032   .     S
C1135  H1138   1.111   .     S
C1135  H704    1.109   1_565 S
C1135  H705    1.110   1_565 S
N1139  H1140   1.032   .     S
N1139  C1141   1.447   .     S
C1141  H1144   1.111   .     S
C1141  H1142   1.112   .     S
C1141  H1143   1.110   .     S
C1145  N1146   1.158   .     T
C1147  N1148   1.158   .     T
C1149  N1150   1.158   .     T
C1151  N1152   1.158   .     T
C1153  O1200   1.296   .     A
C1153  O1197   1.297   .     A
C1153  C1162   1.450   .     S
C1154  O1199   1.296   .     A
C1154  O1198   1.297   .     A
C1154  C1161   1.450   .     S
C1155  C1180   1.399   .     A
C1155  H1189   1.085   .     S
C1156  C1179   1.399   .     A
C1156  H1190   1.084   .     S
C1156  C534    1.399   1_556 S
C1157  C1162   1.401   .     A
C1157  H1191   1.083   .     S
C1158  C1161   1.401   .     A
C1158  H1192   1.083   .     S
C1158  C1232   1.383   .     S
C1159  C1161   1.401   .     A
C1159  H1193   1.083   .     S
C1159  C1229   1.383   .     S
C1160  H1194   1.083   .     S
C1160  C1162   1.401   .     A
C1163  N1196   1.372   .     A
C1163  C1217   1.444   .     S
C1164  N1195   1.372   .     A
C1164  C1219   1.444   .     S
C1164  C733    1.426   1_565 S
C1165  C1221   1.444   .     S
C1165  N1196   1.372   .     A
C1166  C1223   1.444   .     S
C1166  N1195   1.372   .     A
C1166  C731    1.426   1_565 S
C1167  O1201   1.299   .     A
C1167  O1204   1.299   .     A
C1167  C1172   1.458   .     S
C1168  O1203   1.298   .     A
C1168  C1171   1.458   .     S
C1168  O1202   1.299   .     A
C1169  H1185   1.082   .     S
C1169  C1171   1.398   .     A
C1169  C1179   1.392   .     A
C1170  H1186   1.083   .     S
C1170  C1172   1.399   .     A
C1170  C1180   1.392   .     A
C1171  C1173   1.399   .     A
C1172  C1174   1.400   .     A
C1173  H1187   1.083   .     S
C1173  C1175   1.399   .     A
C1174  C1176   1.400   .     A
C1174  H1188   1.083   .     S
C1175  C1181   1.412   .     A
C1175  C1177   1.416   .     A
C1176  C1178   1.416   .     A
C1176  C1182   1.413   .     A
C1177  C1179   1.411   .     A
C1177  C530    1.403   1_556 S
C1178  C1180   1.411   .     A
C1181  N1205   1.424   .     S
C1181  C507    1.399   1_556 S
C1182  N1211   1.424   .     S
Cu1183 Cu1184  2.696   .     S
Cu1183 O1199   1.964   .     S
Cu1183 N1195   2.026   .     S
Cu1183 O1201   1.967   .     S
Cu1183 O1197   1.964   .     S
Cu1183 O1203   1.964   .     S
Cu1184 O1202   1.967   .     S
Cu1184 N1196   2.026   .     S
Cu1184 O1200   1.964   .     S
Cu1184 O1204   1.964   .     S
Cu1184 O1198   1.964   .     S
N1205  C1207   1.445   .     S
N1205  H1206   1.032   .     S
C1207  H1210   1.111   .     S
C1207  H776    1.109   1_565 S
C1207  H777    1.110   1_565 S
N1211  H1212   1.032   .     S
N1211  C1213   1.447   .     S
C1213  H1216   1.111   .     S
C1213  H1214   1.112   .     S
C1213  H1215   1.110   .     S
C1217  N1218   1.158   .     T
C1219  N1220   1.158   .     T
C1221  N1222   1.158   .     T
C1223  N1224   1.158   .     T
C1225  O1272   1.296   .     A
C1225  O1269   1.297   .     A
C1225  C1234   1.450   .     S
C1226  O1271   1.296   .     A
C1226  O1270   1.297   .     A
C1226  C1233   1.450   .     S
C1227  C1252   1.399   .     A
C1227  H1261   1.085   .     S
C1228  C1251   1.399   .     A
C1228  H1262   1.084   .     S
C1228  C606    1.399   1_556 S
C1229  C1234   1.401   .     A
C1229  H1263   1.083   .     S
C1230  C1233   1.401   .     A
C1230  H1264   1.083   .     S
C1230  C1088   1.383   1_655 S
C1231  C1233   1.401   .     A
C1231  H1265   1.083   .     S
C1231  C1085   1.383   1_655 S
C1232  H1266   1.083   .     S
C1232  C1234   1.401   .     A
C1235  N1268   1.372   .     A
C1235  C1289   1.444   .     S
C1236  N1267   1.372   .     A
C1236  C1291   1.444   .     S
C1236  C805    1.426   1_565 S
C1237  C1293   1.444   .     S
C1237  N1268   1.372   .     A
C1238  C1295   1.444   .     S
C1238  N1267   1.372   .     A
C1238  C803    1.426   1_565 S
C1239  O1273   1.299   .     A
C1239  O1276   1.299   .     A
C1239  C1244   1.458   .     S
C1240  O1275   1.298   .     A
C1240  C1243   1.458   .     S
C1240  O1274   1.299   .     A
C1241  H1257   1.082   .     S
C1241  C1243   1.398   .     A
C1241  C1251   1.392   .     A
C1242  H1258   1.083   .     S
C1242  C1244   1.399   .     A
C1242  C1252   1.392   .     A
C1243  C1245   1.399   .     A
C1244  C1246   1.400   .     A
C1245  H1259   1.083   .     S
C1245  C1247   1.399   .     A
C1246  C1248   1.400   .     A
C1246  H1260   1.083   .     S
C1247  C1253   1.412   .     A
C1247  C1249   1.416   .     A
C1248  C1250   1.416   .     A
C1248  C1254   1.413   .     A
C1249  C1251   1.411   .     A
C1249  C602    1.403   1_556 S
C1250  C1252   1.411   .     A
C1253  N1277   1.424   .     S
C1253  C579    1.399   1_556 S
C1254  N1283   1.424   .     S
Cu1255 Cu1256  2.696   .     S
Cu1255 O1271   1.964   .     S
Cu1255 N1267   2.026   .     S
Cu1255 O1273   1.967   .     S
Cu1255 O1269   1.964   .     S
Cu1255 O1275   1.964   .     S
Cu1256 O1274   1.967   .     S
Cu1256 N1268   2.026   .     S
Cu1256 O1272   1.964   .     S
Cu1256 O1276   1.964   .     S
Cu1256 O1270   1.964   .     S
N1277  C1279   1.445   .     S
N1277  H1278   1.032   .     S
C1279  H1282   1.111   .     S
C1279  H848    1.109   1_565 S
C1279  H849    1.110   1_565 S
N1283  H1284   1.032   .     S
N1283  C1285   1.447   .     S
C1285  H1288   1.111   .     S
C1285  H1286   1.112   .     S
C1285  H1287   1.110   .     S
C1289  N1290   1.158   .     T
C1291  N1292   1.158   .     T
C1293  N1294   1.158   .     T
C1295  N1296   1.158   .     T
