data_str_m2_o1_o18_pcu_sym.89
_audit_creation_date              2020-01-03
_audit_creation_method            'Materials Studio'
_symmetry_space_group_name_H-M    'P1'
_symmetry_Int_Tables_number       1
_symmetry_cell_setting            triclinic
loop_
_symmetry_equiv_pos_as_xyz
  x,y,z
_cell_length_a                    28.8647
_cell_length_b                    32.4068
_cell_length_c                    31.3388
_cell_angle_alpha                 88.8597
_cell_angle_beta                  73.3195
_cell_angle_gamma                 90.9654
loop_
_atom_site_label
_atom_site_type_symbol
_atom_site_fract_x
_atom_site_fract_y
_atom_site_fract_z
_atom_site_U_iso_or_equiv
_atom_site_adp_type
_atom_site_occupancy
C1     C     0.33308   0.08747   0.25004   0.00000  Uiso   1.00
C2     C     0.03584   0.02171   0.26268   0.00000  Uiso   1.00
C3     C     0.00045   0.29054   0.24965   0.00000  Uiso   1.00
C4     C     0.33301   0.04281   0.25003   0.00000  Uiso   1.00
C5     C     0.18239   0.13728   0.27416   0.00000  Uiso   1.00
C6     C     0.15100   0.19603   0.22573   0.00000  Uiso   1.00
C7     C     0.13335   0.13770   0.27368   0.00000  Uiso   1.00
C8     C     0.20018   0.19547   0.22592   0.00000  Uiso   1.00
C9     C     0.30571   0.16495   0.33572   0.00000  Uiso   1.00
C10    C     0.02743   0.16538   0.16424   0.00000  Uiso   1.00
C11    C     0.28961   0.15871   0.38422   0.00000  Uiso   1.00
C12    C     0.00029   0.24586   0.24985   0.00000  Uiso   1.00
C13    C     0.04246   0.16241   0.11543   0.00000  Uiso   1.00
C14    C     0.30155   0.13342   0.45330   0.00000  Uiso   1.00
C15    C     0.02438   0.16231   0.04475   0.00000  Uiso   1.00
C16    C     0.31828   0.13809   0.40714   0.00000  Uiso   1.00
C17    C     0.00887   0.15564   0.09091   0.00000  Uiso   1.00
C18    C     0.24248   0.16968   0.40727   0.00000  Uiso   1.00
C19    C     0.09175   0.16599   0.09277   0.00000  Uiso   1.00
C20    C     0.22312   0.16034   0.45292   0.00000  Uiso   1.00
C21    C     0.10818   0.16415   0.04620   0.00000  Uiso   1.00
C22    C     0.25455   0.14460   0.47627   0.00000  Uiso   1.00
C23    C     0.19115   0.14704   0.04550   0.00000  Uiso   1.00
C24    C     0.07375   0.16632   0.02215   0.00000  Uiso   1.00
C25    C     0.17333   0.16506   0.47588   0.00000  Uiso   1.00
C26    C     0.15772   0.15998   0.02309   0.00000  Uiso   1.00
C27    C     0.28972   0.10484   0.13172   0.00000  Uiso   1.00
C28    C     0.27504   0.07236   0.10299   0.00000  Uiso   1.00
C29    C     0.27158   0.02926   0.12440   0.00000  Uiso   1.00
C30    C     0.02128   0.08189   0.36991   0.00000  Uiso   1.00
C31    C     0.01953   0.04840   0.40564   0.00000  Uiso   1.00
C32    C     0.01975   0.00531   0.38676   0.00000  Uiso   1.00
C33    C     0.19562   0.10218   0.30031   0.00000  Uiso   1.00
C34    C     0.13814   0.17127   0.45303   0.00000  Uiso   1.00
C35    C     0.13769   0.23121   0.19976   0.00000  Uiso   1.00
C36    C     0.23823   0.13847   0.02213   0.00000  Uiso   1.00
C37    C     0.08908   0.17081   0.47584   0.00000  Uiso   1.00
C38    C     0.29742   0.02100   0.23689   0.00000  Uiso   1.00
C39    C     0.03602   0.31237   0.26280   0.00000  Uiso   1.00
C40    C     0.29780   0.31165   0.23666   0.00000  Uiso   1.00
Cu41   Cu    0.04689   0.16667   0.25000   0.00000  Uiso   1.00
Cu42   Cu    0.28645   0.16666   0.25000   0.00000  Uiso   1.00
H43    H     0.26188   0.12628   0.04000   0.00000  Uiso   1.00
H44    H     0.06349   0.29657   0.27375   0.00000  Uiso   1.00
H45    H     0.27022   0.29524   0.22600   0.00000  Uiso   1.00
H46    H     0.06377   0.03808   0.27283   0.00000  Uiso   1.00
H47    H     0.10798   0.11436   0.29193   0.00000  Uiso   1.00
H48    H     0.22590   0.21854   0.20704   0.00000  Uiso   1.00
H49    H     0.26081   0.10575   0.16395   0.00000  Uiso   1.00
H50    H     0.32302   0.09463   0.13980   0.00000  Uiso   1.00
H51    H     0.23910   0.07984   0.09895   0.00000  Uiso   1.00
H52    H     0.30222   0.07237   0.06967   0.00000  Uiso   1.00
H53    H     0.30688   0.02072   0.12924   0.00000  Uiso   1.00
H54    H     0.06302   0.17328   0.45704   0.00000  Uiso   1.00
H55    H     0.26161   0.00640   0.10242   0.00000  Uiso   1.00
H56    H     0.24334   0.02809   0.15709   0.00000  Uiso   1.00
H57    H     0.05232   0.07566   0.34076   0.00000  Uiso   1.00
H58    H     0.32171   0.07957   0.35804   0.00000  Uiso   1.00
H59    H     0.05137   0.05230   0.41855   0.00000  Uiso   1.00
H60    H     0.31946   0.05123   0.43375   0.00000  Uiso   1.00
H61    H     0.32160   0.00080   0.37349   0.00000  Uiso   1.00
H62    H     0.01746   0.31504   0.41351   0.00000  Uiso   1.00
H63    H     0.05367   0.00088   0.35962   0.00000  Uiso   1.00
H64    H     0.16295   0.08762   0.32411   0.00000  Uiso   1.00
H65    H     0.11705   0.17104   0.11177   0.00000  Uiso   1.00
H66    H     0.21286   0.07770   0.27740   0.00000  Uiso   1.00
H67    H     0.21867   0.11215   0.32083   0.00000  Uiso   1.00
H68    H     0.17028   0.24571   0.17581   0.00000  Uiso   1.00
H69    H     0.11437   0.22136   0.17945   0.00000  Uiso   1.00
H70    H     0.12066   0.25568   0.22277   0.00000  Uiso   1.00
H71    H     0.22147   0.18564   0.38894   0.00000  Uiso   1.00
H72    H     0.32449   0.11872   0.47078   0.00000  Uiso   1.00
H73    H     0.33146   0.16293   0.02635   0.00000  Uiso   1.00
H74    H     0.18093   0.14002   0.08082   0.00000  Uiso   1.00
H75    H     0.14715   0.17342   0.41719   0.00000  Uiso   1.00
H76    H     0.26986   0.03686   0.22616   0.00000  Uiso   1.00
N77    N     0.11736   0.16668   0.24999   0.00000  Uiso   1.00
N78    N     0.21597   0.16666   0.25001   0.00000  Uiso   1.00
O79    O     0.03958   0.10655   0.25000   0.00000  Uiso   1.00
O80    O     0.02903   0.12172   0.38496   0.00000  Uiso   1.00
O81    O     0.29375   0.22678   0.25000   0.00000  Uiso   1.00
O82    O     0.29372   0.10654   0.25000   0.00000  Uiso   1.00
O83    O     0.03961   0.22679   0.24999   0.00000  Uiso   1.00
O84    O     0.01852   0.16668   0.31491   0.00000  Uiso   1.00
O85    O     0.31481   0.16666   0.18508   0.00000  Uiso   1.00
O86    O     0.27267   0.16667   0.31492   0.00000  Uiso   1.00
O87    O     0.06067   0.16667   0.18508   0.00000  Uiso   1.00
O88    O     0.29395   0.14482   0.11102   0.00000  Uiso   1.00
C89    C     0.66641   0.08747   0.25004   0.00000  Uiso   1.00
C90    C     0.36918   0.02171   0.26268   0.00000  Uiso   1.00
C91    C     0.33378   0.29054   0.24965   0.00000  Uiso   1.00
C92    C     0.66634   0.04281   0.25003   0.00000  Uiso   1.00
C93    C     0.51572   0.13728   0.27416   0.00000  Uiso   1.00
C94    C     0.48433   0.19603   0.22573   0.00000  Uiso   1.00
C95    C     0.46668   0.13770   0.27368   0.00000  Uiso   1.00
C96    C     0.53352   0.19547   0.22592   0.00000  Uiso   1.00
C97    C     0.63905   0.16495   0.33572   0.00000  Uiso   1.00
C98    C     0.36076   0.16538   0.16424   0.00000  Uiso   1.00
C99    C     0.62295   0.15871   0.38422   0.00000  Uiso   1.00
C100   C     0.33363   0.24586   0.24985   0.00000  Uiso   1.00
C101   C     0.37580   0.16241   0.11543   0.00000  Uiso   1.00
C102   C     0.63489   0.13342   0.45330   0.00000  Uiso   1.00
C103   C     0.35771   0.16231   0.04475   0.00000  Uiso   1.00
C104   C     0.65162   0.13809   0.40714   0.00000  Uiso   1.00
C105   C     0.34220   0.15564   0.09091   0.00000  Uiso   1.00
C106   C     0.57581   0.16968   0.40727   0.00000  Uiso   1.00
C107   C     0.42508   0.16599   0.09277   0.00000  Uiso   1.00
C108   C     0.55645   0.16034   0.45292   0.00000  Uiso   1.00
C109   C     0.44151   0.16415   0.04620   0.00000  Uiso   1.00
C110   C     0.58788   0.14460   0.47627   0.00000  Uiso   1.00
C111   C     0.52448   0.14704   0.04550   0.00000  Uiso   1.00
C112   C     0.40709   0.16632   0.02215   0.00000  Uiso   1.00
C113   C     0.50667   0.16506   0.47588   0.00000  Uiso   1.00
C114   C     0.49105   0.15998   0.02309   0.00000  Uiso   1.00
C115   C     0.62305   0.10484   0.13172   0.00000  Uiso   1.00
C116   C     0.60837   0.07236   0.10299   0.00000  Uiso   1.00
C117   C     0.60491   0.02926   0.12440   0.00000  Uiso   1.00
C118   C     0.35461   0.08189   0.36991   0.00000  Uiso   1.00
C119   C     0.35287   0.04840   0.40564   0.00000  Uiso   1.00
C120   C     0.35308   0.00531   0.38676   0.00000  Uiso   1.00
C121   C     0.52895   0.10218   0.30031   0.00000  Uiso   1.00
C122   C     0.47147   0.17127   0.45303   0.00000  Uiso   1.00
C123   C     0.47102   0.23121   0.19976   0.00000  Uiso   1.00
C124   C     0.57156   0.13847   0.02213   0.00000  Uiso   1.00
C125   C     0.42241   0.17081   0.47584   0.00000  Uiso   1.00
C126   C     0.63076   0.02100   0.23689   0.00000  Uiso   1.00
C127   C     0.36936   0.31237   0.26280   0.00000  Uiso   1.00
C128   C     0.63114   0.31165   0.23666   0.00000  Uiso   1.00
Cu129  Cu    0.38022   0.16667   0.25000   0.00000  Uiso   1.00
Cu130  Cu    0.61978   0.16666   0.25000   0.00000  Uiso   1.00
H131   H     0.59521   0.12628   0.04000   0.00000  Uiso   1.00
H132   H     0.39682   0.29657   0.27375   0.00000  Uiso   1.00
H133   H     0.60355   0.29524   0.22600   0.00000  Uiso   1.00
H134   H     0.39710   0.03808   0.27283   0.00000  Uiso   1.00
H135   H     0.44131   0.11436   0.29193   0.00000  Uiso   1.00
H136   H     0.55923   0.21854   0.20704   0.00000  Uiso   1.00
H137   H     0.59414   0.10575   0.16395   0.00000  Uiso   1.00
H138   H     0.65636   0.09463   0.13980   0.00000  Uiso   1.00
H139   H     0.57243   0.07984   0.09895   0.00000  Uiso   1.00
H140   H     0.63556   0.07237   0.06967   0.00000  Uiso   1.00
H141   H     0.64021   0.02072   0.12924   0.00000  Uiso   1.00
H142   H     0.39635   0.17328   0.45704   0.00000  Uiso   1.00
H143   H     0.59495   0.00640   0.10242   0.00000  Uiso   1.00
H144   H     0.57668   0.02809   0.15709   0.00000  Uiso   1.00
H145   H     0.38566   0.07566   0.34076   0.00000  Uiso   1.00
H146   H     0.65505   0.07957   0.35804   0.00000  Uiso   1.00
H147   H     0.38471   0.05230   0.41855   0.00000  Uiso   1.00
H148   H     0.65280   0.05123   0.43375   0.00000  Uiso   1.00
H149   H     0.65494   0.00080   0.37349   0.00000  Uiso   1.00
H150   H     0.35079   0.31504   0.41351   0.00000  Uiso   1.00
H151   H     0.38700   0.00088   0.35962   0.00000  Uiso   1.00
H152   H     0.49629   0.08762   0.32411   0.00000  Uiso   1.00
H153   H     0.45038   0.17104   0.11177   0.00000  Uiso   1.00
H154   H     0.54620   0.07770   0.27740   0.00000  Uiso   1.00
H155   H     0.55200   0.11215   0.32083   0.00000  Uiso   1.00
H156   H     0.50361   0.24571   0.17581   0.00000  Uiso   1.00
H157   H     0.44770   0.22136   0.17945   0.00000  Uiso   1.00
H158   H     0.45399   0.25568   0.22277   0.00000  Uiso   1.00
H159   H     0.55480   0.18564   0.38894   0.00000  Uiso   1.00
H160   H     0.65783   0.11872   0.47078   0.00000  Uiso   1.00
H161   H     0.66479   0.16293   0.02635   0.00000  Uiso   1.00
H162   H     0.51427   0.14002   0.08082   0.00000  Uiso   1.00
H163   H     0.48048   0.17342   0.41719   0.00000  Uiso   1.00
H164   H     0.60320   0.03686   0.22616   0.00000  Uiso   1.00
N165   N     0.45069   0.16668   0.24999   0.00000  Uiso   1.00
N166   N     0.54931   0.16666   0.25001   0.00000  Uiso   1.00
O167   O     0.37291   0.10655   0.25000   0.00000  Uiso   1.00
O168   O     0.36237   0.12172   0.38496   0.00000  Uiso   1.00
O169   O     0.62709   0.22678   0.25000   0.00000  Uiso   1.00
O170   O     0.62706   0.10654   0.25000   0.00000  Uiso   1.00
O171   O     0.37294   0.22679   0.24999   0.00000  Uiso   1.00
O172   O     0.35186   0.16668   0.31491   0.00000  Uiso   1.00
O173   O     0.64814   0.16666   0.18508   0.00000  Uiso   1.00
O174   O     0.60600   0.16667   0.31492   0.00000  Uiso   1.00
O175   O     0.39400   0.16667   0.18508   0.00000  Uiso   1.00
O176   O     0.62729   0.14482   0.11102   0.00000  Uiso   1.00
C177   C     0.99974   0.08747   0.25004   0.00000  Uiso   1.00
C178   C     0.70251   0.02171   0.26268   0.00000  Uiso   1.00
C179   C     0.66712   0.29054   0.24965   0.00000  Uiso   1.00
C180   C     0.99967   0.04281   0.25003   0.00000  Uiso   1.00
C181   C     0.84905   0.13728   0.27416   0.00000  Uiso   1.00
C182   C     0.81767   0.19603   0.22573   0.00000  Uiso   1.00
C183   C     0.80002   0.13770   0.27368   0.00000  Uiso   1.00
C184   C     0.86685   0.19547   0.22592   0.00000  Uiso   1.00
C185   C     0.97238   0.16495   0.33572   0.00000  Uiso   1.00
C186   C     0.69410   0.16538   0.16424   0.00000  Uiso   1.00
C187   C     0.95628   0.15871   0.38422   0.00000  Uiso   1.00
C188   C     0.66696   0.24586   0.24985   0.00000  Uiso   1.00
C189   C     0.70913   0.16241   0.11543   0.00000  Uiso   1.00
C190   C     0.96822   0.13342   0.45330   0.00000  Uiso   1.00
C191   C     0.69104   0.16231   0.04475   0.00000  Uiso   1.00
C192   C     0.98495   0.13809   0.40714   0.00000  Uiso   1.00
C193   C     0.67553   0.15564   0.09091   0.00000  Uiso   1.00
C194   C     0.90915   0.16968   0.40727   0.00000  Uiso   1.00
C195   C     0.75842   0.16599   0.09277   0.00000  Uiso   1.00
C196   C     0.88978   0.16034   0.45292   0.00000  Uiso   1.00
C197   C     0.77484   0.16415   0.04620   0.00000  Uiso   1.00
C198   C     0.92122   0.14460   0.47627   0.00000  Uiso   1.00
C199   C     0.85782   0.14704   0.04550   0.00000  Uiso   1.00
C200   C     0.74042   0.16632   0.02215   0.00000  Uiso   1.00
C201   C     0.84000   0.16506   0.47588   0.00000  Uiso   1.00
C202   C     0.82438   0.15998   0.02309   0.00000  Uiso   1.00
C203   C     0.95638   0.10484   0.13172   0.00000  Uiso   1.00
C204   C     0.94170   0.07236   0.10299   0.00000  Uiso   1.00
C205   C     0.93825   0.02926   0.12440   0.00000  Uiso   1.00
C206   C     0.68794   0.08189   0.36991   0.00000  Uiso   1.00
C207   C     0.68620   0.04840   0.40564   0.00000  Uiso   1.00
C208   C     0.68641   0.00531   0.38676   0.00000  Uiso   1.00
C209   C     0.86229   0.10218   0.30031   0.00000  Uiso   1.00
C210   C     0.80481   0.17127   0.45303   0.00000  Uiso   1.00
C211   C     0.80436   0.23121   0.19976   0.00000  Uiso   1.00
C212   C     0.90489   0.13847   0.02213   0.00000  Uiso   1.00
C213   C     0.75575   0.17081   0.47584   0.00000  Uiso   1.00
C214   C     0.96409   0.02100   0.23689   0.00000  Uiso   1.00
C215   C     0.70269   0.31237   0.26280   0.00000  Uiso   1.00
C216   C     0.96447   0.31165   0.23666   0.00000  Uiso   1.00
Cu217  Cu    0.71355   0.16667   0.25000   0.00000  Uiso   1.00
Cu218  Cu    0.95311   0.16666   0.25000   0.00000  Uiso   1.00
H219   H     0.92855   0.12628   0.04000   0.00000  Uiso   1.00
H220   H     0.73016   0.29657   0.27375   0.00000  Uiso   1.00
H221   H     0.93689   0.29524   0.22600   0.00000  Uiso   1.00
H222   H     0.73043   0.03808   0.27283   0.00000  Uiso   1.00
H223   H     0.77464   0.11436   0.29193   0.00000  Uiso   1.00
H224   H     0.89257   0.21854   0.20704   0.00000  Uiso   1.00
H225   H     0.92748   0.10575   0.16395   0.00000  Uiso   1.00
H226   H     0.98969   0.09463   0.13980   0.00000  Uiso   1.00
H227   H     0.90576   0.07984   0.09895   0.00000  Uiso   1.00
H228   H     0.96889   0.07237   0.06967   0.00000  Uiso   1.00
H229   H     0.97354   0.02072   0.12924   0.00000  Uiso   1.00
H230   H     0.72969   0.17328   0.45704   0.00000  Uiso   1.00
H231   H     0.92828   0.00640   0.10242   0.00000  Uiso   1.00
H232   H     0.91001   0.02809   0.15709   0.00000  Uiso   1.00
H233   H     0.71899   0.07566   0.34076   0.00000  Uiso   1.00
H234   H     0.98838   0.07957   0.35804   0.00000  Uiso   1.00
H235   H     0.71804   0.05230   0.41855   0.00000  Uiso   1.00
H236   H     0.98613   0.05123   0.43375   0.00000  Uiso   1.00
H237   H     0.98827   0.00080   0.37349   0.00000  Uiso   1.00
H238   H     0.68412   0.31504   0.41351   0.00000  Uiso   1.00
H239   H     0.72033   0.00088   0.35962   0.00000  Uiso   1.00
H240   H     0.82962   0.08762   0.32411   0.00000  Uiso   1.00
H241   H     0.78371   0.17104   0.11177   0.00000  Uiso   1.00
H242   H     0.87953   0.07770   0.27740   0.00000  Uiso   1.00
H243   H     0.88534   0.11215   0.32083   0.00000  Uiso   1.00
H244   H     0.83695   0.24571   0.17581   0.00000  Uiso   1.00
H245   H     0.78103   0.22136   0.17945   0.00000  Uiso   1.00
H246   H     0.78732   0.25568   0.22277   0.00000  Uiso   1.00
H247   H     0.88813   0.18564   0.38894   0.00000  Uiso   1.00
H248   H     0.99116   0.11872   0.47078   0.00000  Uiso   1.00
H249   H     0.99813   0.16293   0.02635   0.00000  Uiso   1.00
H250   H     0.84760   0.14002   0.08082   0.00000  Uiso   1.00
H251   H     0.81381   0.17342   0.41719   0.00000  Uiso   1.00
H252   H     0.93653   0.03686   0.22616   0.00000  Uiso   1.00
N253   N     0.78403   0.16668   0.24999   0.00000  Uiso   1.00
N254   N     0.88264   0.16666   0.25001   0.00000  Uiso   1.00
O255   O     0.70625   0.10655   0.25000   0.00000  Uiso   1.00
O256   O     0.69570   0.12172   0.38496   0.00000  Uiso   1.00
O257   O     0.96042   0.22678   0.25000   0.00000  Uiso   1.00
O258   O     0.96039   0.10654   0.25000   0.00000  Uiso   1.00
O259   O     0.70628   0.22679   0.24999   0.00000  Uiso   1.00
O260   O     0.68519   0.16668   0.31491   0.00000  Uiso   1.00
O261   O     0.98148   0.16666   0.18508   0.00000  Uiso   1.00
O262   O     0.93933   0.16667   0.31492   0.00000  Uiso   1.00
O263   O     0.72733   0.16667   0.18508   0.00000  Uiso   1.00
O264   O     0.96062   0.14482   0.11102   0.00000  Uiso   1.00
C265   C     0.33308   0.42081   0.25004   0.00000  Uiso   1.00
C266   C     0.03584   0.35504   0.26268   0.00000  Uiso   1.00
C267   C     0.00045   0.62387   0.24965   0.00000  Uiso   1.00
C268   C     0.33301   0.37615   0.25003   0.00000  Uiso   1.00
C269   C     0.18239   0.47061   0.27416   0.00000  Uiso   1.00
C270   C     0.15100   0.52936   0.22573   0.00000  Uiso   1.00
C271   C     0.13335   0.47103   0.27368   0.00000  Uiso   1.00
C272   C     0.20018   0.52880   0.22592   0.00000  Uiso   1.00
C273   C     0.30571   0.49829   0.33572   0.00000  Uiso   1.00
C274   C     0.02743   0.49871   0.16424   0.00000  Uiso   1.00
C275   C     0.28961   0.49204   0.38422   0.00000  Uiso   1.00
C276   C     0.00029   0.57920   0.24985   0.00000  Uiso   1.00
C277   C     0.04246   0.49574   0.11543   0.00000  Uiso   1.00
C278   C     0.30155   0.46675   0.45330   0.00000  Uiso   1.00
C279   C     0.02438   0.49565   0.04475   0.00000  Uiso   1.00
C280   C     0.31828   0.47142   0.40714   0.00000  Uiso   1.00
C281   C     0.00887   0.48898   0.09091   0.00000  Uiso   1.00
C282   C     0.24248   0.50301   0.40727   0.00000  Uiso   1.00
C283   C     0.09175   0.49932   0.09277   0.00000  Uiso   1.00
C284   C     0.22312   0.49368   0.45292   0.00000  Uiso   1.00
C285   C     0.10818   0.49749   0.04620   0.00000  Uiso   1.00
C286   C     0.25455   0.47793   0.47627   0.00000  Uiso   1.00
C287   C     0.19115   0.48038   0.04550   0.00000  Uiso   1.00
C288   C     0.07375   0.49965   0.02215   0.00000  Uiso   1.00
C289   C     0.17333   0.49839   0.47588   0.00000  Uiso   1.00
C290   C     0.15772   0.49331   0.02309   0.00000  Uiso   1.00
C291   C     0.28972   0.43817   0.13172   0.00000  Uiso   1.00
C292   C     0.27504   0.40570   0.10299   0.00000  Uiso   1.00
C293   C     0.27158   0.36260   0.12440   0.00000  Uiso   1.00
C294   C     0.02128   0.41523   0.36991   0.00000  Uiso   1.00
C295   C     0.01953   0.38174   0.40564   0.00000  Uiso   1.00
C296   C     0.01975   0.33864   0.38676   0.00000  Uiso   1.00
C297   C     0.19562   0.43551   0.30031   0.00000  Uiso   1.00
C298   C     0.13814   0.50460   0.45303   0.00000  Uiso   1.00
C299   C     0.13769   0.56454   0.19976   0.00000  Uiso   1.00
C300   C     0.23823   0.47180   0.02213   0.00000  Uiso   1.00
C301   C     0.08908   0.50414   0.47584   0.00000  Uiso   1.00
C302   C     0.29742   0.35433   0.23689   0.00000  Uiso   1.00
C303   C     0.03602   0.64570   0.26280   0.00000  Uiso   1.00
C304   C     0.29780   0.64498   0.23666   0.00000  Uiso   1.00
Cu305  Cu    0.04689   0.50001   0.25000   0.00000  Uiso   1.00
Cu306  Cu    0.28645   0.49999   0.25000   0.00000  Uiso   1.00
H307   H     0.26188   0.45961   0.04000   0.00000  Uiso   1.00
H308   H     0.06349   0.62990   0.27375   0.00000  Uiso   1.00
H309   H     0.27022   0.62857   0.22600   0.00000  Uiso   1.00
H310   H     0.06377   0.37141   0.27283   0.00000  Uiso   1.00
H311   H     0.10798   0.44770   0.29193   0.00000  Uiso   1.00
H312   H     0.22590   0.55188   0.20704   0.00000  Uiso   1.00
H313   H     0.26081   0.43908   0.16395   0.00000  Uiso   1.00
H314   H     0.32302   0.42796   0.13980   0.00000  Uiso   1.00
H315   H     0.23910   0.41317   0.09895   0.00000  Uiso   1.00
H316   H     0.30222   0.40570   0.06967   0.00000  Uiso   1.00
H317   H     0.30688   0.35405   0.12924   0.00000  Uiso   1.00
H318   H     0.06302   0.50661   0.45704   0.00000  Uiso   1.00
H319   H     0.26161   0.33974   0.10242   0.00000  Uiso   1.00
H320   H     0.24334   0.36143   0.15709   0.00000  Uiso   1.00
H321   H     0.05232   0.40899   0.34076   0.00000  Uiso   1.00
H322   H     0.32171   0.41291   0.35804   0.00000  Uiso   1.00
H323   H     0.05137   0.38563   0.41855   0.00000  Uiso   1.00
H324   H     0.31946   0.38456   0.43375   0.00000  Uiso   1.00
H325   H     0.32160   0.33413   0.37349   0.00000  Uiso   1.00
H326   H     0.01746   0.64837   0.41351   0.00000  Uiso   1.00
H327   H     0.05367   0.33421   0.35962   0.00000  Uiso   1.00
H328   H     0.16295   0.42096   0.32411   0.00000  Uiso   1.00
H329   H     0.11705   0.50438   0.11177   0.00000  Uiso   1.00
H330   H     0.21286   0.41103   0.27740   0.00000  Uiso   1.00
H331   H     0.21867   0.44548   0.32083   0.00000  Uiso   1.00
H332   H     0.17028   0.57905   0.17581   0.00000  Uiso   1.00
H333   H     0.11437   0.55470   0.17945   0.00000  Uiso   1.00
H334   H     0.12066   0.58901   0.22277   0.00000  Uiso   1.00
H335   H     0.22147   0.51897   0.38894   0.00000  Uiso   1.00
H336   H     0.32449   0.45205   0.47078   0.00000  Uiso   1.00
H337   H     0.33146   0.49626   0.02635   0.00000  Uiso   1.00
H338   H     0.18093   0.47336   0.08082   0.00000  Uiso   1.00
H339   H     0.14715   0.50676   0.41719   0.00000  Uiso   1.00
H340   H     0.26986   0.37019   0.22616   0.00000  Uiso   1.00
N341   N     0.11736   0.50001   0.24999   0.00000  Uiso   1.00
N342   N     0.21597   0.49999   0.25001   0.00000  Uiso   1.00
O343   O     0.03958   0.43989   0.25000   0.00000  Uiso   1.00
O344   O     0.02903   0.45505   0.38496   0.00000  Uiso   1.00
O345   O     0.29375   0.56011   0.25000   0.00000  Uiso   1.00
O346   O     0.29372   0.43988   0.25000   0.00000  Uiso   1.00
O347   O     0.03961   0.56012   0.24999   0.00000  Uiso   1.00
O348   O     0.01852   0.50001   0.31491   0.00000  Uiso   1.00
O349   O     0.31481   0.49999   0.18508   0.00000  Uiso   1.00
O350   O     0.27267   0.50000   0.31492   0.00000  Uiso   1.00
O351   O     0.06067   0.50000   0.18508   0.00000  Uiso   1.00
O352   O     0.29395   0.47815   0.11102   0.00000  Uiso   1.00
C353   C     0.66641   0.42081   0.25004   0.00000  Uiso   1.00
C354   C     0.36918   0.35504   0.26268   0.00000  Uiso   1.00
C355   C     0.33378   0.62387   0.24965   0.00000  Uiso   1.00
C356   C     0.66634   0.37615   0.25003   0.00000  Uiso   1.00
C357   C     0.51572   0.47061   0.27416   0.00000  Uiso   1.00
C358   C     0.48433   0.52936   0.22573   0.00000  Uiso   1.00
C359   C     0.46668   0.47103   0.27368   0.00000  Uiso   1.00
C360   C     0.53352   0.52880   0.22592   0.00000  Uiso   1.00
C361   C     0.63905   0.49829   0.33572   0.00000  Uiso   1.00
C362   C     0.36076   0.49871   0.16424   0.00000  Uiso   1.00
C363   C     0.62295   0.49204   0.38422   0.00000  Uiso   1.00
C364   C     0.33363   0.57920   0.24985   0.00000  Uiso   1.00
C365   C     0.37580   0.49574   0.11543   0.00000  Uiso   1.00
C366   C     0.63489   0.46675   0.45330   0.00000  Uiso   1.00
C367   C     0.35771   0.49565   0.04475   0.00000  Uiso   1.00
C368   C     0.65162   0.47142   0.40714   0.00000  Uiso   1.00
C369   C     0.34220   0.48898   0.09091   0.00000  Uiso   1.00
C370   C     0.57581   0.50301   0.40727   0.00000  Uiso   1.00
C371   C     0.42508   0.49932   0.09277   0.00000  Uiso   1.00
C372   C     0.55645   0.49368   0.45292   0.00000  Uiso   1.00
C373   C     0.44151   0.49749   0.04620   0.00000  Uiso   1.00
C374   C     0.58788   0.47793   0.47627   0.00000  Uiso   1.00
C375   C     0.52448   0.48038   0.04550   0.00000  Uiso   1.00
C376   C     0.40709   0.49965   0.02215   0.00000  Uiso   1.00
C377   C     0.50667   0.49839   0.47588   0.00000  Uiso   1.00
C378   C     0.49105   0.49331   0.02309   0.00000  Uiso   1.00
C379   C     0.62305   0.43817   0.13172   0.00000  Uiso   1.00
C380   C     0.60837   0.40570   0.10299   0.00000  Uiso   1.00
C381   C     0.60491   0.36260   0.12440   0.00000  Uiso   1.00
C382   C     0.35461   0.41523   0.36991   0.00000  Uiso   1.00
C383   C     0.35287   0.38174   0.40564   0.00000  Uiso   1.00
C384   C     0.35308   0.33864   0.38676   0.00000  Uiso   1.00
C385   C     0.52895   0.43551   0.30031   0.00000  Uiso   1.00
C386   C     0.47147   0.50460   0.45303   0.00000  Uiso   1.00
C387   C     0.47102   0.56454   0.19976   0.00000  Uiso   1.00
C388   C     0.57156   0.47180   0.02213   0.00000  Uiso   1.00
C389   C     0.42241   0.50414   0.47584   0.00000  Uiso   1.00
C390   C     0.63076   0.35433   0.23689   0.00000  Uiso   1.00
C391   C     0.36936   0.64570   0.26280   0.00000  Uiso   1.00
C392   C     0.63114   0.64498   0.23666   0.00000  Uiso   1.00
Cu393  Cu    0.38022   0.50001   0.25000   0.00000  Uiso   1.00
Cu394  Cu    0.61978   0.49999   0.25000   0.00000  Uiso   1.00
H395   H     0.59521   0.45961   0.04000   0.00000  Uiso   1.00
H396   H     0.39682   0.62990   0.27375   0.00000  Uiso   1.00
H397   H     0.60355   0.62857   0.22600   0.00000  Uiso   1.00
H398   H     0.39710   0.37141   0.27283   0.00000  Uiso   1.00
H399   H     0.44131   0.44770   0.29193   0.00000  Uiso   1.00
H400   H     0.55923   0.55188   0.20704   0.00000  Uiso   1.00
H401   H     0.59414   0.43908   0.16395   0.00000  Uiso   1.00
H402   H     0.65636   0.42796   0.13980   0.00000  Uiso   1.00
H403   H     0.57243   0.41317   0.09895   0.00000  Uiso   1.00
H404   H     0.63556   0.40570   0.06967   0.00000  Uiso   1.00
H405   H     0.64021   0.35405   0.12924   0.00000  Uiso   1.00
H406   H     0.39635   0.50661   0.45704   0.00000  Uiso   1.00
H407   H     0.59495   0.33974   0.10242   0.00000  Uiso   1.00
H408   H     0.57668   0.36143   0.15709   0.00000  Uiso   1.00
H409   H     0.38566   0.40899   0.34076   0.00000  Uiso   1.00
H410   H     0.65505   0.41291   0.35804   0.00000  Uiso   1.00
H411   H     0.38471   0.38563   0.41855   0.00000  Uiso   1.00
H412   H     0.65280   0.38456   0.43375   0.00000  Uiso   1.00
H413   H     0.65494   0.33413   0.37349   0.00000  Uiso   1.00
H414   H     0.35079   0.64837   0.41351   0.00000  Uiso   1.00
H415   H     0.38700   0.33421   0.35962   0.00000  Uiso   1.00
H416   H     0.49629   0.42096   0.32411   0.00000  Uiso   1.00
H417   H     0.45038   0.50438   0.11177   0.00000  Uiso   1.00
H418   H     0.54620   0.41103   0.27740   0.00000  Uiso   1.00
H419   H     0.55200   0.44548   0.32083   0.00000  Uiso   1.00
H420   H     0.50361   0.57905   0.17581   0.00000  Uiso   1.00
H421   H     0.44770   0.55470   0.17945   0.00000  Uiso   1.00
H422   H     0.45399   0.58901   0.22277   0.00000  Uiso   1.00
H423   H     0.55480   0.51897   0.38894   0.00000  Uiso   1.00
H424   H     0.65783   0.45205   0.47078   0.00000  Uiso   1.00
H425   H     0.66479   0.49626   0.02635   0.00000  Uiso   1.00
H426   H     0.51427   0.47336   0.08082   0.00000  Uiso   1.00
H427   H     0.48048   0.50676   0.41719   0.00000  Uiso   1.00
H428   H     0.60320   0.37019   0.22616   0.00000  Uiso   1.00
N429   N     0.45069   0.50001   0.24999   0.00000  Uiso   1.00
N430   N     0.54931   0.49999   0.25001   0.00000  Uiso   1.00
O431   O     0.37291   0.43989   0.25000   0.00000  Uiso   1.00
O432   O     0.36237   0.45505   0.38496   0.00000  Uiso   1.00
O433   O     0.62709   0.56011   0.25000   0.00000  Uiso   1.00
O434   O     0.62706   0.43988   0.25000   0.00000  Uiso   1.00
O435   O     0.37294   0.56012   0.24999   0.00000  Uiso   1.00
O436   O     0.35186   0.50001   0.31491   0.00000  Uiso   1.00
O437   O     0.64814   0.49999   0.18508   0.00000  Uiso   1.00
O438   O     0.60600   0.50000   0.31492   0.00000  Uiso   1.00
O439   O     0.39400   0.50000   0.18508   0.00000  Uiso   1.00
O440   O     0.62729   0.47815   0.11102   0.00000  Uiso   1.00
C441   C     0.99974   0.42081   0.25004   0.00000  Uiso   1.00
C442   C     0.70251   0.35504   0.26268   0.00000  Uiso   1.00
C443   C     0.66712   0.62387   0.24965   0.00000  Uiso   1.00
C444   C     0.99967   0.37615   0.25003   0.00000  Uiso   1.00
C445   C     0.84905   0.47061   0.27416   0.00000  Uiso   1.00
C446   C     0.81767   0.52936   0.22573   0.00000  Uiso   1.00
C447   C     0.80002   0.47103   0.27368   0.00000  Uiso   1.00
C448   C     0.86685   0.52880   0.22592   0.00000  Uiso   1.00
C449   C     0.97238   0.49829   0.33572   0.00000  Uiso   1.00
C450   C     0.69410   0.49871   0.16424   0.00000  Uiso   1.00
C451   C     0.95628   0.49204   0.38422   0.00000  Uiso   1.00
C452   C     0.66696   0.57920   0.24985   0.00000  Uiso   1.00
C453   C     0.70913   0.49574   0.11543   0.00000  Uiso   1.00
C454   C     0.96822   0.46675   0.45330   0.00000  Uiso   1.00
C455   C     0.69104   0.49565   0.04475   0.00000  Uiso   1.00
C456   C     0.98495   0.47142   0.40714   0.00000  Uiso   1.00
C457   C     0.67553   0.48898   0.09091   0.00000  Uiso   1.00
C458   C     0.90915   0.50301   0.40727   0.00000  Uiso   1.00
C459   C     0.75842   0.49932   0.09277   0.00000  Uiso   1.00
C460   C     0.88978   0.49368   0.45292   0.00000  Uiso   1.00
C461   C     0.77484   0.49749   0.04620   0.00000  Uiso   1.00
C462   C     0.92122   0.47793   0.47627   0.00000  Uiso   1.00
C463   C     0.85782   0.48038   0.04550   0.00000  Uiso   1.00
C464   C     0.74042   0.49965   0.02215   0.00000  Uiso   1.00
C465   C     0.84000   0.49839   0.47588   0.00000  Uiso   1.00
C466   C     0.82438   0.49331   0.02309   0.00000  Uiso   1.00
C467   C     0.95638   0.43817   0.13172   0.00000  Uiso   1.00
C468   C     0.94170   0.40570   0.10299   0.00000  Uiso   1.00
C469   C     0.93825   0.36260   0.12440   0.00000  Uiso   1.00
C470   C     0.68794   0.41523   0.36991   0.00000  Uiso   1.00
C471   C     0.68620   0.38174   0.40564   0.00000  Uiso   1.00
C472   C     0.68641   0.33864   0.38676   0.00000  Uiso   1.00
C473   C     0.86229   0.43551   0.30031   0.00000  Uiso   1.00
C474   C     0.80481   0.50460   0.45303   0.00000  Uiso   1.00
C475   C     0.80436   0.56454   0.19976   0.00000  Uiso   1.00
C476   C     0.90489   0.47180   0.02213   0.00000  Uiso   1.00
C477   C     0.75575   0.50414   0.47584   0.00000  Uiso   1.00
C478   C     0.96409   0.35433   0.23689   0.00000  Uiso   1.00
C479   C     0.70269   0.64570   0.26280   0.00000  Uiso   1.00
C480   C     0.96447   0.64498   0.23666   0.00000  Uiso   1.00
Cu481  Cu    0.71355   0.50001   0.25000   0.00000  Uiso   1.00
Cu482  Cu    0.95311   0.49999   0.25000   0.00000  Uiso   1.00
H483   H     0.92855   0.45961   0.04000   0.00000  Uiso   1.00
H484   H     0.73016   0.62990   0.27375   0.00000  Uiso   1.00
H485   H     0.93689   0.62857   0.22600   0.00000  Uiso   1.00
H486   H     0.73043   0.37141   0.27283   0.00000  Uiso   1.00
H487   H     0.77464   0.44770   0.29193   0.00000  Uiso   1.00
H488   H     0.89257   0.55188   0.20704   0.00000  Uiso   1.00
H489   H     0.92748   0.43908   0.16395   0.00000  Uiso   1.00
H490   H     0.98969   0.42796   0.13980   0.00000  Uiso   1.00
H491   H     0.90576   0.41317   0.09895   0.00000  Uiso   1.00
H492   H     0.96889   0.40570   0.06967   0.00000  Uiso   1.00
H493   H     0.97354   0.35405   0.12924   0.00000  Uiso   1.00
H494   H     0.72969   0.50661   0.45704   0.00000  Uiso   1.00
H495   H     0.92828   0.33974   0.10242   0.00000  Uiso   1.00
H496   H     0.91001   0.36143   0.15709   0.00000  Uiso   1.00
H497   H     0.71899   0.40899   0.34076   0.00000  Uiso   1.00
H498   H     0.98838   0.41291   0.35804   0.00000  Uiso   1.00
H499   H     0.71804   0.38563   0.41855   0.00000  Uiso   1.00
H500   H     0.98613   0.38456   0.43375   0.00000  Uiso   1.00
H501   H     0.98827   0.33413   0.37349   0.00000  Uiso   1.00
H502   H     0.68412   0.64837   0.41351   0.00000  Uiso   1.00
H503   H     0.72033   0.33421   0.35962   0.00000  Uiso   1.00
H504   H     0.82962   0.42096   0.32411   0.00000  Uiso   1.00
H505   H     0.78371   0.50438   0.11177   0.00000  Uiso   1.00
H506   H     0.87953   0.41103   0.27740   0.00000  Uiso   1.00
H507   H     0.88534   0.44548   0.32083   0.00000  Uiso   1.00
H508   H     0.83695   0.57905   0.17581   0.00000  Uiso   1.00
H509   H     0.78103   0.55470   0.17945   0.00000  Uiso   1.00
H510   H     0.78732   0.58901   0.22277   0.00000  Uiso   1.00
H511   H     0.88813   0.51897   0.38894   0.00000  Uiso   1.00
H512   H     0.99116   0.45205   0.47078   0.00000  Uiso   1.00
H513   H     0.99813   0.49626   0.02635   0.00000  Uiso   1.00
H514   H     0.84760   0.47336   0.08082   0.00000  Uiso   1.00
H515   H     0.81381   0.50676   0.41719   0.00000  Uiso   1.00
H516   H     0.93653   0.37019   0.22616   0.00000  Uiso   1.00
N517   N     0.78403   0.50001   0.24999   0.00000  Uiso   1.00
N518   N     0.88264   0.49999   0.25001   0.00000  Uiso   1.00
O519   O     0.70625   0.43989   0.25000   0.00000  Uiso   1.00
O520   O     0.69570   0.45505   0.38496   0.00000  Uiso   1.00
O521   O     0.96042   0.56011   0.25000   0.00000  Uiso   1.00
O522   O     0.96039   0.43988   0.25000   0.00000  Uiso   1.00
O523   O     0.70628   0.56012   0.24999   0.00000  Uiso   1.00
O524   O     0.68519   0.50001   0.31491   0.00000  Uiso   1.00
O525   O     0.98148   0.49999   0.18508   0.00000  Uiso   1.00
O526   O     0.93933   0.50000   0.31492   0.00000  Uiso   1.00
O527   O     0.72733   0.50000   0.18508   0.00000  Uiso   1.00
O528   O     0.96062   0.47815   0.11102   0.00000  Uiso   1.00
C529   C     0.33308   0.75414   0.25004   0.00000  Uiso   1.00
C530   C     0.03584   0.68837   0.26268   0.00000  Uiso   1.00
C531   C     0.00045   0.95721   0.24965   0.00000  Uiso   1.00
C532   C     0.33301   0.70948   0.25003   0.00000  Uiso   1.00
C533   C     0.18239   0.80394   0.27416   0.00000  Uiso   1.00
C534   C     0.15100   0.86269   0.22573   0.00000  Uiso   1.00
C535   C     0.13335   0.80437   0.27368   0.00000  Uiso   1.00
C536   C     0.20018   0.86213   0.22592   0.00000  Uiso   1.00
C537   C     0.30571   0.83162   0.33572   0.00000  Uiso   1.00
C538   C     0.02743   0.83204   0.16424   0.00000  Uiso   1.00
C539   C     0.28961   0.82537   0.38422   0.00000  Uiso   1.00
C540   C     0.00029   0.91253   0.24985   0.00000  Uiso   1.00
C541   C     0.04246   0.82908   0.11543   0.00000  Uiso   1.00
C542   C     0.30155   0.80009   0.45330   0.00000  Uiso   1.00
C543   C     0.02438   0.82898   0.04475   0.00000  Uiso   1.00
C544   C     0.31828   0.80475   0.40714   0.00000  Uiso   1.00
C545   C     0.00887   0.82231   0.09091   0.00000  Uiso   1.00
C546   C     0.24248   0.83634   0.40727   0.00000  Uiso   1.00
C547   C     0.09175   0.83266   0.09277   0.00000  Uiso   1.00
C548   C     0.22312   0.82701   0.45292   0.00000  Uiso   1.00
C549   C     0.10818   0.83082   0.04620   0.00000  Uiso   1.00
C550   C     0.25455   0.81127   0.47627   0.00000  Uiso   1.00
C551   C     0.19115   0.81371   0.04550   0.00000  Uiso   1.00
C552   C     0.07375   0.83299   0.02215   0.00000  Uiso   1.00
C553   C     0.17333   0.83172   0.47588   0.00000  Uiso   1.00
C554   C     0.15772   0.82664   0.02309   0.00000  Uiso   1.00
C555   C     0.28972   0.77150   0.13172   0.00000  Uiso   1.00
C556   C     0.27504   0.73903   0.10299   0.00000  Uiso   1.00
C557   C     0.27158   0.69593   0.12440   0.00000  Uiso   1.00
C558   C     0.02128   0.74856   0.36991   0.00000  Uiso   1.00
C559   C     0.01953   0.71507   0.40564   0.00000  Uiso   1.00
C560   C     0.01975   0.67197   0.38676   0.00000  Uiso   1.00
C561   C     0.19562   0.76884   0.30031   0.00000  Uiso   1.00
C562   C     0.13814   0.83793   0.45303   0.00000  Uiso   1.00
C563   C     0.13769   0.89787   0.19976   0.00000  Uiso   1.00
C564   C     0.23823   0.80513   0.02213   0.00000  Uiso   1.00
C565   C     0.08908   0.83747   0.47584   0.00000  Uiso   1.00
C566   C     0.29742   0.68767   0.23689   0.00000  Uiso   1.00
C567   C     0.03602   0.97904   0.26280   0.00000  Uiso   1.00
C568   C     0.29780   0.97831   0.23666   0.00000  Uiso   1.00
Cu569  Cu    0.04689   0.83334   0.25000   0.00000  Uiso   1.00
Cu570  Cu    0.28645   0.83333   0.25000   0.00000  Uiso   1.00
H571   H     0.26188   0.79294   0.04000   0.00000  Uiso   1.00
H572   H     0.06349   0.96323   0.27375   0.00000  Uiso   1.00
H573   H     0.27022   0.96190   0.22600   0.00000  Uiso   1.00
H574   H     0.06377   0.70475   0.27283   0.00000  Uiso   1.00
H575   H     0.10798   0.78103   0.29193   0.00000  Uiso   1.00
H576   H     0.22590   0.88521   0.20704   0.00000  Uiso   1.00
H577   H     0.26081   0.77241   0.16395   0.00000  Uiso   1.00
H578   H     0.32302   0.76129   0.13980   0.00000  Uiso   1.00
H579   H     0.23910   0.74650   0.09895   0.00000  Uiso   1.00
H580   H     0.30222   0.73903   0.06967   0.00000  Uiso   1.00
H581   H     0.30688   0.68739   0.12924   0.00000  Uiso   1.00
H582   H     0.06302   0.83995   0.45704   0.00000  Uiso   1.00
H583   H     0.26161   0.67307   0.10242   0.00000  Uiso   1.00
H584   H     0.24334   0.69476   0.15709   0.00000  Uiso   1.00
H585   H     0.05232   0.74232   0.34076   0.00000  Uiso   1.00
H586   H     0.32171   0.74624   0.35804   0.00000  Uiso   1.00
H587   H     0.05137   0.71896   0.41855   0.00000  Uiso   1.00
H588   H     0.31946   0.71789   0.43375   0.00000  Uiso   1.00
H589   H     0.32160   0.66746   0.37349   0.00000  Uiso   1.00
H590   H     0.01746   0.98171   0.41351   0.00000  Uiso   1.00
H591   H     0.05367   0.66755   0.35962   0.00000  Uiso   1.00
H592   H     0.16295   0.75429   0.32411   0.00000  Uiso   1.00
H593   H     0.11705   0.83771   0.11177   0.00000  Uiso   1.00
H594   H     0.21286   0.74437   0.27740   0.00000  Uiso   1.00
H595   H     0.21867   0.77882   0.32083   0.00000  Uiso   1.00
H596   H     0.17028   0.91238   0.17581   0.00000  Uiso   1.00
H597   H     0.11437   0.88803   0.17945   0.00000  Uiso   1.00
H598   H     0.12066   0.92235   0.22277   0.00000  Uiso   1.00
H599   H     0.22147   0.85230   0.38894   0.00000  Uiso   1.00
H600   H     0.32449   0.78539   0.47078   0.00000  Uiso   1.00
H601   H     0.33146   0.82960   0.02635   0.00000  Uiso   1.00
H602   H     0.18093   0.80669   0.08082   0.00000  Uiso   1.00
H603   H     0.14715   0.84009   0.41719   0.00000  Uiso   1.00
H604   H     0.26986   0.70353   0.22616   0.00000  Uiso   1.00
N605   N     0.11736   0.83334   0.24999   0.00000  Uiso   1.00
N606   N     0.21597   0.83332   0.25001   0.00000  Uiso   1.00
O607   O     0.03958   0.77322   0.25000   0.00000  Uiso   1.00
O608   O     0.02903   0.78838   0.38496   0.00000  Uiso   1.00
O609   O     0.29375   0.89345   0.25000   0.00000  Uiso   1.00
O610   O     0.29372   0.77321   0.25000   0.00000  Uiso   1.00
O611   O     0.03961   0.89346   0.24999   0.00000  Uiso   1.00
O612   O     0.01852   0.83334   0.31491   0.00000  Uiso   1.00
O613   O     0.31481   0.83332   0.18508   0.00000  Uiso   1.00
O614   O     0.27267   0.83333   0.31492   0.00000  Uiso   1.00
O615   O     0.06067   0.83333   0.18508   0.00000  Uiso   1.00
O616   O     0.29395   0.81148   0.11102   0.00000  Uiso   1.00
C617   C     0.66641   0.75414   0.25004   0.00000  Uiso   1.00
C618   C     0.36918   0.68837   0.26268   0.00000  Uiso   1.00
C619   C     0.33378   0.95721   0.24965   0.00000  Uiso   1.00
C620   C     0.66634   0.70948   0.25003   0.00000  Uiso   1.00
C621   C     0.51572   0.80394   0.27416   0.00000  Uiso   1.00
C622   C     0.48433   0.86269   0.22573   0.00000  Uiso   1.00
C623   C     0.46668   0.80437   0.27368   0.00000  Uiso   1.00
C624   C     0.53352   0.86213   0.22592   0.00000  Uiso   1.00
C625   C     0.63905   0.83162   0.33572   0.00000  Uiso   1.00
C626   C     0.36076   0.83204   0.16424   0.00000  Uiso   1.00
C627   C     0.62295   0.82537   0.38422   0.00000  Uiso   1.00
C628   C     0.33363   0.91253   0.24985   0.00000  Uiso   1.00
C629   C     0.37580   0.82908   0.11543   0.00000  Uiso   1.00
C630   C     0.63489   0.80009   0.45330   0.00000  Uiso   1.00
C631   C     0.35771   0.82898   0.04475   0.00000  Uiso   1.00
C632   C     0.65162   0.80475   0.40714   0.00000  Uiso   1.00
C633   C     0.34220   0.82231   0.09091   0.00000  Uiso   1.00
C634   C     0.57581   0.83634   0.40727   0.00000  Uiso   1.00
C635   C     0.42508   0.83266   0.09277   0.00000  Uiso   1.00
C636   C     0.55645   0.82701   0.45292   0.00000  Uiso   1.00
C637   C     0.44151   0.83082   0.04620   0.00000  Uiso   1.00
C638   C     0.58788   0.81127   0.47627   0.00000  Uiso   1.00
C639   C     0.52448   0.81371   0.04550   0.00000  Uiso   1.00
C640   C     0.40709   0.83299   0.02215   0.00000  Uiso   1.00
C641   C     0.50667   0.83172   0.47588   0.00000  Uiso   1.00
C642   C     0.49105   0.82664   0.02309   0.00000  Uiso   1.00
C643   C     0.62305   0.77150   0.13172   0.00000  Uiso   1.00
C644   C     0.60837   0.73903   0.10299   0.00000  Uiso   1.00
C645   C     0.60491   0.69593   0.12440   0.00000  Uiso   1.00
C646   C     0.35461   0.74856   0.36991   0.00000  Uiso   1.00
C647   C     0.35287   0.71507   0.40564   0.00000  Uiso   1.00
C648   C     0.35308   0.67197   0.38676   0.00000  Uiso   1.00
C649   C     0.52895   0.76884   0.30031   0.00000  Uiso   1.00
C650   C     0.47147   0.83793   0.45303   0.00000  Uiso   1.00
C651   C     0.47102   0.89787   0.19976   0.00000  Uiso   1.00
C652   C     0.57156   0.80513   0.02213   0.00000  Uiso   1.00
C653   C     0.42241   0.83747   0.47584   0.00000  Uiso   1.00
C654   C     0.63076   0.68767   0.23689   0.00000  Uiso   1.00
C655   C     0.36936   0.97904   0.26280   0.00000  Uiso   1.00
C656   C     0.63114   0.97831   0.23666   0.00000  Uiso   1.00
Cu657  Cu    0.38022   0.83334   0.25000   0.00000  Uiso   1.00
Cu658  Cu    0.61978   0.83333   0.25000   0.00000  Uiso   1.00
H659   H     0.59521   0.79294   0.04000   0.00000  Uiso   1.00
H660   H     0.39682   0.96323   0.27375   0.00000  Uiso   1.00
H661   H     0.60355   0.96190   0.22600   0.00000  Uiso   1.00
H662   H     0.39710   0.70475   0.27283   0.00000  Uiso   1.00
H663   H     0.44131   0.78103   0.29193   0.00000  Uiso   1.00
H664   H     0.55923   0.88521   0.20704   0.00000  Uiso   1.00
H665   H     0.59414   0.77241   0.16395   0.00000  Uiso   1.00
H666   H     0.65636   0.76129   0.13980   0.00000  Uiso   1.00
H667   H     0.57243   0.74650   0.09895   0.00000  Uiso   1.00
H668   H     0.63556   0.73903   0.06967   0.00000  Uiso   1.00
H669   H     0.64021   0.68739   0.12924   0.00000  Uiso   1.00
H670   H     0.39635   0.83995   0.45704   0.00000  Uiso   1.00
H671   H     0.59495   0.67307   0.10242   0.00000  Uiso   1.00
H672   H     0.57668   0.69476   0.15709   0.00000  Uiso   1.00
H673   H     0.38566   0.74232   0.34076   0.00000  Uiso   1.00
H674   H     0.65505   0.74624   0.35804   0.00000  Uiso   1.00
H675   H     0.38471   0.71896   0.41855   0.00000  Uiso   1.00
H676   H     0.65280   0.71789   0.43375   0.00000  Uiso   1.00
H677   H     0.65494   0.66746   0.37349   0.00000  Uiso   1.00
H678   H     0.35079   0.98171   0.41351   0.00000  Uiso   1.00
H679   H     0.38700   0.66755   0.35962   0.00000  Uiso   1.00
H680   H     0.49629   0.75429   0.32411   0.00000  Uiso   1.00
H681   H     0.45038   0.83771   0.11177   0.00000  Uiso   1.00
H682   H     0.54620   0.74437   0.27740   0.00000  Uiso   1.00
H683   H     0.55200   0.77882   0.32083   0.00000  Uiso   1.00
H684   H     0.50361   0.91238   0.17581   0.00000  Uiso   1.00
H685   H     0.44770   0.88803   0.17945   0.00000  Uiso   1.00
H686   H     0.45399   0.92235   0.22277   0.00000  Uiso   1.00
H687   H     0.55480   0.85230   0.38894   0.00000  Uiso   1.00
H688   H     0.65783   0.78539   0.47078   0.00000  Uiso   1.00
H689   H     0.66479   0.82960   0.02635   0.00000  Uiso   1.00
H690   H     0.51427   0.80669   0.08082   0.00000  Uiso   1.00
H691   H     0.48048   0.84009   0.41719   0.00000  Uiso   1.00
H692   H     0.60320   0.70353   0.22616   0.00000  Uiso   1.00
N693   N     0.45069   0.83334   0.24999   0.00000  Uiso   1.00
N694   N     0.54931   0.83332   0.25001   0.00000  Uiso   1.00
O695   O     0.37291   0.77322   0.25000   0.00000  Uiso   1.00
O696   O     0.36237   0.78838   0.38496   0.00000  Uiso   1.00
O697   O     0.62709   0.89345   0.25000   0.00000  Uiso   1.00
O698   O     0.62706   0.77321   0.25000   0.00000  Uiso   1.00
O699   O     0.37294   0.89346   0.24999   0.00000  Uiso   1.00
O700   O     0.35186   0.83334   0.31491   0.00000  Uiso   1.00
O701   O     0.64814   0.83332   0.18508   0.00000  Uiso   1.00
O702   O     0.60600   0.83333   0.31492   0.00000  Uiso   1.00
O703   O     0.39400   0.83333   0.18508   0.00000  Uiso   1.00
O704   O     0.62729   0.81148   0.11102   0.00000  Uiso   1.00
C705   C     0.99974   0.75414   0.25004   0.00000  Uiso   1.00
C706   C     0.70251   0.68837   0.26268   0.00000  Uiso   1.00
C707   C     0.66712   0.95721   0.24965   0.00000  Uiso   1.00
C708   C     0.99967   0.70948   0.25003   0.00000  Uiso   1.00
C709   C     0.84905   0.80394   0.27416   0.00000  Uiso   1.00
C710   C     0.81767   0.86269   0.22573   0.00000  Uiso   1.00
C711   C     0.80002   0.80437   0.27368   0.00000  Uiso   1.00
C712   C     0.86685   0.86213   0.22592   0.00000  Uiso   1.00
C713   C     0.97238   0.83162   0.33572   0.00000  Uiso   1.00
C714   C     0.69410   0.83204   0.16424   0.00000  Uiso   1.00
C715   C     0.95628   0.82537   0.38422   0.00000  Uiso   1.00
C716   C     0.66696   0.91253   0.24985   0.00000  Uiso   1.00
C717   C     0.70913   0.82908   0.11543   0.00000  Uiso   1.00
C718   C     0.96822   0.80009   0.45330   0.00000  Uiso   1.00
C719   C     0.69104   0.82898   0.04475   0.00000  Uiso   1.00
C720   C     0.98495   0.80475   0.40714   0.00000  Uiso   1.00
C721   C     0.67553   0.82231   0.09091   0.00000  Uiso   1.00
C722   C     0.90915   0.83634   0.40727   0.00000  Uiso   1.00
C723   C     0.75842   0.83266   0.09277   0.00000  Uiso   1.00
C724   C     0.88978   0.82701   0.45292   0.00000  Uiso   1.00
C725   C     0.77484   0.83082   0.04620   0.00000  Uiso   1.00
C726   C     0.92122   0.81127   0.47627   0.00000  Uiso   1.00
C727   C     0.85782   0.81371   0.04550   0.00000  Uiso   1.00
C728   C     0.74042   0.83299   0.02215   0.00000  Uiso   1.00
C729   C     0.84000   0.83172   0.47588   0.00000  Uiso   1.00
C730   C     0.82438   0.82664   0.02309   0.00000  Uiso   1.00
C731   C     0.95638   0.77150   0.13172   0.00000  Uiso   1.00
C732   C     0.94170   0.73903   0.10299   0.00000  Uiso   1.00
C733   C     0.93825   0.69593   0.12440   0.00000  Uiso   1.00
C734   C     0.68794   0.74856   0.36991   0.00000  Uiso   1.00
C735   C     0.68620   0.71507   0.40564   0.00000  Uiso   1.00
C736   C     0.68641   0.67197   0.38676   0.00000  Uiso   1.00
C737   C     0.86229   0.76884   0.30031   0.00000  Uiso   1.00
C738   C     0.80481   0.83793   0.45303   0.00000  Uiso   1.00
C739   C     0.80436   0.89787   0.19976   0.00000  Uiso   1.00
C740   C     0.90489   0.80513   0.02213   0.00000  Uiso   1.00
C741   C     0.75575   0.83747   0.47584   0.00000  Uiso   1.00
C742   C     0.96409   0.68767   0.23689   0.00000  Uiso   1.00
C743   C     0.70269   0.97904   0.26280   0.00000  Uiso   1.00
C744   C     0.96447   0.97831   0.23666   0.00000  Uiso   1.00
Cu745  Cu    0.71355   0.83334   0.25000   0.00000  Uiso   1.00
Cu746  Cu    0.95311   0.83333   0.25000   0.00000  Uiso   1.00
H747   H     0.92855   0.79294   0.04000   0.00000  Uiso   1.00
H748   H     0.73016   0.96323   0.27375   0.00000  Uiso   1.00
H749   H     0.93689   0.96190   0.22600   0.00000  Uiso   1.00
H750   H     0.73043   0.70475   0.27283   0.00000  Uiso   1.00
H751   H     0.77464   0.78103   0.29193   0.00000  Uiso   1.00
H752   H     0.89257   0.88521   0.20704   0.00000  Uiso   1.00
H753   H     0.92748   0.77241   0.16395   0.00000  Uiso   1.00
H754   H     0.98969   0.76129   0.13980   0.00000  Uiso   1.00
H755   H     0.90576   0.74650   0.09895   0.00000  Uiso   1.00
H756   H     0.96889   0.73903   0.06967   0.00000  Uiso   1.00
H757   H     0.97354   0.68739   0.12924   0.00000  Uiso   1.00
H758   H     0.72969   0.83995   0.45704   0.00000  Uiso   1.00
H759   H     0.92828   0.67307   0.10242   0.00000  Uiso   1.00
H760   H     0.91001   0.69476   0.15709   0.00000  Uiso   1.00
H761   H     0.71899   0.74232   0.34076   0.00000  Uiso   1.00
H762   H     0.98838   0.74624   0.35804   0.00000  Uiso   1.00
H763   H     0.71804   0.71896   0.41855   0.00000  Uiso   1.00
H764   H     0.98613   0.71789   0.43375   0.00000  Uiso   1.00
H765   H     0.98827   0.66746   0.37349   0.00000  Uiso   1.00
H766   H     0.68412   0.98171   0.41351   0.00000  Uiso   1.00
H767   H     0.72033   0.66755   0.35962   0.00000  Uiso   1.00
H768   H     0.82962   0.75429   0.32411   0.00000  Uiso   1.00
H769   H     0.78371   0.83771   0.11177   0.00000  Uiso   1.00
H770   H     0.87953   0.74437   0.27740   0.00000  Uiso   1.00
H771   H     0.88534   0.77882   0.32083   0.00000  Uiso   1.00
H772   H     0.83695   0.91238   0.17581   0.00000  Uiso   1.00
H773   H     0.78103   0.88803   0.17945   0.00000  Uiso   1.00
H774   H     0.78732   0.92235   0.22277   0.00000  Uiso   1.00
H775   H     0.88813   0.85230   0.38894   0.00000  Uiso   1.00
H776   H     0.99116   0.78539   0.47078   0.00000  Uiso   1.00
H777   H     0.99813   0.82960   0.02635   0.00000  Uiso   1.00
H778   H     0.84760   0.80669   0.08082   0.00000  Uiso   1.00
H779   H     0.81381   0.84009   0.41719   0.00000  Uiso   1.00
H780   H     0.93653   0.70353   0.22616   0.00000  Uiso   1.00
N781   N     0.78403   0.83334   0.24999   0.00000  Uiso   1.00
N782   N     0.88264   0.83332   0.25001   0.00000  Uiso   1.00
O783   O     0.70625   0.77322   0.25000   0.00000  Uiso   1.00
O784   O     0.69570   0.78838   0.38496   0.00000  Uiso   1.00
O785   O     0.96042   0.89345   0.25000   0.00000  Uiso   1.00
O786   O     0.96039   0.77321   0.25000   0.00000  Uiso   1.00
O787   O     0.70628   0.89346   0.24999   0.00000  Uiso   1.00
O788   O     0.68519   0.83334   0.31491   0.00000  Uiso   1.00
O789   O     0.98148   0.83332   0.18508   0.00000  Uiso   1.00
O790   O     0.93933   0.83333   0.31492   0.00000  Uiso   1.00
O791   O     0.72733   0.83333   0.18508   0.00000  Uiso   1.00
O792   O     0.96062   0.81148   0.11102   0.00000  Uiso   1.00
C793   C     0.33308   0.08747   0.75004   0.00000  Uiso   1.00
C794   C     0.03584   0.02171   0.76268   0.00000  Uiso   1.00
C795   C     0.00045   0.29054   0.74965   0.00000  Uiso   1.00
C796   C     0.33301   0.04281   0.75003   0.00000  Uiso   1.00
C797   C     0.18239   0.13728   0.77416   0.00000  Uiso   1.00
C798   C     0.15100   0.19603   0.72573   0.00000  Uiso   1.00
C799   C     0.13335   0.13770   0.77368   0.00000  Uiso   1.00
C800   C     0.20018   0.19547   0.72592   0.00000  Uiso   1.00
C801   C     0.30571   0.16495   0.83572   0.00000  Uiso   1.00
C802   C     0.02743   0.16538   0.66424   0.00000  Uiso   1.00
C803   C     0.28961   0.15871   0.88422   0.00000  Uiso   1.00
C804   C     0.00029   0.24586   0.74985   0.00000  Uiso   1.00
C805   C     0.04246   0.16241   0.61543   0.00000  Uiso   1.00
C806   C     0.30155   0.13342   0.95330   0.00000  Uiso   1.00
C807   C     0.02438   0.16231   0.54475   0.00000  Uiso   1.00
C808   C     0.31828   0.13809   0.90714   0.00000  Uiso   1.00
C809   C     0.00887   0.15564   0.59091   0.00000  Uiso   1.00
C810   C     0.24248   0.16968   0.90727   0.00000  Uiso   1.00
C811   C     0.09175   0.16599   0.59277   0.00000  Uiso   1.00
C812   C     0.22312   0.16034   0.95292   0.00000  Uiso   1.00
C813   C     0.10818   0.16415   0.54620   0.00000  Uiso   1.00
C814   C     0.25455   0.14460   0.97627   0.00000  Uiso   1.00
C815   C     0.19115   0.14704   0.54550   0.00000  Uiso   1.00
C816   C     0.07375   0.16632   0.52215   0.00000  Uiso   1.00
C817   C     0.17333   0.16506   0.97588   0.00000  Uiso   1.00
C818   C     0.15772   0.15998   0.52309   0.00000  Uiso   1.00
C819   C     0.28972   0.10484   0.63172   0.00000  Uiso   1.00
C820   C     0.27504   0.07236   0.60299   0.00000  Uiso   1.00
C821   C     0.27158   0.02926   0.62440   0.00000  Uiso   1.00
C822   C     0.02128   0.08189   0.86991   0.00000  Uiso   1.00
C823   C     0.01953   0.04840   0.90564   0.00000  Uiso   1.00
C824   C     0.01975   0.00531   0.88676   0.00000  Uiso   1.00
C825   C     0.19562   0.10218   0.80031   0.00000  Uiso   1.00
C826   C     0.13814   0.17127   0.95303   0.00000  Uiso   1.00
C827   C     0.13769   0.23121   0.69976   0.00000  Uiso   1.00
C828   C     0.23823   0.13847   0.52213   0.00000  Uiso   1.00
C829   C     0.08908   0.17081   0.97584   0.00000  Uiso   1.00
C830   C     0.29742   0.02100   0.73689   0.00000  Uiso   1.00
C831   C     0.03602   0.31237   0.76280   0.00000  Uiso   1.00
C832   C     0.29780   0.31165   0.73666   0.00000  Uiso   1.00
Cu833  Cu    0.04689   0.16667   0.75000   0.00000  Uiso   1.00
Cu834  Cu    0.28645   0.16666   0.75000   0.00000  Uiso   1.00
H835   H     0.26188   0.12628   0.54000   0.00000  Uiso   1.00
H836   H     0.06349   0.29657   0.77375   0.00000  Uiso   1.00
H837   H     0.27022   0.29524   0.72600   0.00000  Uiso   1.00
H838   H     0.06377   0.03808   0.77283   0.00000  Uiso   1.00
H839   H     0.10798   0.11436   0.79193   0.00000  Uiso   1.00
H840   H     0.22590   0.21854   0.70704   0.00000  Uiso   1.00
H841   H     0.26081   0.10575   0.66395   0.00000  Uiso   1.00
H842   H     0.32302   0.09463   0.63980   0.00000  Uiso   1.00
H843   H     0.23910   0.07984   0.59895   0.00000  Uiso   1.00
H844   H     0.30222   0.07237   0.56967   0.00000  Uiso   1.00
H845   H     0.30688   0.02072   0.62924   0.00000  Uiso   1.00
H846   H     0.06302   0.17328   0.95704   0.00000  Uiso   1.00
H847   H     0.26161   0.00640   0.60242   0.00000  Uiso   1.00
H848   H     0.24334   0.02809   0.65709   0.00000  Uiso   1.00
H849   H     0.05232   0.07566   0.84076   0.00000  Uiso   1.00
H850   H     0.32171   0.07957   0.85804   0.00000  Uiso   1.00
H851   H     0.05137   0.05230   0.91855   0.00000  Uiso   1.00
H852   H     0.31946   0.05123   0.93375   0.00000  Uiso   1.00
H853   H     0.32160   0.00080   0.87349   0.00000  Uiso   1.00
H854   H     0.01746   0.31504   0.91351   0.00000  Uiso   1.00
H855   H     0.05367   0.00088   0.85962   0.00000  Uiso   1.00
H856   H     0.16295   0.08762   0.82411   0.00000  Uiso   1.00
H857   H     0.11705   0.17104   0.61177   0.00000  Uiso   1.00
H858   H     0.21286   0.07770   0.77740   0.00000  Uiso   1.00
H859   H     0.21867   0.11215   0.82083   0.00000  Uiso   1.00
H860   H     0.17028   0.24571   0.67581   0.00000  Uiso   1.00
H861   H     0.11437   0.22136   0.67945   0.00000  Uiso   1.00
H862   H     0.12066   0.25568   0.72277   0.00000  Uiso   1.00
H863   H     0.22147   0.18564   0.88894   0.00000  Uiso   1.00
H864   H     0.32449   0.11872   0.97078   0.00000  Uiso   1.00
H865   H     0.33146   0.16293   0.52635   0.00000  Uiso   1.00
H866   H     0.18093   0.14002   0.58082   0.00000  Uiso   1.00
H867   H     0.14715   0.17342   0.91719   0.00000  Uiso   1.00
H868   H     0.26986   0.03686   0.72616   0.00000  Uiso   1.00
N869   N     0.11736   0.16668   0.74999   0.00000  Uiso   1.00
N870   N     0.21597   0.16666   0.75001   0.00000  Uiso   1.00
O871   O     0.03958   0.10655   0.75000   0.00000  Uiso   1.00
O872   O     0.02903   0.12172   0.88496   0.00000  Uiso   1.00
O873   O     0.29375   0.22678   0.75000   0.00000  Uiso   1.00
O874   O     0.29372   0.10654   0.75000   0.00000  Uiso   1.00
O875   O     0.03961   0.22679   0.74999   0.00000  Uiso   1.00
O876   O     0.01852   0.16668   0.81491   0.00000  Uiso   1.00
O877   O     0.31481   0.16666   0.68508   0.00000  Uiso   1.00
O878   O     0.27267   0.16667   0.81492   0.00000  Uiso   1.00
O879   O     0.06067   0.16667   0.68508   0.00000  Uiso   1.00
O880   O     0.29395   0.14482   0.61102   0.00000  Uiso   1.00
C881   C     0.66641   0.08747   0.75004   0.00000  Uiso   1.00
C882   C     0.36918   0.02171   0.76268   0.00000  Uiso   1.00
C883   C     0.33378   0.29054   0.74965   0.00000  Uiso   1.00
C884   C     0.66634   0.04281   0.75003   0.00000  Uiso   1.00
C885   C     0.51572   0.13728   0.77416   0.00000  Uiso   1.00
C886   C     0.48433   0.19603   0.72573   0.00000  Uiso   1.00
C887   C     0.46668   0.13770   0.77368   0.00000  Uiso   1.00
C888   C     0.53352   0.19547   0.72592   0.00000  Uiso   1.00
C889   C     0.63905   0.16495   0.83572   0.00000  Uiso   1.00
C890   C     0.36076   0.16538   0.66424   0.00000  Uiso   1.00
C891   C     0.62295   0.15871   0.88422   0.00000  Uiso   1.00
C892   C     0.33363   0.24586   0.74985   0.00000  Uiso   1.00
C893   C     0.37580   0.16241   0.61543   0.00000  Uiso   1.00
C894   C     0.63489   0.13342   0.95330   0.00000  Uiso   1.00
C895   C     0.35771   0.16231   0.54475   0.00000  Uiso   1.00
C896   C     0.65162   0.13809   0.90714   0.00000  Uiso   1.00
C897   C     0.34220   0.15564   0.59091   0.00000  Uiso   1.00
C898   C     0.57581   0.16968   0.90727   0.00000  Uiso   1.00
C899   C     0.42508   0.16599   0.59277   0.00000  Uiso   1.00
C900   C     0.55645   0.16034   0.95292   0.00000  Uiso   1.00
C901   C     0.44151   0.16415   0.54620   0.00000  Uiso   1.00
C902   C     0.58788   0.14460   0.97627   0.00000  Uiso   1.00
C903   C     0.52448   0.14704   0.54550   0.00000  Uiso   1.00
C904   C     0.40709   0.16632   0.52215   0.00000  Uiso   1.00
C905   C     0.50667   0.16506   0.97588   0.00000  Uiso   1.00
C906   C     0.49105   0.15998   0.52309   0.00000  Uiso   1.00
C907   C     0.62305   0.10484   0.63172   0.00000  Uiso   1.00
C908   C     0.60837   0.07236   0.60299   0.00000  Uiso   1.00
C909   C     0.60491   0.02926   0.62440   0.00000  Uiso   1.00
C910   C     0.35461   0.08189   0.86991   0.00000  Uiso   1.00
C911   C     0.35287   0.04840   0.90564   0.00000  Uiso   1.00
C912   C     0.35308   0.00531   0.88676   0.00000  Uiso   1.00
C913   C     0.52895   0.10218   0.80031   0.00000  Uiso   1.00
C914   C     0.47147   0.17127   0.95303   0.00000  Uiso   1.00
C915   C     0.47102   0.23121   0.69976   0.00000  Uiso   1.00
C916   C     0.57156   0.13847   0.52213   0.00000  Uiso   1.00
C917   C     0.42241   0.17081   0.97584   0.00000  Uiso   1.00
C918   C     0.63076   0.02100   0.73689   0.00000  Uiso   1.00
C919   C     0.36936   0.31237   0.76280   0.00000  Uiso   1.00
C920   C     0.63114   0.31165   0.73666   0.00000  Uiso   1.00
Cu921  Cu    0.38022   0.16667   0.75000   0.00000  Uiso   1.00
Cu922  Cu    0.61978   0.16666   0.75000   0.00000  Uiso   1.00
H923   H     0.59521   0.12628   0.54000   0.00000  Uiso   1.00
H924   H     0.39682   0.29657   0.77375   0.00000  Uiso   1.00
H925   H     0.60355   0.29524   0.72600   0.00000  Uiso   1.00
H926   H     0.39710   0.03808   0.77283   0.00000  Uiso   1.00
H927   H     0.44131   0.11436   0.79193   0.00000  Uiso   1.00
H928   H     0.55923   0.21854   0.70704   0.00000  Uiso   1.00
H929   H     0.59414   0.10575   0.66395   0.00000  Uiso   1.00
H930   H     0.65636   0.09463   0.63980   0.00000  Uiso   1.00
H931   H     0.57243   0.07984   0.59895   0.00000  Uiso   1.00
H932   H     0.63556   0.07237   0.56967   0.00000  Uiso   1.00
H933   H     0.64021   0.02072   0.62924   0.00000  Uiso   1.00
H934   H     0.39635   0.17328   0.95704   0.00000  Uiso   1.00
H935   H     0.59495   0.00640   0.60242   0.00000  Uiso   1.00
H936   H     0.57668   0.02809   0.65709   0.00000  Uiso   1.00
H937   H     0.38566   0.07566   0.84076   0.00000  Uiso   1.00
H938   H     0.65505   0.07957   0.85804   0.00000  Uiso   1.00
H939   H     0.38471   0.05230   0.91855   0.00000  Uiso   1.00
H940   H     0.65280   0.05123   0.93375   0.00000  Uiso   1.00
H941   H     0.65494   0.00080   0.87349   0.00000  Uiso   1.00
H942   H     0.35079   0.31504   0.91351   0.00000  Uiso   1.00
H943   H     0.38700   0.00088   0.85962   0.00000  Uiso   1.00
H944   H     0.49629   0.08762   0.82411   0.00000  Uiso   1.00
H945   H     0.45038   0.17104   0.61177   0.00000  Uiso   1.00
H946   H     0.54620   0.07770   0.77740   0.00000  Uiso   1.00
H947   H     0.55200   0.11215   0.82083   0.00000  Uiso   1.00
H948   H     0.50361   0.24571   0.67581   0.00000  Uiso   1.00
H949   H     0.44770   0.22136   0.67945   0.00000  Uiso   1.00
H950   H     0.45399   0.25568   0.72277   0.00000  Uiso   1.00
H951   H     0.55480   0.18564   0.88894   0.00000  Uiso   1.00
H952   H     0.65783   0.11872   0.97078   0.00000  Uiso   1.00
H953   H     0.66479   0.16293   0.52635   0.00000  Uiso   1.00
H954   H     0.51427   0.14002   0.58082   0.00000  Uiso   1.00
H955   H     0.48048   0.17342   0.91719   0.00000  Uiso   1.00
H956   H     0.60320   0.03686   0.72616   0.00000  Uiso   1.00
N957   N     0.45069   0.16668   0.74999   0.00000  Uiso   1.00
N958   N     0.54931   0.16666   0.75001   0.00000  Uiso   1.00
O959   O     0.37291   0.10655   0.75000   0.00000  Uiso   1.00
O960   O     0.36237   0.12172   0.88496   0.00000  Uiso   1.00
O961   O     0.62709   0.22678   0.75000   0.00000  Uiso   1.00
O962   O     0.62706   0.10654   0.75000   0.00000  Uiso   1.00
O963   O     0.37294   0.22679   0.74999   0.00000  Uiso   1.00
O964   O     0.35186   0.16668   0.81491   0.00000  Uiso   1.00
O965   O     0.64814   0.16666   0.68508   0.00000  Uiso   1.00
O966   O     0.60600   0.16667   0.81492   0.00000  Uiso   1.00
O967   O     0.39400   0.16667   0.68508   0.00000  Uiso   1.00
O968   O     0.62729   0.14482   0.61102   0.00000  Uiso   1.00
C969   C     0.99974   0.08747   0.75004   0.00000  Uiso   1.00
C970   C     0.70251   0.02171   0.76268   0.00000  Uiso   1.00
C971   C     0.66712   0.29054   0.74965   0.00000  Uiso   1.00
C972   C     0.99967   0.04281   0.75003   0.00000  Uiso   1.00
C973   C     0.84905   0.13728   0.77416   0.00000  Uiso   1.00
C974   C     0.81767   0.19603   0.72573   0.00000  Uiso   1.00
C975   C     0.80002   0.13770   0.77368   0.00000  Uiso   1.00
C976   C     0.86685   0.19547   0.72592   0.00000  Uiso   1.00
C977   C     0.97238   0.16495   0.83572   0.00000  Uiso   1.00
C978   C     0.69410   0.16538   0.66424   0.00000  Uiso   1.00
C979   C     0.95628   0.15871   0.88422   0.00000  Uiso   1.00
C980   C     0.66696   0.24586   0.74985   0.00000  Uiso   1.00
C981   C     0.70913   0.16241   0.61543   0.00000  Uiso   1.00
C982   C     0.96822   0.13342   0.95330   0.00000  Uiso   1.00
C983   C     0.69104   0.16231   0.54475   0.00000  Uiso   1.00
C984   C     0.98495   0.13809   0.90714   0.00000  Uiso   1.00
C985   C     0.67553   0.15564   0.59091   0.00000  Uiso   1.00
C986   C     0.90915   0.16968   0.90727   0.00000  Uiso   1.00
C987   C     0.75842   0.16599   0.59277   0.00000  Uiso   1.00
C988   C     0.88978   0.16034   0.95292   0.00000  Uiso   1.00
C989   C     0.77484   0.16415   0.54620   0.00000  Uiso   1.00
C990   C     0.92122   0.14460   0.97627   0.00000  Uiso   1.00
C991   C     0.85782   0.14704   0.54550   0.00000  Uiso   1.00
C992   C     0.74042   0.16632   0.52215   0.00000  Uiso   1.00
C993   C     0.84000   0.16506   0.97588   0.00000  Uiso   1.00
C994   C     0.82438   0.15998   0.52309   0.00000  Uiso   1.00
C995   C     0.95638   0.10484   0.63172   0.00000  Uiso   1.00
C996   C     0.94170   0.07236   0.60299   0.00000  Uiso   1.00
C997   C     0.93825   0.02926   0.62440   0.00000  Uiso   1.00
C998   C     0.68794   0.08189   0.86991   0.00000  Uiso   1.00
C999   C     0.68620   0.04840   0.90564   0.00000  Uiso   1.00
C1000  C     0.68641   0.00531   0.88676   0.00000  Uiso   1.00
C1001  C     0.86229   0.10218   0.80031   0.00000  Uiso   1.00
C1002  C     0.80481   0.17127   0.95303   0.00000  Uiso   1.00
C1003  C     0.80436   0.23121   0.69976   0.00000  Uiso   1.00
C1004  C     0.90489   0.13847   0.52213   0.00000  Uiso   1.00
C1005  C     0.75575   0.17081   0.97584   0.00000  Uiso   1.00
C1006  C     0.96409   0.02100   0.73689   0.00000  Uiso   1.00
C1007  C     0.70269   0.31237   0.76280   0.00000  Uiso   1.00
C1008  C     0.96447   0.31165   0.73666   0.00000  Uiso   1.00
Cu1009 Cu    0.71355   0.16667   0.75000   0.00000  Uiso   1.00
Cu1010 Cu    0.95311   0.16666   0.75000   0.00000  Uiso   1.00
H1011  H     0.92855   0.12628   0.54000   0.00000  Uiso   1.00
H1012  H     0.73016   0.29657   0.77375   0.00000  Uiso   1.00
H1013  H     0.93689   0.29524   0.72600   0.00000  Uiso   1.00
H1014  H     0.73043   0.03808   0.77283   0.00000  Uiso   1.00
H1015  H     0.77464   0.11436   0.79193   0.00000  Uiso   1.00
H1016  H     0.89257   0.21854   0.70704   0.00000  Uiso   1.00
H1017  H     0.92748   0.10575   0.66395   0.00000  Uiso   1.00
H1018  H     0.98969   0.09463   0.63980   0.00000  Uiso   1.00
H1019  H     0.90576   0.07984   0.59895   0.00000  Uiso   1.00
H1020  H     0.96889   0.07237   0.56967   0.00000  Uiso   1.00
H1021  H     0.97354   0.02072   0.62924   0.00000  Uiso   1.00
H1022  H     0.72969   0.17328   0.95704   0.00000  Uiso   1.00
H1023  H     0.92828   0.00640   0.60242   0.00000  Uiso   1.00
H1024  H     0.91001   0.02809   0.65709   0.00000  Uiso   1.00
H1025  H     0.71899   0.07566   0.84076   0.00000  Uiso   1.00
H1026  H     0.98838   0.07957   0.85804   0.00000  Uiso   1.00
H1027  H     0.71804   0.05230   0.91855   0.00000  Uiso   1.00
H1028  H     0.98613   0.05123   0.93375   0.00000  Uiso   1.00
H1029  H     0.98827   0.00080   0.87349   0.00000  Uiso   1.00
H1030  H     0.68412   0.31504   0.91351   0.00000  Uiso   1.00
H1031  H     0.72033   0.00088   0.85962   0.00000  Uiso   1.00
H1032  H     0.82962   0.08762   0.82411   0.00000  Uiso   1.00
H1033  H     0.78371   0.17104   0.61177   0.00000  Uiso   1.00
H1034  H     0.87953   0.07770   0.77740   0.00000  Uiso   1.00
H1035  H     0.88534   0.11215   0.82083   0.00000  Uiso   1.00
H1036  H     0.83695   0.24571   0.67581   0.00000  Uiso   1.00
H1037  H     0.78103   0.22136   0.67945   0.00000  Uiso   1.00
H1038  H     0.78732   0.25568   0.72277   0.00000  Uiso   1.00
H1039  H     0.88813   0.18564   0.88894   0.00000  Uiso   1.00
H1040  H     0.99116   0.11872   0.97078   0.00000  Uiso   1.00
H1041  H     0.99813   0.16293   0.52635   0.00000  Uiso   1.00
H1042  H     0.84760   0.14002   0.58082   0.00000  Uiso   1.00
H1043  H     0.81381   0.17342   0.91719   0.00000  Uiso   1.00
H1044  H     0.93653   0.03686   0.72616   0.00000  Uiso   1.00
N1045  N     0.78403   0.16668   0.74999   0.00000  Uiso   1.00
N1046  N     0.88264   0.16666   0.75001   0.00000  Uiso   1.00
O1047  O     0.70625   0.10655   0.75000   0.00000  Uiso   1.00
O1048  O     0.69570   0.12172   0.88496   0.00000  Uiso   1.00
O1049  O     0.96042   0.22678   0.75000   0.00000  Uiso   1.00
O1050  O     0.96039   0.10654   0.75000   0.00000  Uiso   1.00
O1051  O     0.70628   0.22679   0.74999   0.00000  Uiso   1.00
O1052  O     0.68519   0.16668   0.81491   0.00000  Uiso   1.00
O1053  O     0.98148   0.16666   0.68508   0.00000  Uiso   1.00
O1054  O     0.93933   0.16667   0.81492   0.00000  Uiso   1.00
O1055  O     0.72733   0.16667   0.68508   0.00000  Uiso   1.00
O1056  O     0.96062   0.14482   0.61102   0.00000  Uiso   1.00
C1057  C     0.33308   0.42081   0.75004   0.00000  Uiso   1.00
C1058  C     0.03584   0.35504   0.76268   0.00000  Uiso   1.00
C1059  C     0.00045   0.62387   0.74965   0.00000  Uiso   1.00
C1060  C     0.33301   0.37615   0.75003   0.00000  Uiso   1.00
C1061  C     0.18239   0.47061   0.77416   0.00000  Uiso   1.00
C1062  C     0.15100   0.52936   0.72573   0.00000  Uiso   1.00
C1063  C     0.13335   0.47103   0.77368   0.00000  Uiso   1.00
C1064  C     0.20018   0.52880   0.72592   0.00000  Uiso   1.00
C1065  C     0.30571   0.49829   0.83572   0.00000  Uiso   1.00
C1066  C     0.02743   0.49871   0.66424   0.00000  Uiso   1.00
C1067  C     0.28961   0.49204   0.88422   0.00000  Uiso   1.00
C1068  C     0.00029   0.57920   0.74985   0.00000  Uiso   1.00
C1069  C     0.04246   0.49574   0.61543   0.00000  Uiso   1.00
C1070  C     0.30155   0.46675   0.95330   0.00000  Uiso   1.00
C1071  C     0.02438   0.49565   0.54475   0.00000  Uiso   1.00
C1072  C     0.31828   0.47142   0.90714   0.00000  Uiso   1.00
C1073  C     0.00887   0.48898   0.59091   0.00000  Uiso   1.00
C1074  C     0.24248   0.50301   0.90727   0.00000  Uiso   1.00
C1075  C     0.09175   0.49932   0.59277   0.00000  Uiso   1.00
C1076  C     0.22312   0.49368   0.95292   0.00000  Uiso   1.00
C1077  C     0.10818   0.49749   0.54620   0.00000  Uiso   1.00
C1078  C     0.25455   0.47793   0.97627   0.00000  Uiso   1.00
C1079  C     0.19115   0.48038   0.54550   0.00000  Uiso   1.00
C1080  C     0.07375   0.49965   0.52215   0.00000  Uiso   1.00
C1081  C     0.17333   0.49839   0.97588   0.00000  Uiso   1.00
C1082  C     0.15772   0.49331   0.52309   0.00000  Uiso   1.00
C1083  C     0.28972   0.43817   0.63172   0.00000  Uiso   1.00
C1084  C     0.27504   0.40570   0.60299   0.00000  Uiso   1.00
C1085  C     0.27158   0.36260   0.62440   0.00000  Uiso   1.00
C1086  C     0.02128   0.41523   0.86991   0.00000  Uiso   1.00
C1087  C     0.01953   0.38174   0.90564   0.00000  Uiso   1.00
C1088  C     0.01975   0.33864   0.88676   0.00000  Uiso   1.00
C1089  C     0.19562   0.43551   0.80031   0.00000  Uiso   1.00
C1090  C     0.13814   0.50460   0.95303   0.00000  Uiso   1.00
C1091  C     0.13769   0.56454   0.69976   0.00000  Uiso   1.00
C1092  C     0.23823   0.47180   0.52213   0.00000  Uiso   1.00
C1093  C     0.08908   0.50414   0.97584   0.00000  Uiso   1.00
C1094  C     0.29742   0.35433   0.73689   0.00000  Uiso   1.00
C1095  C     0.03602   0.64570   0.76280   0.00000  Uiso   1.00
C1096  C     0.29780   0.64498   0.73666   0.00000  Uiso   1.00
Cu1097 Cu    0.04689   0.50001   0.75000   0.00000  Uiso   1.00
Cu1098 Cu    0.28645   0.49999   0.75000   0.00000  Uiso   1.00
H1099  H     0.26188   0.45961   0.54000   0.00000  Uiso   1.00
H1100  H     0.06349   0.62990   0.77375   0.00000  Uiso   1.00
H1101  H     0.27022   0.62857   0.72600   0.00000  Uiso   1.00
H1102  H     0.06377   0.37141   0.77283   0.00000  Uiso   1.00
H1103  H     0.10798   0.44770   0.79193   0.00000  Uiso   1.00
H1104  H     0.22590   0.55188   0.70704   0.00000  Uiso   1.00
H1105  H     0.26081   0.43908   0.66395   0.00000  Uiso   1.00
H1106  H     0.32302   0.42796   0.63980   0.00000  Uiso   1.00
H1107  H     0.23910   0.41317   0.59895   0.00000  Uiso   1.00
H1108  H     0.30222   0.40570   0.56967   0.00000  Uiso   1.00
H1109  H     0.30688   0.35405   0.62924   0.00000  Uiso   1.00
H1110  H     0.06302   0.50661   0.95704   0.00000  Uiso   1.00
H1111  H     0.26161   0.33974   0.60242   0.00000  Uiso   1.00
H1112  H     0.24334   0.36143   0.65709   0.00000  Uiso   1.00
H1113  H     0.05232   0.40899   0.84076   0.00000  Uiso   1.00
H1114  H     0.32171   0.41291   0.85804   0.00000  Uiso   1.00
H1115  H     0.05137   0.38563   0.91855   0.00000  Uiso   1.00
H1116  H     0.31946   0.38456   0.93375   0.00000  Uiso   1.00
H1117  H     0.32160   0.33413   0.87349   0.00000  Uiso   1.00
H1118  H     0.01746   0.64837   0.91351   0.00000  Uiso   1.00
H1119  H     0.05367   0.33421   0.85962   0.00000  Uiso   1.00
H1120  H     0.16295   0.42096   0.82411   0.00000  Uiso   1.00
H1121  H     0.11705   0.50438   0.61177   0.00000  Uiso   1.00
H1122  H     0.21286   0.41103   0.77740   0.00000  Uiso   1.00
H1123  H     0.21867   0.44548   0.82083   0.00000  Uiso   1.00
H1124  H     0.17028   0.57905   0.67581   0.00000  Uiso   1.00
H1125  H     0.11437   0.55470   0.67945   0.00000  Uiso   1.00
H1126  H     0.12066   0.58901   0.72277   0.00000  Uiso   1.00
H1127  H     0.22147   0.51897   0.88894   0.00000  Uiso   1.00
H1128  H     0.32449   0.45205   0.97078   0.00000  Uiso   1.00
H1129  H     0.33146   0.49626   0.52635   0.00000  Uiso   1.00
H1130  H     0.18093   0.47336   0.58082   0.00000  Uiso   1.00
H1131  H     0.14715   0.50676   0.91719   0.00000  Uiso   1.00
H1132  H     0.26986   0.37019   0.72616   0.00000  Uiso   1.00
N1133  N     0.11736   0.50001   0.74999   0.00000  Uiso   1.00
N1134  N     0.21597   0.49999   0.75001   0.00000  Uiso   1.00
O1135  O     0.03958   0.43989   0.75000   0.00000  Uiso   1.00
O1136  O     0.02903   0.45505   0.88496   0.00000  Uiso   1.00
O1137  O     0.29375   0.56011   0.75000   0.00000  Uiso   1.00
O1138  O     0.29372   0.43988   0.75000   0.00000  Uiso   1.00
O1139  O     0.03961   0.56012   0.74999   0.00000  Uiso   1.00
O1140  O     0.01852   0.50001   0.81491   0.00000  Uiso   1.00
O1141  O     0.31481   0.49999   0.68508   0.00000  Uiso   1.00
O1142  O     0.27267   0.50000   0.81492   0.00000  Uiso   1.00
O1143  O     0.06067   0.50000   0.68508   0.00000  Uiso   1.00
O1144  O     0.29395   0.47815   0.61102   0.00000  Uiso   1.00
C1145  C     0.66641   0.42081   0.75004   0.00000  Uiso   1.00
C1146  C     0.36918   0.35504   0.76268   0.00000  Uiso   1.00
C1147  C     0.33378   0.62387   0.74965   0.00000  Uiso   1.00
C1148  C     0.66634   0.37615   0.75003   0.00000  Uiso   1.00
C1149  C     0.51572   0.47061   0.77416   0.00000  Uiso   1.00
C1150  C     0.48433   0.52936   0.72573   0.00000  Uiso   1.00
C1151  C     0.46668   0.47103   0.77368   0.00000  Uiso   1.00
C1152  C     0.53352   0.52880   0.72592   0.00000  Uiso   1.00
C1153  C     0.63905   0.49829   0.83572   0.00000  Uiso   1.00
C1154  C     0.36076   0.49871   0.66424   0.00000  Uiso   1.00
C1155  C     0.62295   0.49204   0.88422   0.00000  Uiso   1.00
C1156  C     0.33363   0.57920   0.74985   0.00000  Uiso   1.00
C1157  C     0.37580   0.49574   0.61543   0.00000  Uiso   1.00
C1158  C     0.63489   0.46675   0.95330   0.00000  Uiso   1.00
C1159  C     0.35771   0.49565   0.54475   0.00000  Uiso   1.00
C1160  C     0.65162   0.47142   0.90714   0.00000  Uiso   1.00
C1161  C     0.34220   0.48898   0.59091   0.00000  Uiso   1.00
C1162  C     0.57581   0.50301   0.90727   0.00000  Uiso   1.00
C1163  C     0.42508   0.49932   0.59277   0.00000  Uiso   1.00
C1164  C     0.55645   0.49368   0.95292   0.00000  Uiso   1.00
C1165  C     0.44151   0.49749   0.54620   0.00000  Uiso   1.00
C1166  C     0.58788   0.47793   0.97627   0.00000  Uiso   1.00
C1167  C     0.52448   0.48038   0.54550   0.00000  Uiso   1.00
C1168  C     0.40709   0.49965   0.52215   0.00000  Uiso   1.00
C1169  C     0.50667   0.49839   0.97588   0.00000  Uiso   1.00
C1170  C     0.49105   0.49331   0.52309   0.00000  Uiso   1.00
C1171  C     0.62305   0.43817   0.63172   0.00000  Uiso   1.00
C1172  C     0.60837   0.40570   0.60299   0.00000  Uiso   1.00
C1173  C     0.60491   0.36260   0.62440   0.00000  Uiso   1.00
C1174  C     0.35461   0.41523   0.86991   0.00000  Uiso   1.00
C1175  C     0.35287   0.38174   0.90564   0.00000  Uiso   1.00
C1176  C     0.35308   0.33864   0.88676   0.00000  Uiso   1.00
C1177  C     0.52895   0.43551   0.80031   0.00000  Uiso   1.00
C1178  C     0.47147   0.50460   0.95303   0.00000  Uiso   1.00
C1179  C     0.47102   0.56454   0.69976   0.00000  Uiso   1.00
C1180  C     0.57156   0.47180   0.52213   0.00000  Uiso   1.00
C1181  C     0.42241   0.50414   0.97584   0.00000  Uiso   1.00
C1182  C     0.63076   0.35433   0.73689   0.00000  Uiso   1.00
C1183  C     0.36936   0.64570   0.76280   0.00000  Uiso   1.00
C1184  C     0.63114   0.64498   0.73666   0.00000  Uiso   1.00
Cu1185 Cu    0.38022   0.50001   0.75000   0.00000  Uiso   1.00
Cu1186 Cu    0.61978   0.49999   0.75000   0.00000  Uiso   1.00
H1187  H     0.59521   0.45961   0.54000   0.00000  Uiso   1.00
H1188  H     0.39682   0.62990   0.77375   0.00000  Uiso   1.00
H1189  H     0.60355   0.62857   0.72600   0.00000  Uiso   1.00
H1190  H     0.39710   0.37141   0.77283   0.00000  Uiso   1.00
H1191  H     0.44131   0.44770   0.79193   0.00000  Uiso   1.00
H1192  H     0.55923   0.55188   0.70704   0.00000  Uiso   1.00
H1193  H     0.59414   0.43908   0.66395   0.00000  Uiso   1.00
H1194  H     0.65636   0.42796   0.63980   0.00000  Uiso   1.00
H1195  H     0.57243   0.41317   0.59895   0.00000  Uiso   1.00
H1196  H     0.63556   0.40570   0.56967   0.00000  Uiso   1.00
H1197  H     0.64021   0.35405   0.62924   0.00000  Uiso   1.00
H1198  H     0.39635   0.50661   0.95704   0.00000  Uiso   1.00
H1199  H     0.59495   0.33974   0.60242   0.00000  Uiso   1.00
H1200  H     0.57668   0.36143   0.65709   0.00000  Uiso   1.00
H1201  H     0.38566   0.40899   0.84076   0.00000  Uiso   1.00
H1202  H     0.65505   0.41291   0.85804   0.00000  Uiso   1.00
H1203  H     0.38471   0.38563   0.91855   0.00000  Uiso   1.00
H1204  H     0.65280   0.38456   0.93375   0.00000  Uiso   1.00
H1205  H     0.65494   0.33413   0.87349   0.00000  Uiso   1.00
H1206  H     0.35079   0.64837   0.91351   0.00000  Uiso   1.00
H1207  H     0.38700   0.33421   0.85962   0.00000  Uiso   1.00
H1208  H     0.49629   0.42096   0.82411   0.00000  Uiso   1.00
H1209  H     0.45038   0.50438   0.61177   0.00000  Uiso   1.00
H1210  H     0.54620   0.41103   0.77740   0.00000  Uiso   1.00
H1211  H     0.55200   0.44548   0.82083   0.00000  Uiso   1.00
H1212  H     0.50361   0.57905   0.67581   0.00000  Uiso   1.00
H1213  H     0.44770   0.55470   0.67945   0.00000  Uiso   1.00
H1214  H     0.45399   0.58901   0.72277   0.00000  Uiso   1.00
H1215  H     0.55480   0.51897   0.88894   0.00000  Uiso   1.00
H1216  H     0.65783   0.45205   0.97078   0.00000  Uiso   1.00
H1217  H     0.66479   0.49626   0.52635   0.00000  Uiso   1.00
H1218  H     0.51427   0.47336   0.58082   0.00000  Uiso   1.00
H1219  H     0.48048   0.50676   0.91719   0.00000  Uiso   1.00
H1220  H     0.60320   0.37019   0.72616   0.00000  Uiso   1.00
N1221  N     0.45069   0.50001   0.74999   0.00000  Uiso   1.00
N1222  N     0.54931   0.49999   0.75001   0.00000  Uiso   1.00
O1223  O     0.37291   0.43989   0.75000   0.00000  Uiso   1.00
O1224  O     0.36237   0.45505   0.88496   0.00000  Uiso   1.00
O1225  O     0.62709   0.56011   0.75000   0.00000  Uiso   1.00
O1226  O     0.62706   0.43988   0.75000   0.00000  Uiso   1.00
O1227  O     0.37294   0.56012   0.74999   0.00000  Uiso   1.00
O1228  O     0.35186   0.50001   0.81491   0.00000  Uiso   1.00
O1229  O     0.64814   0.49999   0.68508   0.00000  Uiso   1.00
O1230  O     0.60600   0.50000   0.81492   0.00000  Uiso   1.00
O1231  O     0.39400   0.50000   0.68508   0.00000  Uiso   1.00
O1232  O     0.62729   0.47815   0.61102   0.00000  Uiso   1.00
C1233  C     0.99974   0.42081   0.75004   0.00000  Uiso   1.00
C1234  C     0.70251   0.35504   0.76268   0.00000  Uiso   1.00
C1235  C     0.66712   0.62387   0.74965   0.00000  Uiso   1.00
C1236  C     0.99967   0.37615   0.75003   0.00000  Uiso   1.00
C1237  C     0.84905   0.47061   0.77416   0.00000  Uiso   1.00
C1238  C     0.81767   0.52936   0.72573   0.00000  Uiso   1.00
C1239  C     0.80002   0.47103   0.77368   0.00000  Uiso   1.00
C1240  C     0.86685   0.52880   0.72592   0.00000  Uiso   1.00
C1241  C     0.97238   0.49829   0.83572   0.00000  Uiso   1.00
C1242  C     0.69410   0.49871   0.66424   0.00000  Uiso   1.00
C1243  C     0.95628   0.49204   0.88422   0.00000  Uiso   1.00
C1244  C     0.66696   0.57920   0.74985   0.00000  Uiso   1.00
C1245  C     0.70913   0.49574   0.61543   0.00000  Uiso   1.00
C1246  C     0.96822   0.46675   0.95330   0.00000  Uiso   1.00
C1247  C     0.69104   0.49565   0.54475   0.00000  Uiso   1.00
C1248  C     0.98495   0.47142   0.90714   0.00000  Uiso   1.00
C1249  C     0.67553   0.48898   0.59091   0.00000  Uiso   1.00
C1250  C     0.90915   0.50301   0.90727   0.00000  Uiso   1.00
C1251  C     0.75842   0.49932   0.59277   0.00000  Uiso   1.00
C1252  C     0.88978   0.49368   0.95292   0.00000  Uiso   1.00
C1253  C     0.77484   0.49749   0.54620   0.00000  Uiso   1.00
C1254  C     0.92122   0.47793   0.97627   0.00000  Uiso   1.00
C1255  C     0.85782   0.48038   0.54550   0.00000  Uiso   1.00
C1256  C     0.74042   0.49965   0.52215   0.00000  Uiso   1.00
C1257  C     0.84000   0.49839   0.97588   0.00000  Uiso   1.00
C1258  C     0.82438   0.49331   0.52309   0.00000  Uiso   1.00
C1259  C     0.95638   0.43817   0.63172   0.00000  Uiso   1.00
C1260  C     0.94170   0.40570   0.60299   0.00000  Uiso   1.00
C1261  C     0.93825   0.36260   0.62440   0.00000  Uiso   1.00
C1262  C     0.68794   0.41523   0.86991   0.00000  Uiso   1.00
C1263  C     0.68620   0.38174   0.90564   0.00000  Uiso   1.00
C1264  C     0.68641   0.33864   0.88676   0.00000  Uiso   1.00
C1265  C     0.86229   0.43551   0.80031   0.00000  Uiso   1.00
C1266  C     0.80481   0.50460   0.95303   0.00000  Uiso   1.00
C1267  C     0.80436   0.56454   0.69976   0.00000  Uiso   1.00
C1268  C     0.90489   0.47180   0.52213   0.00000  Uiso   1.00
C1269  C     0.75575   0.50414   0.97584   0.00000  Uiso   1.00
C1270  C     0.96409   0.35433   0.73689   0.00000  Uiso   1.00
C1271  C     0.70269   0.64570   0.76280   0.00000  Uiso   1.00
C1272  C     0.96447   0.64498   0.73666   0.00000  Uiso   1.00
Cu1273 Cu    0.71355   0.50001   0.75000   0.00000  Uiso   1.00
Cu1274 Cu    0.95311   0.49999   0.75000   0.00000  Uiso   1.00
H1275  H     0.92855   0.45961   0.54000   0.00000  Uiso   1.00
H1276  H     0.73016   0.62990   0.77375   0.00000  Uiso   1.00
H1277  H     0.93689   0.62857   0.72600   0.00000  Uiso   1.00
H1278  H     0.73043   0.37141   0.77283   0.00000  Uiso   1.00
H1279  H     0.77464   0.44770   0.79193   0.00000  Uiso   1.00
H1280  H     0.89257   0.55188   0.70704   0.00000  Uiso   1.00
H1281  H     0.92748   0.43908   0.66395   0.00000  Uiso   1.00
H1282  H     0.98969   0.42796   0.63980   0.00000  Uiso   1.00
H1283  H     0.90576   0.41317   0.59895   0.00000  Uiso   1.00
H1284  H     0.96889   0.40570   0.56967   0.00000  Uiso   1.00
H1285  H     0.97354   0.35405   0.62924   0.00000  Uiso   1.00
H1286  H     0.72969   0.50661   0.95704   0.00000  Uiso   1.00
H1287  H     0.92828   0.33974   0.60242   0.00000  Uiso   1.00
H1288  H     0.91001   0.36143   0.65709   0.00000  Uiso   1.00
H1289  H     0.71899   0.40899   0.84076   0.00000  Uiso   1.00
H1290  H     0.98838   0.41291   0.85804   0.00000  Uiso   1.00
H1291  H     0.71804   0.38563   0.91855   0.00000  Uiso   1.00
H1292  H     0.98613   0.38456   0.93375   0.00000  Uiso   1.00
H1293  H     0.98827   0.33413   0.87349   0.00000  Uiso   1.00
H1294  H     0.68412   0.64837   0.91351   0.00000  Uiso   1.00
H1295  H     0.72033   0.33421   0.85962   0.00000  Uiso   1.00
H1296  H     0.82962   0.42096   0.82411   0.00000  Uiso   1.00
H1297  H     0.78371   0.50438   0.61177   0.00000  Uiso   1.00
H1298  H     0.87953   0.41103   0.77740   0.00000  Uiso   1.00
H1299  H     0.88534   0.44548   0.82083   0.00000  Uiso   1.00
H1300  H     0.83695   0.57905   0.67581   0.00000  Uiso   1.00
H1301  H     0.78103   0.55470   0.67945   0.00000  Uiso   1.00
H1302  H     0.78732   0.58901   0.72277   0.00000  Uiso   1.00
H1303  H     0.88813   0.51897   0.88894   0.00000  Uiso   1.00
H1304  H     0.99116   0.45205   0.97078   0.00000  Uiso   1.00
H1305  H     0.99813   0.49626   0.52635   0.00000  Uiso   1.00
H1306  H     0.84760   0.47336   0.58082   0.00000  Uiso   1.00
H1307  H     0.81381   0.50676   0.91719   0.00000  Uiso   1.00
H1308  H     0.93653   0.37019   0.72616   0.00000  Uiso   1.00
N1309  N     0.78403   0.50001   0.74999   0.00000  Uiso   1.00
N1310  N     0.88264   0.49999   0.75001   0.00000  Uiso   1.00
O1311  O     0.70625   0.43989   0.75000   0.00000  Uiso   1.00
O1312  O     0.69570   0.45505   0.88496   0.00000  Uiso   1.00
O1313  O     0.96042   0.56011   0.75000   0.00000  Uiso   1.00
O1314  O     0.96039   0.43988   0.75000   0.00000  Uiso   1.00
O1315  O     0.70628   0.56012   0.74999   0.00000  Uiso   1.00
O1316  O     0.68519   0.50001   0.81491   0.00000  Uiso   1.00
O1317  O     0.98148   0.49999   0.68508   0.00000  Uiso   1.00
O1318  O     0.93933   0.50000   0.81492   0.00000  Uiso   1.00
O1319  O     0.72733   0.50000   0.68508   0.00000  Uiso   1.00
O1320  O     0.96062   0.47815   0.61102   0.00000  Uiso   1.00
C1321  C     0.33308   0.75414   0.75004   0.00000  Uiso   1.00
C1322  C     0.03584   0.68837   0.76268   0.00000  Uiso   1.00
C1323  C     0.00045   0.95721   0.74965   0.00000  Uiso   1.00
C1324  C     0.33301   0.70948   0.75003   0.00000  Uiso   1.00
C1325  C     0.18239   0.80394   0.77416   0.00000  Uiso   1.00
C1326  C     0.15100   0.86269   0.72573   0.00000  Uiso   1.00
C1327  C     0.13335   0.80437   0.77368   0.00000  Uiso   1.00
C1328  C     0.20018   0.86213   0.72592   0.00000  Uiso   1.00
C1329  C     0.30571   0.83162   0.83572   0.00000  Uiso   1.00
C1330  C     0.02743   0.83204   0.66424   0.00000  Uiso   1.00
C1331  C     0.28961   0.82537   0.88422   0.00000  Uiso   1.00
C1332  C     0.00029   0.91253   0.74985   0.00000  Uiso   1.00
C1333  C     0.04246   0.82908   0.61543   0.00000  Uiso   1.00
C1334  C     0.30155   0.80009   0.95330   0.00000  Uiso   1.00
C1335  C     0.02438   0.82898   0.54475   0.00000  Uiso   1.00
C1336  C     0.31828   0.80475   0.90714   0.00000  Uiso   1.00
C1337  C     0.00887   0.82231   0.59091   0.00000  Uiso   1.00
C1338  C     0.24248   0.83634   0.90727   0.00000  Uiso   1.00
C1339  C     0.09175   0.83266   0.59277   0.00000  Uiso   1.00
C1340  C     0.22312   0.82701   0.95292   0.00000  Uiso   1.00
C1341  C     0.10818   0.83082   0.54620   0.00000  Uiso   1.00
C1342  C     0.25455   0.81127   0.97627   0.00000  Uiso   1.00
C1343  C     0.19115   0.81371   0.54550   0.00000  Uiso   1.00
C1344  C     0.07375   0.83299   0.52215   0.00000  Uiso   1.00
C1345  C     0.17333   0.83172   0.97588   0.00000  Uiso   1.00
C1346  C     0.15772   0.82664   0.52309   0.00000  Uiso   1.00
C1347  C     0.28972   0.77150   0.63172   0.00000  Uiso   1.00
C1348  C     0.27504   0.73903   0.60299   0.00000  Uiso   1.00
C1349  C     0.27158   0.69593   0.62440   0.00000  Uiso   1.00
C1350  C     0.02128   0.74856   0.86991   0.00000  Uiso   1.00
C1351  C     0.01953   0.71507   0.90564   0.00000  Uiso   1.00
C1352  C     0.01975   0.67197   0.88676   0.00000  Uiso   1.00
C1353  C     0.19562   0.76884   0.80031   0.00000  Uiso   1.00
C1354  C     0.13814   0.83793   0.95303   0.00000  Uiso   1.00
C1355  C     0.13769   0.89787   0.69976   0.00000  Uiso   1.00
C1356  C     0.23823   0.80513   0.52213   0.00000  Uiso   1.00
C1357  C     0.08908   0.83747   0.97584   0.00000  Uiso   1.00
C1358  C     0.29742   0.68767   0.73689   0.00000  Uiso   1.00
C1359  C     0.03602   0.97904   0.76280   0.00000  Uiso   1.00
C1360  C     0.29780   0.97831   0.73666   0.00000  Uiso   1.00
Cu1361 Cu    0.04689   0.83334   0.75000   0.00000  Uiso   1.00
Cu1362 Cu    0.28645   0.83333   0.75000   0.00000  Uiso   1.00
H1363  H     0.26188   0.79294   0.54000   0.00000  Uiso   1.00
H1364  H     0.06349   0.96323   0.77375   0.00000  Uiso   1.00
H1365  H     0.27022   0.96190   0.72600   0.00000  Uiso   1.00
H1366  H     0.06377   0.70475   0.77283   0.00000  Uiso   1.00
H1367  H     0.10798   0.78103   0.79193   0.00000  Uiso   1.00
H1368  H     0.22590   0.88521   0.70704   0.00000  Uiso   1.00
H1369  H     0.26081   0.77241   0.66395   0.00000  Uiso   1.00
H1370  H     0.32302   0.76129   0.63980   0.00000  Uiso   1.00
H1371  H     0.23910   0.74650   0.59895   0.00000  Uiso   1.00
H1372  H     0.30222   0.73903   0.56967   0.00000  Uiso   1.00
H1373  H     0.30688   0.68739   0.62924   0.00000  Uiso   1.00
H1374  H     0.06302   0.83995   0.95704   0.00000  Uiso   1.00
H1375  H     0.26161   0.67307   0.60242   0.00000  Uiso   1.00
H1376  H     0.24334   0.69476   0.65709   0.00000  Uiso   1.00
H1377  H     0.05232   0.74232   0.84076   0.00000  Uiso   1.00
H1378  H     0.32171   0.74624   0.85804   0.00000  Uiso   1.00
H1379  H     0.05137   0.71896   0.91855   0.00000  Uiso   1.00
H1380  H     0.31946   0.71789   0.93375   0.00000  Uiso   1.00
H1381  H     0.32160   0.66746   0.87349   0.00000  Uiso   1.00
H1382  H     0.01746   0.98171   0.91351   0.00000  Uiso   1.00
H1383  H     0.05367   0.66755   0.85962   0.00000  Uiso   1.00
H1384  H     0.16295   0.75429   0.82411   0.00000  Uiso   1.00
H1385  H     0.11705   0.83771   0.61177   0.00000  Uiso   1.00
H1386  H     0.21286   0.74437   0.77740   0.00000  Uiso   1.00
H1387  H     0.21867   0.77882   0.82083   0.00000  Uiso   1.00
H1388  H     0.17028   0.91238   0.67581   0.00000  Uiso   1.00
H1389  H     0.11437   0.88803   0.67945   0.00000  Uiso   1.00
H1390  H     0.12066   0.92235   0.72277   0.00000  Uiso   1.00
H1391  H     0.22147   0.85230   0.88894   0.00000  Uiso   1.00
H1392  H     0.32449   0.78539   0.97078   0.00000  Uiso   1.00
H1393  H     0.33146   0.82960   0.52635   0.00000  Uiso   1.00
H1394  H     0.18093   0.80669   0.58082   0.00000  Uiso   1.00
H1395  H     0.14715   0.84009   0.91719   0.00000  Uiso   1.00
H1396  H     0.26986   0.70353   0.72616   0.00000  Uiso   1.00
N1397  N     0.11736   0.83334   0.74999   0.00000  Uiso   1.00
N1398  N     0.21597   0.83332   0.75001   0.00000  Uiso   1.00
O1399  O     0.03958   0.77322   0.75000   0.00000  Uiso   1.00
O1400  O     0.02903   0.78838   0.88496   0.00000  Uiso   1.00
O1401  O     0.29375   0.89345   0.75000   0.00000  Uiso   1.00
O1402  O     0.29372   0.77321   0.75000   0.00000  Uiso   1.00
O1403  O     0.03961   0.89346   0.74999   0.00000  Uiso   1.00
O1404  O     0.01852   0.83334   0.81491   0.00000  Uiso   1.00
O1405  O     0.31481   0.83332   0.68508   0.00000  Uiso   1.00
O1406  O     0.27267   0.83333   0.81492   0.00000  Uiso   1.00
O1407  O     0.06067   0.83333   0.68508   0.00000  Uiso   1.00
O1408  O     0.29395   0.81148   0.61102   0.00000  Uiso   1.00
C1409  C     0.66641   0.75414   0.75004   0.00000  Uiso   1.00
C1410  C     0.36918   0.68837   0.76268   0.00000  Uiso   1.00
C1411  C     0.33378   0.95721   0.74965   0.00000  Uiso   1.00
C1412  C     0.66634   0.70948   0.75003   0.00000  Uiso   1.00
C1413  C     0.51572   0.80394   0.77416   0.00000  Uiso   1.00
C1414  C     0.48433   0.86269   0.72573   0.00000  Uiso   1.00
C1415  C     0.46668   0.80437   0.77368   0.00000  Uiso   1.00
C1416  C     0.53352   0.86213   0.72592   0.00000  Uiso   1.00
C1417  C     0.63905   0.83162   0.83572   0.00000  Uiso   1.00
C1418  C     0.36076   0.83204   0.66424   0.00000  Uiso   1.00
C1419  C     0.62295   0.82537   0.88422   0.00000  Uiso   1.00
C1420  C     0.33363   0.91253   0.74985   0.00000  Uiso   1.00
C1421  C     0.37580   0.82908   0.61543   0.00000  Uiso   1.00
C1422  C     0.63489   0.80009   0.95330   0.00000  Uiso   1.00
C1423  C     0.35771   0.82898   0.54475   0.00000  Uiso   1.00
C1424  C     0.65162   0.80475   0.90714   0.00000  Uiso   1.00
C1425  C     0.34220   0.82231   0.59091   0.00000  Uiso   1.00
C1426  C     0.57581   0.83634   0.90727   0.00000  Uiso   1.00
C1427  C     0.42508   0.83266   0.59277   0.00000  Uiso   1.00
C1428  C     0.55645   0.82701   0.95292   0.00000  Uiso   1.00
C1429  C     0.44151   0.83082   0.54620   0.00000  Uiso   1.00
C1430  C     0.58788   0.81127   0.97627   0.00000  Uiso   1.00
C1431  C     0.52448   0.81371   0.54550   0.00000  Uiso   1.00
C1432  C     0.40709   0.83299   0.52215   0.00000  Uiso   1.00
C1433  C     0.50667   0.83172   0.97588   0.00000  Uiso   1.00
C1434  C     0.49105   0.82664   0.52309   0.00000  Uiso   1.00
C1435  C     0.62305   0.77150   0.63172   0.00000  Uiso   1.00
C1436  C     0.60837   0.73903   0.60299   0.00000  Uiso   1.00
C1437  C     0.60491   0.69593   0.62440   0.00000  Uiso   1.00
C1438  C     0.35461   0.74856   0.86991   0.00000  Uiso   1.00
C1439  C     0.35287   0.71507   0.90564   0.00000  Uiso   1.00
C1440  C     0.35308   0.67197   0.88676   0.00000  Uiso   1.00
C1441  C     0.52895   0.76884   0.80031   0.00000  Uiso   1.00
C1442  C     0.47147   0.83793   0.95303   0.00000  Uiso   1.00
C1443  C     0.47102   0.89787   0.69976   0.00000  Uiso   1.00
C1444  C     0.57156   0.80513   0.52213   0.00000  Uiso   1.00
C1445  C     0.42241   0.83747   0.97584   0.00000  Uiso   1.00
C1446  C     0.63076   0.68767   0.73689   0.00000  Uiso   1.00
C1447  C     0.36936   0.97904   0.76280   0.00000  Uiso   1.00
C1448  C     0.63114   0.97831   0.73666   0.00000  Uiso   1.00
Cu1449 Cu    0.38022   0.83334   0.75000   0.00000  Uiso   1.00
Cu1450 Cu    0.61978   0.83333   0.75000   0.00000  Uiso   1.00
H1451  H     0.59521   0.79294   0.54000   0.00000  Uiso   1.00
H1452  H     0.39682   0.96323   0.77375   0.00000  Uiso   1.00
H1453  H     0.60355   0.96190   0.72600   0.00000  Uiso   1.00
H1454  H     0.39710   0.70475   0.77283   0.00000  Uiso   1.00
H1455  H     0.44131   0.78103   0.79193   0.00000  Uiso   1.00
H1456  H     0.55923   0.88521   0.70704   0.00000  Uiso   1.00
H1457  H     0.59414   0.77241   0.66395   0.00000  Uiso   1.00
H1458  H     0.65636   0.76129   0.63980   0.00000  Uiso   1.00
H1459  H     0.57243   0.74650   0.59895   0.00000  Uiso   1.00
H1460  H     0.63556   0.73903   0.56967   0.00000  Uiso   1.00
H1461  H     0.64021   0.68739   0.62924   0.00000  Uiso   1.00
H1462  H     0.39635   0.83995   0.95704   0.00000  Uiso   1.00
H1463  H     0.59495   0.67307   0.60242   0.00000  Uiso   1.00
H1464  H     0.57668   0.69476   0.65709   0.00000  Uiso   1.00
H1465  H     0.38566   0.74232   0.84076   0.00000  Uiso   1.00
H1466  H     0.65505   0.74624   0.85804   0.00000  Uiso   1.00
H1467  H     0.38471   0.71896   0.91855   0.00000  Uiso   1.00
H1468  H     0.65280   0.71789   0.93375   0.00000  Uiso   1.00
H1469  H     0.65494   0.66746   0.87349   0.00000  Uiso   1.00
H1470  H     0.35079   0.98171   0.91351   0.00000  Uiso   1.00
H1471  H     0.38700   0.66755   0.85962   0.00000  Uiso   1.00
H1472  H     0.49629   0.75429   0.82411   0.00000  Uiso   1.00
H1473  H     0.45038   0.83771   0.61177   0.00000  Uiso   1.00
H1474  H     0.54620   0.74437   0.77740   0.00000  Uiso   1.00
H1475  H     0.55200   0.77882   0.82083   0.00000  Uiso   1.00
H1476  H     0.50361   0.91238   0.67581   0.00000  Uiso   1.00
H1477  H     0.44770   0.88803   0.67945   0.00000  Uiso   1.00
H1478  H     0.45399   0.92235   0.72277   0.00000  Uiso   1.00
H1479  H     0.55480   0.85230   0.88894   0.00000  Uiso   1.00
H1480  H     0.65783   0.78539   0.97078   0.00000  Uiso   1.00
H1481  H     0.66479   0.82960   0.52635   0.00000  Uiso   1.00
H1482  H     0.51427   0.80669   0.58082   0.00000  Uiso   1.00
H1483  H     0.48048   0.84009   0.91719   0.00000  Uiso   1.00
H1484  H     0.60320   0.70353   0.72616   0.00000  Uiso   1.00
N1485  N     0.45069   0.83334   0.74999   0.00000  Uiso   1.00
N1486  N     0.54931   0.83332   0.75001   0.00000  Uiso   1.00
O1487  O     0.37291   0.77322   0.75000   0.00000  Uiso   1.00
O1488  O     0.36237   0.78838   0.88496   0.00000  Uiso   1.00
O1489  O     0.62709   0.89345   0.75000   0.00000  Uiso   1.00
O1490  O     0.62706   0.77321   0.75000   0.00000  Uiso   1.00
O1491  O     0.37294   0.89346   0.74999   0.00000  Uiso   1.00
O1492  O     0.35186   0.83334   0.81491   0.00000  Uiso   1.00
O1493  O     0.64814   0.83332   0.68508   0.00000  Uiso   1.00
O1494  O     0.60600   0.83333   0.81492   0.00000  Uiso   1.00
O1495  O     0.39400   0.83333   0.68508   0.00000  Uiso   1.00
O1496  O     0.62729   0.81148   0.61102   0.00000  Uiso   1.00
C1497  C     0.99974   0.75414   0.75004   0.00000  Uiso   1.00
C1498  C     0.70251   0.68837   0.76268   0.00000  Uiso   1.00
C1499  C     0.66712   0.95721   0.74965   0.00000  Uiso   1.00
C1500  C     0.99967   0.70948   0.75003   0.00000  Uiso   1.00
C1501  C     0.84905   0.80394   0.77416   0.00000  Uiso   1.00
C1502  C     0.81767   0.86269   0.72573   0.00000  Uiso   1.00
C1503  C     0.80002   0.80437   0.77368   0.00000  Uiso   1.00
C1504  C     0.86685   0.86213   0.72592   0.00000  Uiso   1.00
C1505  C     0.97238   0.83162   0.83572   0.00000  Uiso   1.00
C1506  C     0.69410   0.83204   0.66424   0.00000  Uiso   1.00
C1507  C     0.95628   0.82537   0.88422   0.00000  Uiso   1.00
C1508  C     0.66696   0.91253   0.74985   0.00000  Uiso   1.00
C1509  C     0.70913   0.82908   0.61543   0.00000  Uiso   1.00
C1510  C     0.96822   0.80009   0.95330   0.00000  Uiso   1.00
C1511  C     0.69104   0.82898   0.54475   0.00000  Uiso   1.00
C1512  C     0.98495   0.80475   0.90714   0.00000  Uiso   1.00
C1513  C     0.67553   0.82231   0.59091   0.00000  Uiso   1.00
C1514  C     0.90915   0.83634   0.90727   0.00000  Uiso   1.00
C1515  C     0.75842   0.83266   0.59277   0.00000  Uiso   1.00
C1516  C     0.88978   0.82701   0.95292   0.00000  Uiso   1.00
C1517  C     0.77484   0.83082   0.54620   0.00000  Uiso   1.00
C1518  C     0.92122   0.81127   0.97627   0.00000  Uiso   1.00
C1519  C     0.85782   0.81371   0.54550   0.00000  Uiso   1.00
C1520  C     0.74042   0.83299   0.52215   0.00000  Uiso   1.00
C1521  C     0.84000   0.83172   0.97588   0.00000  Uiso   1.00
C1522  C     0.82438   0.82664   0.52309   0.00000  Uiso   1.00
C1523  C     0.95638   0.77150   0.63172   0.00000  Uiso   1.00
C1524  C     0.94170   0.73903   0.60299   0.00000  Uiso   1.00
C1525  C     0.93825   0.69593   0.62440   0.00000  Uiso   1.00
C1526  C     0.68794   0.74856   0.86991   0.00000  Uiso   1.00
C1527  C     0.68620   0.71507   0.90564   0.00000  Uiso   1.00
C1528  C     0.68641   0.67197   0.88676   0.00000  Uiso   1.00
C1529  C     0.86229   0.76884   0.80031   0.00000  Uiso   1.00
C1530  C     0.80481   0.83793   0.95303   0.00000  Uiso   1.00
C1531  C     0.80436   0.89787   0.69976   0.00000  Uiso   1.00
C1532  C     0.90489   0.80513   0.52213   0.00000  Uiso   1.00
C1533  C     0.75575   0.83747   0.97584   0.00000  Uiso   1.00
C1534  C     0.96409   0.68767   0.73689   0.00000  Uiso   1.00
C1535  C     0.70269   0.97904   0.76280   0.00000  Uiso   1.00
C1536  C     0.96447   0.97831   0.73666   0.00000  Uiso   1.00
Cu1537 Cu    0.71355   0.83334   0.75000   0.00000  Uiso   1.00
Cu1538 Cu    0.95311   0.83333   0.75000   0.00000  Uiso   1.00
H1539  H     0.92855   0.79294   0.54000   0.00000  Uiso   1.00
H1540  H     0.73016   0.96323   0.77375   0.00000  Uiso   1.00
H1541  H     0.93689   0.96190   0.72600   0.00000  Uiso   1.00
H1542  H     0.73043   0.70475   0.77283   0.00000  Uiso   1.00
H1543  H     0.77464   0.78103   0.79193   0.00000  Uiso   1.00
H1544  H     0.89257   0.88521   0.70704   0.00000  Uiso   1.00
H1545  H     0.92748   0.77241   0.66395   0.00000  Uiso   1.00
H1546  H     0.98969   0.76129   0.63980   0.00000  Uiso   1.00
H1547  H     0.90576   0.74650   0.59895   0.00000  Uiso   1.00
H1548  H     0.96889   0.73903   0.56967   0.00000  Uiso   1.00
H1549  H     0.97354   0.68739   0.62924   0.00000  Uiso   1.00
H1550  H     0.72969   0.83995   0.95704   0.00000  Uiso   1.00
H1551  H     0.92828   0.67307   0.60242   0.00000  Uiso   1.00
H1552  H     0.91001   0.69476   0.65709   0.00000  Uiso   1.00
H1553  H     0.71899   0.74232   0.84076   0.00000  Uiso   1.00
H1554  H     0.98838   0.74624   0.85804   0.00000  Uiso   1.00
H1555  H     0.71804   0.71896   0.91855   0.00000  Uiso   1.00
H1556  H     0.98613   0.71789   0.93375   0.00000  Uiso   1.00
H1557  H     0.98827   0.66746   0.87349   0.00000  Uiso   1.00
H1558  H     0.68412   0.98171   0.91351   0.00000  Uiso   1.00
H1559  H     0.72033   0.66755   0.85962   0.00000  Uiso   1.00
H1560  H     0.82962   0.75429   0.82411   0.00000  Uiso   1.00
H1561  H     0.78371   0.83771   0.61177   0.00000  Uiso   1.00
H1562  H     0.87953   0.74437   0.77740   0.00000  Uiso   1.00
H1563  H     0.88534   0.77882   0.82083   0.00000  Uiso   1.00
H1564  H     0.83695   0.91238   0.67581   0.00000  Uiso   1.00
H1565  H     0.78103   0.88803   0.67945   0.00000  Uiso   1.00
H1566  H     0.78732   0.92235   0.72277   0.00000  Uiso   1.00
H1567  H     0.88813   0.85230   0.88894   0.00000  Uiso   1.00
H1568  H     0.99116   0.78539   0.97078   0.00000  Uiso   1.00
H1569  H     0.99813   0.82960   0.52635   0.00000  Uiso   1.00
H1570  H     0.84760   0.80669   0.58082   0.00000  Uiso   1.00
H1571  H     0.81381   0.84009   0.91719   0.00000  Uiso   1.00
H1572  H     0.93653   0.70353   0.72616   0.00000  Uiso   1.00
N1573  N     0.78403   0.83334   0.74999   0.00000  Uiso   1.00
N1574  N     0.88264   0.83332   0.75001   0.00000  Uiso   1.00
O1575  O     0.70625   0.77322   0.75000   0.00000  Uiso   1.00
O1576  O     0.69570   0.78838   0.88496   0.00000  Uiso   1.00
O1577  O     0.96042   0.89345   0.75000   0.00000  Uiso   1.00
O1578  O     0.96039   0.77321   0.75000   0.00000  Uiso   1.00
O1579  O     0.70628   0.89346   0.74999   0.00000  Uiso   1.00
O1580  O     0.68519   0.83334   0.81491   0.00000  Uiso   1.00
O1581  O     0.98148   0.83332   0.68508   0.00000  Uiso   1.00
O1582  O     0.93933   0.83333   0.81492   0.00000  Uiso   1.00
O1583  O     0.72733   0.83333   0.68508   0.00000  Uiso   1.00
O1584  O     0.96062   0.81148   0.61102   0.00000  Uiso   1.00
loop_
_geom_bond_atom_site_label_1
_geom_bond_atom_site_label_2
_geom_bond_distance
_geom_bond_site_symmetry_2
_ccdc_geom_bond_type
C1     C4      1.447   .     S
C1     O82     1.303   .     A
C1     O167    1.296   .     S
C2     H46     1.083   .     S
C2     C180    1.402   1_455 S
C2     C567    1.383   1_545 S
C3     C12     1.448   .     S
C3     C39     1.398   .     A
C3     C216    1.403   1_455 S
C4     C38     1.398   .     A
C4     C90     1.402   .     S
C5     C33     1.506   .     S
C5     C7      1.420   .     A
C5     N78     1.392   .     A
C6     C35     1.506   .     S
C6     N77     1.394   .     A
C6     C8      1.422   .     A
C7     N77     1.353   .     A
C7     H47     1.076   .     S
C8     N78     1.354   .     A
C8     H48     1.083   .     S
C9     O86     1.302   .     A
C9     C11     1.465   .     S
C9     O172    1.304   .     S
C10    O87     1.307   .     A
C10    C13     1.471   .     S
C10    O261    1.301   1_455 S
C11    C18     1.401   .     A
C11    C16     1.410   .     A
C12    O83     1.303   .     A
C12    O257    1.296   1_455 S
C13    C19     1.398   .     A
C13    C17     1.417   .     A
C14    C16     1.392   .     A
C14    H72     1.083   .     S
C14    C22     1.399   .     A
C15    C24     1.400   .     A
C15    C17     1.397   .     A
C15    H249    1.076   1_455 S
C16    O168    1.383   .     S
C17    O264    1.389   1_455 S
C18    H71     1.079   .     S
C18    C20     1.403   .     A
C19    C21     1.402   .     A
C19    H65     1.079   .     S
C20    C25     1.423   .     A
C20    C22     1.414   .     A
C21    C26     1.416   .     A
C21    C24     1.411   .     A
C22    C828    1.387   .     S
C23    C26     1.411   .     A
C23    H74     1.079   .     S
C23    C36     1.382   .     A
C24    C829    1.394   1_554 S
C25    C34     1.415   .     A
C25    C818    1.423   .     S
C26    C817    1.423   1_554 S
C27    H50     1.116   .     S
C27    O88     1.425   .     S
C27    C28     1.529   .     S
C27    H49     1.112   .     S
C28    C29     1.527   .     S
C28    H51     1.111   .     S
C28    H52     1.112   .     S
C29    H55     1.110   .     S
C29    H56     1.111   .     S
C29    H53     1.111   .     S
C30    C31     1.533   .     S
C30    H57     1.105   .     S
C30    O80     1.419   .     S
C30    H234    1.117   1_455 S
C31    H59     1.112   .     S
C31    C32     1.527   .     S
C31    H236    1.110   1_455 S
C32    H63     1.111   .     S
C32    H237    1.111   1_455 S
C32    H590    1.110   1_545 S
C33    H66     1.106   .     S
C33    H67     1.099   .     S
C33    H64     1.111   .     S
C34    C37     1.391   .     A
C34    H75     1.078   .     S
C35    H70     1.106   .     S
C35    H68     1.111   .     S
C35    H69     1.099   .     S
C36    H43     1.075   .     S
C36    C814    1.387   1_554 S
C37    H54     1.084   .     S
C37    C816    1.394   .     S
C38    H76     1.082   .     S
C38    C568    1.384   1_545 S
C39    H44     1.082   .     S
C39    C266    1.383   .     S
C40    H45     1.083   .     S
C40    C91     1.403   .     S
C40    C302    1.384   .     S
Cu41   N77     2.034   .     S
Cu41   O87     1.958   .     S
Cu41   O84     1.963   .     S
Cu41   O79     1.956   .     S
Cu41   O83     1.963   .     S
Cu41   Cu218   2.707   1_455 S
Cu42   O82     1.963   .     S
Cu42   O86     1.958   .     S
Cu42   O81     1.956   .     S
Cu42   O85     1.963   .     S
Cu42   N78     2.034   .     S
Cu42   Cu129   2.707   .     S
H58    C118    1.117   .     S
H60    C119    1.110   .     S
H61    C120    1.111   .     S
H62    C296    1.110   .     S
H73    C103    1.076   .     S
O79    C177    1.296   1_455 S
O80    C192    1.383   1_455 S
O81    C100    1.296   .     S
O84    C185    1.304   1_455 S
O85    C98     1.301   .     S
O88    C105    1.389   .     S
C89    C92     1.447   .     S
C89    O170    1.303   .     A
C89    O255    1.296   .     S
C90    H134    1.083   .     S
C90    C655    1.383   1_545 S
C91    C100    1.448   .     S
C91    C127    1.398   .     A
C92    C126    1.398   .     A
C92    C178    1.402   .     S
C93    C121    1.506   .     S
C93    C95     1.420   .     A
C93    N166    1.392   .     A
C94    C123    1.506   .     S
C94    N165    1.394   .     A
C94    C96     1.422   .     A
C95    N165    1.353   .     A
C95    H135    1.076   .     S
C96    N166    1.354   .     A
C96    H136    1.083   .     S
C97    O174    1.302   .     A
C97    C99     1.465   .     S
C97    O260    1.304   .     S
C98    O175    1.307   .     A
C98    C101    1.471   .     S
C99    C106    1.401   .     A
C99    C104    1.410   .     A
C100   O171    1.303   .     A
C101   C107    1.398   .     A
C101   C105    1.417   .     A
C102   C104    1.392   .     A
C102   H160    1.083   .     S
C102   C110    1.399   .     A
C103   C112    1.400   .     A
C103   C105    1.397   .     A
C104   O256    1.383   .     S
C106   H159    1.079   .     S
C106   C108    1.403   .     A
C107   C109    1.402   .     A
C107   H153    1.079   .     S
C108   C113    1.423   .     A
C108   C110    1.414   .     A
C109   C114    1.416   .     A
C109   C112    1.411   .     A
C110   C916    1.387   .     S
C111   C114    1.411   .     A
C111   H162    1.079   .     S
C111   C124    1.382   .     A
C112   C917    1.394   1_554 S
C113   C122    1.415   .     A
C113   C906    1.423   .     S
C114   C905    1.423   1_554 S
C115   H138    1.116   .     S
C115   O176    1.425   .     S
C115   C116    1.529   .     S
C115   H137    1.112   .     S
C116   C117    1.527   .     S
C116   H139    1.111   .     S
C116   H140    1.112   .     S
C117   H143    1.110   .     S
C117   H144    1.111   .     S
C117   H141    1.111   .     S
C118   C119    1.533   .     S
C118   H145    1.105   .     S
C118   O168    1.419   .     S
C119   H147    1.112   .     S
C119   C120    1.527   .     S
C120   H151    1.111   .     S
C120   H678    1.110   1_545 S
C121   H154    1.106   .     S
C121   H155    1.099   .     S
C121   H152    1.111   .     S
C122   C125    1.391   .     A
C122   H163    1.078   .     S
C123   H158    1.106   .     S
C123   H156    1.111   .     S
C123   H157    1.099   .     S
C124   H131    1.075   .     S
C124   C902    1.387   1_554 S
C125   H142    1.084   .     S
C125   C904    1.394   .     S
C126   H164    1.082   .     S
C126   C656    1.384   1_545 S
C127   H132    1.082   .     S
C127   C354    1.383   .     S
C128   H133    1.083   .     S
C128   C179    1.403   .     S
C128   C390    1.384   .     S
Cu129  N165    2.034   .     S
Cu129  O175    1.958   .     S
Cu129  O172    1.963   .     S
Cu129  O167    1.956   .     S
Cu129  O171    1.963   .     S
Cu130  O170    1.963   .     S
Cu130  O174    1.958   .     S
Cu130  O169    1.956   .     S
Cu130  O173    1.963   .     S
Cu130  N166    2.034   .     S
Cu130  Cu217   2.707   .     S
H146   C206    1.117   .     S
H148   C207    1.110   .     S
H149   C208    1.111   .     S
H150   C384    1.110   .     S
H161   C191    1.076   .     S
O169   C188    1.296   .     S
O173   C186    1.301   .     S
O176   C193    1.389   .     S
C177   C180    1.447   .     S
C177   O258    1.303   .     A
C177   O79     1.296   1_655 S
C178   H222    1.083   .     S
C178   C743    1.383   1_545 S
C179   C188    1.448   .     S
C179   C215    1.398   .     A
C180   C214    1.398   .     A
C180   C2      1.402   1_655 S
C181   C209    1.506   .     S
C181   C183    1.420   .     A
C181   N254    1.392   .     A
C182   C211    1.506   .     S
C182   N253    1.394   .     A
C182   C184    1.422   .     A
C183   N253    1.353   .     A
C183   H223    1.076   .     S
C184   N254    1.354   .     A
C184   H224    1.083   .     S
C185   O262    1.302   .     A
C185   C187    1.465   .     S
C185   O84     1.304   1_655 S
C186   O263    1.307   .     A
C186   C189    1.471   .     S
C187   C194    1.401   .     A
C187   C192    1.410   .     A
C188   O259    1.303   .     A
C189   C195    1.398   .     A
C189   C193    1.417   .     A
C190   C192    1.392   .     A
C190   H248    1.083   .     S
C190   C198    1.399   .     A
C191   C200    1.400   .     A
C191   C193    1.397   .     A
C192   O80     1.383   1_655 S
C194   H247    1.079   .     S
C194   C196    1.403   .     A
C195   C197    1.402   .     A
C195   H241    1.079   .     S
C196   C201    1.423   .     A
C196   C198    1.414   .     A
C197   C202    1.416   .     A
C197   C200    1.411   .     A
C198   C1004   1.387   .     S
C199   C202    1.411   .     A
C199   H250    1.079   .     S
C199   C212    1.382   .     A
C200   C1005   1.394   1_554 S
C201   C210    1.415   .     A
C201   C994    1.423   .     S
C202   C993    1.423   1_554 S
C203   H226    1.116   .     S
C203   O264    1.425   .     S
C203   C204    1.529   .     S
C203   H225    1.112   .     S
C204   C205    1.527   .     S
C204   H227    1.111   .     S
C204   H228    1.112   .     S
C205   H231    1.110   .     S
C205   H232    1.111   .     S
C205   H229    1.111   .     S
C206   C207    1.533   .     S
C206   H233    1.105   .     S
C206   O256    1.419   .     S
C207   H235    1.112   .     S
C207   C208    1.527   .     S
C208   H239    1.111   .     S
C208   H766    1.110   1_545 S
C209   H242    1.106   .     S
C209   H243    1.099   .     S
C209   H240    1.111   .     S
C210   C213    1.391   .     A
C210   H251    1.078   .     S
C211   H246    1.106   .     S
C211   H244    1.111   .     S
C211   H245    1.099   .     S
C212   H219    1.075   .     S
C212   C990    1.387   1_554 S
C213   H230    1.084   .     S
C213   C992    1.394   .     S
C214   H252    1.082   .     S
C214   C744    1.384   1_545 S
C215   H220    1.082   .     S
C215   C442    1.383   .     S
C216   H221    1.083   .     S
C216   C3      1.403   1_655 S
C216   C478    1.384   .     S
Cu217  N253    2.034   .     S
Cu217  O263    1.958   .     S
Cu217  O260    1.963   .     S
Cu217  O255    1.956   .     S
Cu217  O259    1.963   .     S
Cu218  O258    1.963   .     S
Cu218  O262    1.958   .     S
Cu218  O257    1.956   .     S
Cu218  O261    1.963   .     S
Cu218  N254    2.034   .     S
Cu218  Cu41    2.707   1_655 S
H234   C30     1.117   1_655 S
H236   C31     1.110   1_655 S
H237   C32     1.111   1_655 S
H238   C472    1.110   .     S
H249   C15     1.076   1_655 S
O257   C12     1.296   1_655 S
O261   C10     1.301   1_655 S
O264   C17     1.389   1_655 S
C265   C268    1.447   .     S
C265   O346    1.303   .     A
C265   O431    1.296   .     S
C266   H310    1.083   .     S
C266   C444    1.402   1_455 S
C267   C276    1.448   .     S
C267   C303    1.398   .     A
C267   C480    1.403   1_455 S
C268   C302    1.398   .     A
C268   C354    1.402   .     S
C269   C297    1.506   .     S
C269   C271    1.420   .     A
C269   N342    1.392   .     A
C270   C299    1.506   .     S
C270   N341    1.394   .     A
C270   C272    1.422   .     A
C271   N341    1.353   .     A
C271   H311    1.076   .     S
C272   N342    1.354   .     A
C272   H312    1.083   .     S
C273   O350    1.302   .     A
C273   C275    1.465   .     S
C273   O436    1.304   .     S
C274   O351    1.307   .     A
C274   C277    1.471   .     S
C274   O525    1.301   1_455 S
C275   C282    1.401   .     A
C275   C280    1.410   .     A
C276   O347    1.303   .     A
C276   O521    1.296   1_455 S
C277   C283    1.398   .     A
C277   C281    1.417   .     A
C278   C280    1.392   .     A
C278   H336    1.083   .     S
C278   C286    1.399   .     A
C279   C288    1.400   .     A
C279   C281    1.397   .     A
C279   H513    1.076   1_455 S
C280   O432    1.383   .     S
C281   O528    1.389   1_455 S
C282   H335    1.079   .     S
C282   C284    1.403   .     A
C283   C285    1.402   .     A
C283   H329    1.079   .     S
C284   C289    1.423   .     A
C284   C286    1.414   .     A
C285   C290    1.416   .     A
C285   C288    1.411   .     A
C286   C1092   1.387   .     S
C287   C290    1.411   .     A
C287   H338    1.079   .     S
C287   C300    1.382   .     A
C288   C1093   1.394   1_554 S
C289   C298    1.415   .     A
C289   C1082   1.423   .     S
C290   C1081   1.423   1_554 S
C291   H314    1.116   .     S
C291   O352    1.425   .     S
C291   C292    1.529   .     S
C291   H313    1.112   .     S
C292   C293    1.527   .     S
C292   H315    1.111   .     S
C292   H316    1.112   .     S
C293   H319    1.110   .     S
C293   H320    1.111   .     S
C293   H317    1.111   .     S
C294   C295    1.533   .     S
C294   H321    1.105   .     S
C294   O344    1.419   .     S
C294   H498    1.117   1_455 S
C295   H323    1.112   .     S
C295   C296    1.527   .     S
C295   H500    1.110   1_455 S
C296   H327    1.111   .     S
C296   H501    1.111   1_455 S
C297   H330    1.106   .     S
C297   H331    1.099   .     S
C297   H328    1.111   .     S
C298   C301    1.391   .     A
C298   H339    1.078   .     S
C299   H334    1.106   .     S
C299   H332    1.111   .     S
C299   H333    1.099   .     S
C300   H307    1.075   .     S
C300   C1078   1.387   1_554 S
C301   H318    1.084   .     S
C301   C1080   1.394   .     S
C302   H340    1.082   .     S
C303   H308    1.082   .     S
C303   C530    1.383   .     S
C304   H309    1.083   .     S
C304   C355    1.403   .     S
C304   C566    1.384   .     S
Cu305  N341    2.034   .     S
Cu305  O351    1.958   .     S
Cu305  O348    1.963   .     S
Cu305  O343    1.956   .     S
Cu305  O347    1.963   .     S
Cu305  Cu482   2.707   1_455 S
Cu306  O346    1.963   .     S
Cu306  O350    1.958   .     S
Cu306  O345    1.956   .     S
Cu306  O349    1.963   .     S
Cu306  N342    2.034   .     S
Cu306  Cu393   2.707   .     S
H322   C382    1.117   .     S
H324   C383    1.110   .     S
H325   C384    1.111   .     S
H326   C560    1.110   .     S
H337   C367    1.076   .     S
O343   C441    1.296   1_455 S
O344   C456    1.383   1_455 S
O345   C364    1.296   .     S
O348   C449    1.304   1_455 S
O349   C362    1.301   .     S
O352   C369    1.389   .     S
C353   C356    1.447   .     S
C353   O434    1.303   .     A
C353   O519    1.296   .     S
C354   H398    1.083   .     S
C355   C364    1.448   .     S
C355   C391    1.398   .     A
C356   C390    1.398   .     A
C356   C442    1.402   .     S
C357   C385    1.506   .     S
C357   C359    1.420   .     A
C357   N430    1.392   .     A
C358   C387    1.506   .     S
C358   N429    1.394   .     A
C358   C360    1.422   .     A
C359   N429    1.353   .     A
C359   H399    1.076   .     S
C360   N430    1.354   .     A
C360   H400    1.083   .     S
C361   O438    1.302   .     A
C361   C363    1.465   .     S
C361   O524    1.304   .     S
C362   O439    1.307   .     A
C362   C365    1.471   .     S
C363   C370    1.401   .     A
C363   C368    1.410   .     A
C364   O435    1.303   .     A
C365   C371    1.398   .     A
C365   C369    1.417   .     A
C366   C368    1.392   .     A
C366   H424    1.083   .     S
C366   C374    1.399   .     A
C367   C376    1.400   .     A
C367   C369    1.397   .     A
C368   O520    1.383   .     S
C370   H423    1.079   .     S
C370   C372    1.403   .     A
C371   C373    1.402   .     A
C371   H417    1.079   .     S
C372   C377    1.423   .     A
C372   C374    1.414   .     A
C373   C378    1.416   .     A
C373   C376    1.411   .     A
C374   C1180   1.387   .     S
C375   C378    1.411   .     A
C375   H426    1.079   .     S
C375   C388    1.382   .     A
C376   C1181   1.394   1_554 S
C377   C386    1.415   .     A
C377   C1170   1.423   .     S
C378   C1169   1.423   1_554 S
C379   H402    1.116   .     S
C379   O440    1.425   .     S
C379   C380    1.529   .     S
C379   H401    1.112   .     S
C380   C381    1.527   .     S
C380   H403    1.111   .     S
C380   H404    1.112   .     S
C381   H407    1.110   .     S
C381   H408    1.111   .     S
C381   H405    1.111   .     S
C382   C383    1.533   .     S
C382   H409    1.105   .     S
C382   O432    1.419   .     S
C383   H411    1.112   .     S
C383   C384    1.527   .     S
C384   H415    1.111   .     S
C385   H418    1.106   .     S
C385   H419    1.099   .     S
C385   H416    1.111   .     S
C386   C389    1.391   .     A
C386   H427    1.078   .     S
C387   H422    1.106   .     S
C387   H420    1.111   .     S
C387   H421    1.099   .     S
C388   H395    1.075   .     S
C388   C1166   1.387   1_554 S
C389   H406    1.084   .     S
C389   C1168   1.394   .     S
C390   H428    1.082   .     S
C391   H396    1.082   .     S
C391   C618    1.383   .     S
C392   H397    1.083   .     S
C392   C443    1.403   .     S
C392   C654    1.384   .     S
Cu393  N429    2.034   .     S
Cu393  O439    1.958   .     S
Cu393  O436    1.963   .     S
Cu393  O431    1.956   .     S
Cu393  O435    1.963   .     S
Cu394  O434    1.963   .     S
Cu394  O438    1.958   .     S
Cu394  O433    1.956   .     S
Cu394  O437    1.963   .     S
Cu394  N430    2.034   .     S
Cu394  Cu481   2.707   .     S
H410   C470    1.117   .     S
H412   C471    1.110   .     S
H413   C472    1.111   .     S
H414   C648    1.110   .     S
H425   C455    1.076   .     S
O433   C452    1.296   .     S
O437   C450    1.301   .     S
O440   C457    1.389   .     S
C441   C444    1.447   .     S
C441   O522    1.303   .     A
C441   O343    1.296   1_655 S
C442   H486    1.083   .     S
C443   C452    1.448   .     S
C443   C479    1.398   .     A
C444   C478    1.398   .     A
C444   C266    1.402   1_655 S
C445   C473    1.506   .     S
C445   C447    1.420   .     A
C445   N518    1.392   .     A
C446   C475    1.506   .     S
C446   N517    1.394   .     A
C446   C448    1.422   .     A
C447   N517    1.353   .     A
C447   H487    1.076   .     S
C448   N518    1.354   .     A
C448   H488    1.083   .     S
C449   O526    1.302   .     A
C449   C451    1.465   .     S
C449   O348    1.304   1_655 S
C450   O527    1.307   .     A
C450   C453    1.471   .     S
C451   C458    1.401   .     A
C451   C456    1.410   .     A
C452   O523    1.303   .     A
C453   C459    1.398   .     A
C453   C457    1.417   .     A
C454   C456    1.392   .     A
C454   H512    1.083   .     S
C454   C462    1.399   .     A
C455   C464    1.400   .     A
C455   C457    1.397   .     A
C456   O344    1.383   1_655 S
C458   H511    1.079   .     S
C458   C460    1.403   .     A
C459   C461    1.402   .     A
C459   H505    1.079   .     S
C460   C465    1.423   .     A
C460   C462    1.414   .     A
C461   C466    1.416   .     A
C461   C464    1.411   .     A
C462   C1268   1.387   .     S
C463   C466    1.411   .     A
C463   H514    1.079   .     S
C463   C476    1.382   .     A
C464   C1269   1.394   1_554 S
C465   C474    1.415   .     A
C465   C1258   1.423   .     S
C466   C1257   1.423   1_554 S
C467   H490    1.116   .     S
C467   O528    1.425   .     S
C467   C468    1.529   .     S
C467   H489    1.112   .     S
C468   C469    1.527   .     S
C468   H491    1.111   .     S
C468   H492    1.112   .     S
C469   H495    1.110   .     S
C469   H496    1.111   .     S
C469   H493    1.111   .     S
C470   C471    1.533   .     S
C470   H497    1.105   .     S
C470   O520    1.419   .     S
C471   H499    1.112   .     S
C471   C472    1.527   .     S
C472   H503    1.111   .     S
C473   H506    1.106   .     S
C473   H507    1.099   .     S
C473   H504    1.111   .     S
C474   C477    1.391   .     A
C474   H515    1.078   .     S
C475   H510    1.106   .     S
C475   H508    1.111   .     S
C475   H509    1.099   .     S
C476   H483    1.075   .     S
C476   C1254   1.387   1_554 S
C477   H494    1.084   .     S
C477   C1256   1.394   .     S
C478   H516    1.082   .     S
C479   H484    1.082   .     S
C479   C706    1.383   .     S
C480   H485    1.083   .     S
C480   C267    1.403   1_655 S
C480   C742    1.384   .     S
Cu481  N517    2.034   .     S
Cu481  O527    1.958   .     S
Cu481  O524    1.963   .     S
Cu481  O519    1.956   .     S
Cu481  O523    1.963   .     S
Cu482  O522    1.963   .     S
Cu482  O526    1.958   .     S
Cu482  O521    1.956   .     S
Cu482  O525    1.963   .     S
Cu482  N518    2.034   .     S
Cu482  Cu305   2.707   1_655 S
H498   C294    1.117   1_655 S
H500   C295    1.110   1_655 S
H501   C296    1.111   1_655 S
H502   C736    1.110   .     S
H513   C279    1.076   1_655 S
O521   C276    1.296   1_655 S
O525   C274    1.301   1_655 S
O528   C281    1.389   1_655 S
C529   C532    1.447   .     S
C529   O610    1.303   .     A
C529   O695    1.296   .     S
C530   H574    1.083   .     S
C530   C708    1.402   1_455 S
C531   C540    1.448   .     S
C531   C567    1.398   .     A
C531   C744    1.403   1_455 S
C532   C566    1.398   .     A
C532   C618    1.402   .     S
C533   C561    1.506   .     S
C533   C535    1.420   .     A
C533   N606    1.392   .     A
C534   C563    1.506   .     S
C534   N605    1.394   .     A
C534   C536    1.422   .     A
C535   N605    1.353   .     A
C535   H575    1.076   .     S
C536   N606    1.354   .     A
C536   H576    1.083   .     S
C537   O614    1.302   .     A
C537   C539    1.465   .     S
C537   O700    1.304   .     S
C538   O615    1.307   .     A
C538   C541    1.471   .     S
C538   O789    1.301   1_455 S
C539   C546    1.401   .     A
C539   C544    1.410   .     A
C540   O611    1.303   .     A
C540   O785    1.296   1_455 S
C541   C547    1.398   .     A
C541   C545    1.417   .     A
C542   C544    1.392   .     A
C542   H600    1.083   .     S
C542   C550    1.399   .     A
C543   C552    1.400   .     A
C543   C545    1.397   .     A
C543   H777    1.076   1_455 S
C544   O696    1.383   .     S
C545   O792    1.389   1_455 S
C546   H599    1.079   .     S
C546   C548    1.403   .     A
C547   C549    1.402   .     A
C547   H593    1.079   .     S
C548   C553    1.423   .     A
C548   C550    1.414   .     A
C549   C554    1.416   .     A
C549   C552    1.411   .     A
C550   C1356   1.387   .     S
C551   C554    1.411   .     A
C551   H602    1.079   .     S
C551   C564    1.382   .     A
C552   C1357   1.394   1_554 S
C553   C562    1.415   .     A
C553   C1346   1.423   .     S
C554   C1345   1.423   1_554 S
C555   H578    1.116   .     S
C555   O616    1.425   .     S
C555   C556    1.529   .     S
C555   H577    1.112   .     S
C556   C557    1.527   .     S
C556   H579    1.111   .     S
C556   H580    1.112   .     S
C557   H583    1.110   .     S
C557   H584    1.111   .     S
C557   H581    1.111   .     S
C558   C559    1.533   .     S
C558   H585    1.105   .     S
C558   O608    1.419   .     S
C558   H762    1.117   1_455 S
C559   H587    1.112   .     S
C559   C560    1.527   .     S
C559   H764    1.110   1_455 S
C560   H591    1.111   .     S
C560   H765    1.111   1_455 S
C561   H594    1.106   .     S
C561   H595    1.099   .     S
C561   H592    1.111   .     S
C562   C565    1.391   .     A
C562   H603    1.078   .     S
C563   H598    1.106   .     S
C563   H596    1.111   .     S
C563   H597    1.099   .     S
C564   H571    1.075   .     S
C564   C1342   1.387   1_554 S
C565   H582    1.084   .     S
C565   C1344   1.394   .     S
C566   H604    1.082   .     S
C567   H572    1.082   .     S
C567   C2      1.383   1_565 S
C568   H573    1.083   .     S
C568   C619    1.403   .     S
C568   C38     1.384   1_565 S
Cu569  N605    2.034   .     S
Cu569  O615    1.958   .     S
Cu569  O612    1.963   .     S
Cu569  O607    1.956   .     S
Cu569  O611    1.963   .     S
Cu569  Cu746   2.707   1_455 S
Cu570  O610    1.963   .     S
Cu570  O614    1.958   .     S
Cu570  O609    1.956   .     S
Cu570  O613    1.963   .     S
Cu570  N606    2.034   .     S
Cu570  Cu657   2.707   .     S
H586   C646    1.117   .     S
H588   C647    1.110   .     S
H589   C648    1.111   .     S
H590   C32     1.110   1_565 S
H601   C631    1.076   .     S
O607   C705    1.296   1_455 S
O608   C720    1.383   1_455 S
O609   C628    1.296   .     S
O612   C713    1.304   1_455 S
O613   C626    1.301   .     S
O616   C633    1.389   .     S
C617   C620    1.447   .     S
C617   O698    1.303   .     A
C617   O783    1.296   .     S
C618   H662    1.083   .     S
C619   C628    1.448   .     S
C619   C655    1.398   .     A
C620   C654    1.398   .     A
C620   C706    1.402   .     S
C621   C649    1.506   .     S
C621   C623    1.420   .     A
C621   N694    1.392   .     A
C622   C651    1.506   .     S
C622   N693    1.394   .     A
C622   C624    1.422   .     A
C623   N693    1.353   .     A
C623   H663    1.076   .     S
C624   N694    1.354   .     A
C624   H664    1.083   .     S
C625   O702    1.302   .     A
C625   C627    1.465   .     S
C625   O788    1.304   .     S
C626   O703    1.307   .     A
C626   C629    1.471   .     S
C627   C634    1.401   .     A
C627   C632    1.410   .     A
C628   O699    1.303   .     A
C629   C635    1.398   .     A
C629   C633    1.417   .     A
C630   C632    1.392   .     A
C630   H688    1.083   .     S
C630   C638    1.399   .     A
C631   C640    1.400   .     A
C631   C633    1.397   .     A
C632   O784    1.383   .     S
C634   H687    1.079   .     S
C634   C636    1.403   .     A
C635   C637    1.402   .     A
C635   H681    1.079   .     S
C636   C641    1.423   .     A
C636   C638    1.414   .     A
C637   C642    1.416   .     A
C637   C640    1.411   .     A
C638   C1444   1.387   .     S
C639   C642    1.411   .     A
C639   H690    1.079   .     S
C639   C652    1.382   .     A
C640   C1445   1.394   1_554 S
C641   C650    1.415   .     A
C641   C1434   1.423   .     S
C642   C1433   1.423   1_554 S
C643   H666    1.116   .     S
C643   O704    1.425   .     S
C643   C644    1.529   .     S
C643   H665    1.112   .     S
C644   C645    1.527   .     S
C644   H667    1.111   .     S
C644   H668    1.112   .     S
C645   H671    1.110   .     S
C645   H672    1.111   .     S
C645   H669    1.111   .     S
C646   C647    1.533   .     S
C646   H673    1.105   .     S
C646   O696    1.419   .     S
C647   H675    1.112   .     S
C647   C648    1.527   .     S
C648   H679    1.111   .     S
C649   H682    1.106   .     S
C649   H683    1.099   .     S
C649   H680    1.111   .     S
C650   C653    1.391   .     A
C650   H691    1.078   .     S
C651   H686    1.106   .     S
C651   H684    1.111   .     S
C651   H685    1.099   .     S
C652   H659    1.075   .     S
C652   C1430   1.387   1_554 S
C653   H670    1.084   .     S
C653   C1432   1.394   .     S
C654   H692    1.082   .     S
C655   H660    1.082   .     S
C655   C90     1.383   1_565 S
C656   H661    1.083   .     S
C656   C707    1.403   .     S
C656   C126    1.384   1_565 S
Cu657  N693    2.034   .     S
Cu657  O703    1.958   .     S
Cu657  O700    1.963   .     S
Cu657  O695    1.956   .     S
Cu657  O699    1.963   .     S
Cu658  O698    1.963   .     S
Cu658  O702    1.958   .     S
Cu658  O697    1.956   .     S
Cu658  O701    1.963   .     S
Cu658  N694    2.034   .     S
Cu658  Cu745   2.707   .     S
H674   C734    1.117   .     S
H676   C735    1.110   .     S
H677   C736    1.111   .     S
H678   C120    1.110   1_565 S
H689   C719    1.076   .     S
O697   C716    1.296   .     S
O701   C714    1.301   .     S
O704   C721    1.389   .     S
C705   C708    1.447   .     S
C705   O786    1.303   .     A
C705   O607    1.296   1_655 S
C706   H750    1.083   .     S
C707   C716    1.448   .     S
C707   C743    1.398   .     A
C708   C742    1.398   .     A
C708   C530    1.402   1_655 S
C709   C737    1.506   .     S
C709   C711    1.420   .     A
C709   N782    1.392   .     A
C710   C739    1.506   .     S
C710   N781    1.394   .     A
C710   C712    1.422   .     A
C711   N781    1.353   .     A
C711   H751    1.076   .     S
C712   N782    1.354   .     A
C712   H752    1.083   .     S
C713   O790    1.302   .     A
C713   C715    1.465   .     S
C713   O612    1.304   1_655 S
C714   O791    1.307   .     A
C714   C717    1.471   .     S
C715   C722    1.401   .     A
C715   C720    1.410   .     A
C716   O787    1.303   .     A
C717   C723    1.398   .     A
C717   C721    1.417   .     A
C718   C720    1.392   .     A
C718   H776    1.083   .     S
C718   C726    1.399   .     A
C719   C728    1.400   .     A
C719   C721    1.397   .     A
C720   O608    1.383   1_655 S
C722   H775    1.079   .     S
C722   C724    1.403   .     A
C723   C725    1.402   .     A
C723   H769    1.079   .     S
C724   C729    1.423   .     A
C724   C726    1.414   .     A
C725   C730    1.416   .     A
C725   C728    1.411   .     A
C726   C1532   1.387   .     S
C727   C730    1.411   .     A
C727   H778    1.079   .     S
C727   C740    1.382   .     A
C728   C1533   1.394   1_554 S
C729   C738    1.415   .     A
C729   C1522   1.423   .     S
C730   C1521   1.423   1_554 S
C731   H754    1.116   .     S
C731   O792    1.425   .     S
C731   C732    1.529   .     S
C731   H753    1.112   .     S
C732   C733    1.527   .     S
C732   H755    1.111   .     S
C732   H756    1.112   .     S
C733   H759    1.110   .     S
C733   H760    1.111   .     S
C733   H757    1.111   .     S
C734   C735    1.533   .     S
C734   H761    1.105   .     S
C734   O784    1.419   .     S
C735   H763    1.112   .     S
C735   C736    1.527   .     S
C736   H767    1.111   .     S
C737   H770    1.106   .     S
C737   H771    1.099   .     S
C737   H768    1.111   .     S
C738   C741    1.391   .     A
C738   H779    1.078   .     S
C739   H774    1.106   .     S
C739   H772    1.111   .     S
C739   H773    1.099   .     S
C740   H747    1.075   .     S
C740   C1518   1.387   1_554 S
C741   H758    1.084   .     S
C741   C1520   1.394   .     S
C742   H780    1.082   .     S
C743   H748    1.082   .     S
C743   C178    1.383   1_565 S
C744   H749    1.083   .     S
C744   C531    1.403   1_655 S
C744   C214    1.384   1_565 S
Cu745  N781    2.034   .     S
Cu745  O791    1.958   .     S
Cu745  O788    1.963   .     S
Cu745  O783    1.956   .     S
Cu745  O787    1.963   .     S
Cu746  O786    1.963   .     S
Cu746  O790    1.958   .     S
Cu746  O785    1.956   .     S
Cu746  O789    1.963   .     S
Cu746  N782    2.034   .     S
Cu746  Cu569   2.707   1_655 S
H762   C558    1.117   1_655 S
H764   C559    1.110   1_655 S
H765   C560    1.111   1_655 S
H766   C208    1.110   1_565 S
H777   C543    1.076   1_655 S
O785   C540    1.296   1_655 S
O789   C538    1.301   1_655 S
O792   C545    1.389   1_655 S
C793   C796    1.447   .     S
C793   O874    1.303   .     A
C793   O959    1.296   .     S
C794   H838    1.083   .     S
C794   C972    1.402   1_455 S
C794   C1359   1.383   1_545 S
C795   C804    1.448   .     S
C795   C831    1.398   .     A
C795   C1008   1.403   1_455 S
C796   C830    1.398   .     A
C796   C882    1.402   .     S
C797   C825    1.506   .     S
C797   C799    1.420   .     A
C797   N870    1.392   .     A
C798   C827    1.506   .     S
C798   N869    1.394   .     A
C798   C800    1.422   .     A
C799   N869    1.353   .     A
C799   H839    1.076   .     S
C800   N870    1.354   .     A
C800   H840    1.083   .     S
C801   O878    1.302   .     A
C801   C803    1.465   .     S
C801   O964    1.304   .     S
C802   O879    1.307   .     A
C802   C805    1.471   .     S
C802   O1053   1.301   1_455 S
C803   C810    1.401   .     A
C803   C808    1.410   .     A
C804   O875    1.303   .     A
C804   O1049   1.296   1_455 S
C805   C811    1.398   .     A
C805   C809    1.417   .     A
C806   C808    1.392   .     A
C806   H864    1.083   .     S
C806   C814    1.399   .     A
C807   C816    1.400   .     A
C807   C809    1.397   .     A
C807   H1041   1.076   1_455 S
C808   O960    1.383   .     S
C809   O1056   1.389   1_455 S
C810   H863    1.079   .     S
C810   C812    1.403   .     A
C811   C813    1.402   .     A
C811   H857    1.079   .     S
C812   C817    1.423   .     A
C812   C814    1.414   .     A
C813   C818    1.416   .     A
C813   C816    1.411   .     A
C814   C36     1.387   1_556 S
C815   C818    1.411   .     A
C815   H866    1.079   .     S
C815   C828    1.382   .     A
C817   C826    1.415   .     A
C817   C26     1.423   1_556 S
C819   H842    1.116   .     S
C819   O880    1.425   .     S
C819   C820    1.529   .     S
C819   H841    1.112   .     S
C820   C821    1.527   .     S
C820   H843    1.111   .     S
C820   H844    1.112   .     S
C821   H847    1.110   .     S
C821   H848    1.111   .     S
C821   H845    1.111   .     S
C822   C823    1.533   .     S
C822   H849    1.105   .     S
C822   O872    1.419   .     S
C822   H1026   1.117   1_455 S
C823   H851    1.112   .     S
C823   C824    1.527   .     S
C823   H1028   1.110   1_455 S
C824   H855    1.111   .     S
C824   H1029   1.111   1_455 S
C824   H1382   1.110   1_545 S
C825   H858    1.106   .     S
C825   H859    1.099   .     S
C825   H856    1.111   .     S
C826   C829    1.391   .     A
C826   H867    1.078   .     S
C827   H862    1.106   .     S
C827   H860    1.111   .     S
C827   H861    1.099   .     S
C828   H835    1.075   .     S
C829   H846    1.084   .     S
C829   C24     1.394   1_556 S
C830   H868    1.082   .     S
C830   C1360   1.384   1_545 S
C831   H836    1.082   .     S
C831   C1058   1.383   .     S
C832   H837    1.083   .     S
C832   C883    1.403   .     S
C832   C1094   1.384   .     S
Cu833  N869    2.034   .     S
Cu833  O879    1.958   .     S
Cu833  O876    1.963   .     S
Cu833  O871    1.956   .     S
Cu833  O875    1.963   .     S
Cu833  Cu1010  2.707   1_455 S
Cu834  O874    1.963   .     S
Cu834  O878    1.958   .     S
Cu834  O873    1.956   .     S
Cu834  O877    1.963   .     S
Cu834  N870    2.034   .     S
Cu834  Cu921   2.707   .     S
H850   C910    1.117   .     S
H852   C911    1.110   .     S
H853   C912    1.111   .     S
H854   C1088   1.110   .     S
H865   C895    1.076   .     S
O871   C969    1.296   1_455 S
O872   C984    1.383   1_455 S
O873   C892    1.296   .     S
O876   C977    1.304   1_455 S
O877   C890    1.301   .     S
O880   C897    1.389   .     S
C881   C884    1.447   .     S
C881   O962    1.303   .     A
C881   O1047   1.296   .     S
C882   H926    1.083   .     S
C882   C1447   1.383   1_545 S
C883   C892    1.448   .     S
C883   C919    1.398   .     A
C884   C918    1.398   .     A
C884   C970    1.402   .     S
C885   C913    1.506   .     S
C885   C887    1.420   .     A
C885   N958    1.392   .     A
C886   C915    1.506   .     S
C886   N957    1.394   .     A
C886   C888    1.422   .     A
C887   N957    1.353   .     A
C887   H927    1.076   .     S
C888   N958    1.354   .     A
C888   H928    1.083   .     S
C889   O966    1.302   .     A
C889   C891    1.465   .     S
C889   O1052   1.304   .     S
C890   O967    1.307   .     A
C890   C893    1.471   .     S
C891   C898    1.401   .     A
C891   C896    1.410   .     A
C892   O963    1.303   .     A
C893   C899    1.398   .     A
C893   C897    1.417   .     A
C894   C896    1.392   .     A
C894   H952    1.083   .     S
C894   C902    1.399   .     A
C895   C904    1.400   .     A
C895   C897    1.397   .     A
C896   O1048   1.383   .     S
C898   H951    1.079   .     S
C898   C900    1.403   .     A
C899   C901    1.402   .     A
C899   H945    1.079   .     S
C900   C905    1.423   .     A
C900   C902    1.414   .     A
C901   C906    1.416   .     A
C901   C904    1.411   .     A
C902   C124    1.387   1_556 S
C903   C906    1.411   .     A
C903   H954    1.079   .     S
C903   C916    1.382   .     A
C905   C914    1.415   .     A
C905   C114    1.423   1_556 S
C907   H930    1.116   .     S
C907   O968    1.425   .     S
C907   C908    1.529   .     S
C907   H929    1.112   .     S
C908   C909    1.527   .     S
C908   H931    1.111   .     S
C908   H932    1.112   .     S
C909   H935    1.110   .     S
C909   H936    1.111   .     S
C909   H933    1.111   .     S
C910   C911    1.533   .     S
C910   H937    1.105   .     S
C910   O960    1.419   .     S
C911   H939    1.112   .     S
C911   C912    1.527   .     S
C912   H943    1.111   .     S
C912   H1470   1.110   1_545 S
C913   H946    1.106   .     S
C913   H947    1.099   .     S
C913   H944    1.111   .     S
C914   C917    1.391   .     A
C914   H955    1.078   .     S
C915   H950    1.106   .     S
C915   H948    1.111   .     S
C915   H949    1.099   .     S
C916   H923    1.075   .     S
C917   H934    1.084   .     S
C917   C112    1.394   1_556 S
C918   H956    1.082   .     S
C918   C1448   1.384   1_545 S
C919   H924    1.082   .     S
C919   C1146   1.383   .     S
C920   H925    1.083   .     S
C920   C971    1.403   .     S
C920   C1182   1.384   .     S
Cu921  N957    2.034   .     S
Cu921  O967    1.958   .     S
Cu921  O964    1.963   .     S
Cu921  O959    1.956   .     S
Cu921  O963    1.963   .     S
Cu922  O962    1.963   .     S
Cu922  O966    1.958   .     S
Cu922  O961    1.956   .     S
Cu922  O965    1.963   .     S
Cu922  N958    2.034   .     S
Cu922  Cu1009  2.707   .     S
H938   C998    1.117   .     S
H940   C999    1.110   .     S
H941   C1000   1.111   .     S
H942   C1176   1.110   .     S
H953   C983    1.076   .     S
O961   C980    1.296   .     S
O965   C978    1.301   .     S
O968   C985    1.389   .     S
C969   C972    1.447   .     S
C969   O1050   1.303   .     A
C969   O871    1.296   1_655 S
C970   H1014   1.083   .     S
C970   C1535   1.383   1_545 S
C971   C980    1.448   .     S
C971   C1007   1.398   .     A
C972   C1006   1.398   .     A
C972   C794    1.402   1_655 S
C973   C1001   1.506   .     S
C973   C975    1.420   .     A
C973   N1046   1.392   .     A
C974   C1003   1.506   .     S
C974   N1045   1.394   .     A
C974   C976    1.422   .     A
C975   N1045   1.353   .     A
C975   H1015   1.076   .     S
C976   N1046   1.354   .     A
C976   H1016   1.083   .     S
C977   O1054   1.302   .     A
C977   C979    1.465   .     S
C977   O876    1.304   1_655 S
C978   O1055   1.307   .     A
C978   C981    1.471   .     S
C979   C986    1.401   .     A
C979   C984    1.410   .     A
C980   O1051   1.303   .     A
C981   C987    1.398   .     A
C981   C985    1.417   .     A
C982   C984    1.392   .     A
C982   H1040   1.083   .     S
C982   C990    1.399   .     A
C983   C992    1.400   .     A
C983   C985    1.397   .     A
C984   O872    1.383   1_655 S
C986   H1039   1.079   .     S
C986   C988    1.403   .     A
C987   C989    1.402   .     A
C987   H1033   1.079   .     S
C988   C993    1.423   .     A
C988   C990    1.414   .     A
C989   C994    1.416   .     A
C989   C992    1.411   .     A
C990   C212    1.387   1_556 S
C991   C994    1.411   .     A
C991   H1042   1.079   .     S
C991   C1004   1.382   .     A
C993   C1002   1.415   .     A
C993   C202    1.423   1_556 S
C995   H1018   1.116   .     S
C995   O1056   1.425   .     S
C995   C996    1.529   .     S
C995   H1017   1.112   .     S
C996   C997    1.527   .     S
C996   H1019   1.111   .     S
C996   H1020   1.112   .     S
C997   H1023   1.110   .     S
C997   H1024   1.111   .     S
C997   H1021   1.111   .     S
C998   C999    1.533   .     S
C998   H1025   1.105   .     S
C998   O1048   1.419   .     S
C999   H1027   1.112   .     S
C999   C1000   1.527   .     S
C1000  H1031   1.111   .     S
C1000  H1558   1.110   1_545 S
C1001  H1034   1.106   .     S
C1001  H1035   1.099   .     S
C1001  H1032   1.111   .     S
C1002  C1005   1.391   .     A
C1002  H1043   1.078   .     S
C1003  H1038   1.106   .     S
C1003  H1036   1.111   .     S
C1003  H1037   1.099   .     S
C1004  H1011   1.075   .     S
C1005  H1022   1.084   .     S
C1005  C200    1.394   1_556 S
C1006  H1044   1.082   .     S
C1006  C1536   1.384   1_545 S
C1007  H1012   1.082   .     S
C1007  C1234   1.383   .     S
C1008  H1013   1.083   .     S
C1008  C795    1.403   1_655 S
C1008  C1270   1.384   .     S
Cu1009 N1045   2.034   .     S
Cu1009 O1055   1.958   .     S
Cu1009 O1052   1.963   .     S
Cu1009 O1047   1.956   .     S
Cu1009 O1051   1.963   .     S
Cu1010 O1050   1.963   .     S
Cu1010 O1054   1.958   .     S
Cu1010 O1049   1.956   .     S
Cu1010 O1053   1.963   .     S
Cu1010 N1046   2.034   .     S
Cu1010 Cu833   2.707   1_655 S
H1026  C822    1.117   1_655 S
H1028  C823    1.110   1_655 S
H1029  C824    1.111   1_655 S
H1030  C1264   1.110   .     S
H1041  C807    1.076   1_655 S
O1049  C804    1.296   1_655 S
O1053  C802    1.301   1_655 S
O1056  C809    1.389   1_655 S
C1057  C1060   1.447   .     S
C1057  O1138   1.303   .     A
C1057  O1223   1.296   .     S
C1058  H1102   1.083   .     S
C1058  C1236   1.402   1_455 S
C1059  C1068   1.448   .     S
C1059  C1095   1.398   .     A
C1059  C1272   1.403   1_455 S
C1060  C1094   1.398   .     A
C1060  C1146   1.402   .     S
C1061  C1089   1.506   .     S
C1061  C1063   1.420   .     A
C1061  N1134   1.392   .     A
C1062  C1091   1.506   .     S
C1062  N1133   1.394   .     A
C1062  C1064   1.422   .     A
C1063  N1133   1.353   .     A
C1063  H1103   1.076   .     S
C1064  N1134   1.354   .     A
C1064  H1104   1.083   .     S
C1065  O1142   1.302   .     A
C1065  C1067   1.465   .     S
C1065  O1228   1.304   .     S
C1066  O1143   1.307   .     A
C1066  C1069   1.471   .     S
C1066  O1317   1.301   1_455 S
C1067  C1074   1.401   .     A
C1067  C1072   1.410   .     A
C1068  O1139   1.303   .     A
C1068  O1313   1.296   1_455 S
C1069  C1075   1.398   .     A
C1069  C1073   1.417   .     A
C1070  C1072   1.392   .     A
C1070  H1128   1.083   .     S
C1070  C1078   1.399   .     A
C1071  C1080   1.400   .     A
C1071  C1073   1.397   .     A
C1071  H1305   1.076   1_455 S
C1072  O1224   1.383   .     S
C1073  O1320   1.389   1_455 S
C1074  H1127   1.079   .     S
C1074  C1076   1.403   .     A
C1075  C1077   1.402   .     A
C1075  H1121   1.079   .     S
C1076  C1081   1.423   .     A
C1076  C1078   1.414   .     A
C1077  C1082   1.416   .     A
C1077  C1080   1.411   .     A
C1078  C300    1.387   1_556 S
C1079  C1082   1.411   .     A
C1079  H1130   1.079   .     S
C1079  C1092   1.382   .     A
C1081  C1090   1.415   .     A
C1081  C290    1.423   1_556 S
C1083  H1106   1.116   .     S
C1083  O1144   1.425   .     S
C1083  C1084   1.529   .     S
C1083  H1105   1.112   .     S
C1084  C1085   1.527   .     S
C1084  H1107   1.111   .     S
C1084  H1108   1.112   .     S
C1085  H1111   1.110   .     S
C1085  H1112   1.111   .     S
C1085  H1109   1.111   .     S
C1086  C1087   1.533   .     S
C1086  H1113   1.105   .     S
C1086  O1136   1.419   .     S
C1086  H1290   1.117   1_455 S
C1087  H1115   1.112   .     S
C1087  C1088   1.527   .     S
C1087  H1292   1.110   1_455 S
C1088  H1119   1.111   .     S
C1088  H1293   1.111   1_455 S
C1089  H1122   1.106   .     S
C1089  H1123   1.099   .     S
C1089  H1120   1.111   .     S
C1090  C1093   1.391   .     A
C1090  H1131   1.078   .     S
C1091  H1126   1.106   .     S
C1091  H1124   1.111   .     S
C1091  H1125   1.099   .     S
C1092  H1099   1.075   .     S
C1093  H1110   1.084   .     S
C1093  C288    1.394   1_556 S
C1094  H1132   1.082   .     S
C1095  H1100   1.082   .     S
C1095  C1322   1.383   .     S
C1096  H1101   1.083   .     S
C1096  C1147   1.403   .     S
C1096  C1358   1.384   .     S
Cu1097 N1133   2.034   .     S
Cu1097 O1143   1.958   .     S
Cu1097 O1140   1.963   .     S
Cu1097 O1135   1.956   .     S
Cu1097 O1139   1.963   .     S
Cu1097 Cu1274  2.707   1_455 S
Cu1098 O1138   1.963   .     S
Cu1098 O1142   1.958   .     S
Cu1098 O1137   1.956   .     S
Cu1098 O1141   1.963   .     S
Cu1098 N1134   2.034   .     S
Cu1098 Cu1185  2.707   .     S
H1114  C1174   1.117   .     S
H1116  C1175   1.110   .     S
H1117  C1176   1.111   .     S
H1118  C1352   1.110   .     S
H1129  C1159   1.076   .     S
O1135  C1233   1.296   1_455 S
O1136  C1248   1.383   1_455 S
O1137  C1156   1.296   .     S
O1140  C1241   1.304   1_455 S
O1141  C1154   1.301   .     S
O1144  C1161   1.389   .     S
C1145  C1148   1.447   .     S
C1145  O1226   1.303   .     A
C1145  O1311   1.296   .     S
C1146  H1190   1.083   .     S
C1147  C1156   1.448   .     S
C1147  C1183   1.398   .     A
C1148  C1182   1.398   .     A
C1148  C1234   1.402   .     S
C1149  C1177   1.506   .     S
C1149  C1151   1.420   .     A
C1149  N1222   1.392   .     A
C1150  C1179   1.506   .     S
C1150  N1221   1.394   .     A
C1150  C1152   1.422   .     A
C1151  N1221   1.353   .     A
C1151  H1191   1.076   .     S
C1152  N1222   1.354   .     A
C1152  H1192   1.083   .     S
C1153  O1230   1.302   .     A
C1153  C1155   1.465   .     S
C1153  O1316   1.304   .     S
C1154  O1231   1.307   .     A
C1154  C1157   1.471   .     S
C1155  C1162   1.401   .     A
C1155  C1160   1.410   .     A
C1156  O1227   1.303   .     A
C1157  C1163   1.398   .     A
C1157  C1161   1.417   .     A
C1158  C1160   1.392   .     A
C1158  H1216   1.083   .     S
C1158  C1166   1.399   .     A
C1159  C1168   1.400   .     A
C1159  C1161   1.397   .     A
C1160  O1312   1.383   .     S
C1162  H1215   1.079   .     S
C1162  C1164   1.403   .     A
C1163  C1165   1.402   .     A
C1163  H1209   1.079   .     S
C1164  C1169   1.423   .     A
C1164  C1166   1.414   .     A
C1165  C1170   1.416   .     A
C1165  C1168   1.411   .     A
C1166  C388    1.387   1_556 S
C1167  C1170   1.411   .     A
C1167  H1218   1.079   .     S
C1167  C1180   1.382   .     A
C1169  C1178   1.415   .     A
C1169  C378    1.423   1_556 S
C1171  H1194   1.116   .     S
C1171  O1232   1.425   .     S
C1171  C1172   1.529   .     S
C1171  H1193   1.112   .     S
C1172  C1173   1.527   .     S
C1172  H1195   1.111   .     S
C1172  H1196   1.112   .     S
C1173  H1199   1.110   .     S
C1173  H1200   1.111   .     S
C1173  H1197   1.111   .     S
C1174  C1175   1.533   .     S
C1174  H1201   1.105   .     S
C1174  O1224   1.419   .     S
C1175  H1203   1.112   .     S
C1175  C1176   1.527   .     S
C1176  H1207   1.111   .     S
C1177  H1210   1.106   .     S
C1177  H1211   1.099   .     S
C1177  H1208   1.111   .     S
C1178  C1181   1.391   .     A
C1178  H1219   1.078   .     S
C1179  H1214   1.106   .     S
C1179  H1212   1.111   .     S
C1179  H1213   1.099   .     S
C1180  H1187   1.075   .     S
C1181  H1198   1.084   .     S
C1181  C376    1.394   1_556 S
C1182  H1220   1.082   .     S
C1183  H1188   1.082   .     S
C1183  C1410   1.383   .     S
C1184  H1189   1.083   .     S
C1184  C1235   1.403   .     S
C1184  C1446   1.384   .     S
Cu1185 N1221   2.034   .     S
Cu1185 O1231   1.958   .     S
Cu1185 O1228   1.963   .     S
Cu1185 O1223   1.956   .     S
Cu1185 O1227   1.963   .     S
Cu1186 O1226   1.963   .     S
Cu1186 O1230   1.958   .     S
Cu1186 O1225   1.956   .     S
Cu1186 O1229   1.963   .     S
Cu1186 N1222   2.034   .     S
Cu1186 Cu1273  2.707   .     S
H1202  C1262   1.117   .     S
H1204  C1263   1.110   .     S
H1205  C1264   1.111   .     S
H1206  C1440   1.110   .     S
H1217  C1247   1.076   .     S
O1225  C1244   1.296   .     S
O1229  C1242   1.301   .     S
O1232  C1249   1.389   .     S
C1233  C1236   1.447   .     S
C1233  O1314   1.303   .     A
C1233  O1135   1.296   1_655 S
C1234  H1278   1.083   .     S
C1235  C1244   1.448   .     S
C1235  C1271   1.398   .     A
C1236  C1270   1.398   .     A
C1236  C1058   1.402   1_655 S
C1237  C1265   1.506   .     S
C1237  C1239   1.420   .     A
C1237  N1310   1.392   .     A
C1238  C1267   1.506   .     S
C1238  N1309   1.394   .     A
C1238  C1240   1.422   .     A
C1239  N1309   1.353   .     A
C1239  H1279   1.076   .     S
C1240  N1310   1.354   .     A
C1240  H1280   1.083   .     S
C1241  O1318   1.302   .     A
C1241  C1243   1.465   .     S
C1241  O1140   1.304   1_655 S
C1242  O1319   1.307   .     A
C1242  C1245   1.471   .     S
C1243  C1250   1.401   .     A
C1243  C1248   1.410   .     A
C1244  O1315   1.303   .     A
C1245  C1251   1.398   .     A
C1245  C1249   1.417   .     A
C1246  C1248   1.392   .     A
C1246  H1304   1.083   .     S
C1246  C1254   1.399   .     A
C1247  C1256   1.400   .     A
C1247  C1249   1.397   .     A
C1248  O1136   1.383   1_655 S
C1250  H1303   1.079   .     S
C1250  C1252   1.403   .     A
C1251  C1253   1.402   .     A
C1251  H1297   1.079   .     S
C1252  C1257   1.423   .     A
C1252  C1254   1.414   .     A
C1253  C1258   1.416   .     A
C1253  C1256   1.411   .     A
C1254  C476    1.387   1_556 S
C1255  C1258   1.411   .     A
C1255  H1306   1.079   .     S
C1255  C1268   1.382   .     A
C1257  C1266   1.415   .     A
C1257  C466    1.423   1_556 S
C1259  H1282   1.116   .     S
C1259  O1320   1.425   .     S
C1259  C1260   1.529   .     S
C1259  H1281   1.112   .     S
C1260  C1261   1.527   .     S
C1260  H1283   1.111   .     S
C1260  H1284   1.112   .     S
C1261  H1287   1.110   .     S
C1261  H1288   1.111   .     S
C1261  H1285   1.111   .     S
C1262  C1263   1.533   .     S
C1262  H1289   1.105   .     S
C1262  O1312   1.419   .     S
C1263  H1291   1.112   .     S
C1263  C1264   1.527   .     S
C1264  H1295   1.111   .     S
C1265  H1298   1.106   .     S
C1265  H1299   1.099   .     S
C1265  H1296   1.111   .     S
C1266  C1269   1.391   .     A
C1266  H1307   1.078   .     S
C1267  H1302   1.106   .     S
C1267  H1300   1.111   .     S
C1267  H1301   1.099   .     S
C1268  H1275   1.075   .     S
C1269  H1286   1.084   .     S
C1269  C464    1.394   1_556 S
C1270  H1308   1.082   .     S
C1271  H1276   1.082   .     S
C1271  C1498   1.383   .     S
C1272  H1277   1.083   .     S
C1272  C1059   1.403   1_655 S
C1272  C1534   1.384   .     S
Cu1273 N1309   2.034   .     S
Cu1273 O1319   1.958   .     S
Cu1273 O1316   1.963   .     S
Cu1273 O1311   1.956   .     S
Cu1273 O1315   1.963   .     S
Cu1274 O1314   1.963   .     S
Cu1274 O1318   1.958   .     S
Cu1274 O1313   1.956   .     S
Cu1274 O1317   1.963   .     S
Cu1274 N1310   2.034   .     S
Cu1274 Cu1097  2.707   1_655 S
H1290  C1086   1.117   1_655 S
H1292  C1087   1.110   1_655 S
H1293  C1088   1.111   1_655 S
H1294  C1528   1.110   .     S
H1305  C1071   1.076   1_655 S
O1313  C1068   1.296   1_655 S
O1317  C1066   1.301   1_655 S
O1320  C1073   1.389   1_655 S
C1321  C1324   1.447   .     S
C1321  O1402   1.303   .     A
C1321  O1487   1.296   .     S
C1322  H1366   1.083   .     S
C1322  C1500   1.402   1_455 S
C1323  C1332   1.448   .     S
C1323  C1359   1.398   .     A
C1323  C1536   1.403   1_455 S
C1324  C1358   1.398   .     A
C1324  C1410   1.402   .     S
C1325  C1353   1.506   .     S
C1325  C1327   1.420   .     A
C1325  N1398   1.392   .     A
C1326  C1355   1.506   .     S
C1326  N1397   1.394   .     A
C1326  C1328   1.422   .     A
C1327  N1397   1.353   .     A
C1327  H1367   1.076   .     S
C1328  N1398   1.354   .     A
C1328  H1368   1.083   .     S
C1329  O1406   1.302   .     A
C1329  C1331   1.465   .     S
C1329  O1492   1.304   .     S
C1330  O1407   1.307   .     A
C1330  C1333   1.471   .     S
C1330  O1581   1.301   1_455 S
C1331  C1338   1.401   .     A
C1331  C1336   1.410   .     A
C1332  O1403   1.303   .     A
C1332  O1577   1.296   1_455 S
C1333  C1339   1.398   .     A
C1333  C1337   1.417   .     A
C1334  C1336   1.392   .     A
C1334  H1392   1.083   .     S
C1334  C1342   1.399   .     A
C1335  C1344   1.400   .     A
C1335  C1337   1.397   .     A
C1335  H1569   1.076   1_455 S
C1336  O1488   1.383   .     S
C1337  O1584   1.389   1_455 S
C1338  H1391   1.079   .     S
C1338  C1340   1.403   .     A
C1339  C1341   1.402   .     A
C1339  H1385   1.079   .     S
C1340  C1345   1.423   .     A
C1340  C1342   1.414   .     A
C1341  C1346   1.416   .     A
C1341  C1344   1.411   .     A
C1342  C564    1.387   1_556 S
C1343  C1346   1.411   .     A
C1343  H1394   1.079   .     S
C1343  C1356   1.382   .     A
C1345  C1354   1.415   .     A
C1345  C554    1.423   1_556 S
C1347  H1370   1.116   .     S
C1347  O1408   1.425   .     S
C1347  C1348   1.529   .     S
C1347  H1369   1.112   .     S
C1348  C1349   1.527   .     S
C1348  H1371   1.111   .     S
C1348  H1372   1.112   .     S
C1349  H1375   1.110   .     S
C1349  H1376   1.111   .     S
C1349  H1373   1.111   .     S
C1350  C1351   1.533   .     S
C1350  H1377   1.105   .     S
C1350  O1400   1.419   .     S
C1350  H1554   1.117   1_455 S
C1351  H1379   1.112   .     S
C1351  C1352   1.527   .     S
C1351  H1556   1.110   1_455 S
C1352  H1383   1.111   .     S
C1352  H1557   1.111   1_455 S
C1353  H1386   1.106   .     S
C1353  H1387   1.099   .     S
C1353  H1384   1.111   .     S
C1354  C1357   1.391   .     A
C1354  H1395   1.078   .     S
C1355  H1390   1.106   .     S
C1355  H1388   1.111   .     S
C1355  H1389   1.099   .     S
C1356  H1363   1.075   .     S
C1357  H1374   1.084   .     S
C1357  C552    1.394   1_556 S
C1358  H1396   1.082   .     S
C1359  H1364   1.082   .     S
C1359  C794    1.383   1_565 S
C1360  H1365   1.083   .     S
C1360  C1411   1.403   .     S
C1360  C830    1.384   1_565 S
Cu1361 N1397   2.034   .     S
Cu1361 O1407   1.958   .     S
Cu1361 O1404   1.963   .     S
Cu1361 O1399   1.956   .     S
Cu1361 O1403   1.963   .     S
Cu1361 Cu1538  2.707   1_455 S
Cu1362 O1402   1.963   .     S
Cu1362 O1406   1.958   .     S
Cu1362 O1401   1.956   .     S
Cu1362 O1405   1.963   .     S
Cu1362 N1398   2.034   .     S
Cu1362 Cu1449  2.707   .     S
H1378  C1438   1.117   .     S
H1380  C1439   1.110   .     S
H1381  C1440   1.111   .     S
H1382  C824    1.110   1_565 S
H1393  C1423   1.076   .     S
O1399  C1497   1.296   1_455 S
O1400  C1512   1.383   1_455 S
O1401  C1420   1.296   .     S
O1404  C1505   1.304   1_455 S
O1405  C1418   1.301   .     S
O1408  C1425   1.389   .     S
C1409  C1412   1.447   .     S
C1409  O1490   1.303   .     A
C1409  O1575   1.296   .     S
C1410  H1454   1.083   .     S
C1411  C1420   1.448   .     S
C1411  C1447   1.398   .     A
C1412  C1446   1.398   .     A
C1412  C1498   1.402   .     S
C1413  C1441   1.506   .     S
C1413  C1415   1.420   .     A
C1413  N1486   1.392   .     A
C1414  C1443   1.506   .     S
C1414  N1485   1.394   .     A
C1414  C1416   1.422   .     A
C1415  N1485   1.353   .     A
C1415  H1455   1.076   .     S
C1416  N1486   1.354   .     A
C1416  H1456   1.083   .     S
C1417  O1494   1.302   .     A
C1417  C1419   1.465   .     S
C1417  O1580   1.304   .     S
C1418  O1495   1.307   .     A
C1418  C1421   1.471   .     S
C1419  C1426   1.401   .     A
C1419  C1424   1.410   .     A
C1420  O1491   1.303   .     A
C1421  C1427   1.398   .     A
C1421  C1425   1.417   .     A
C1422  C1424   1.392   .     A
C1422  H1480   1.083   .     S
C1422  C1430   1.399   .     A
C1423  C1432   1.400   .     A
C1423  C1425   1.397   .     A
C1424  O1576   1.383   .     S
C1426  H1479   1.079   .     S
C1426  C1428   1.403   .     A
C1427  C1429   1.402   .     A
C1427  H1473   1.079   .     S
C1428  C1433   1.423   .     A
C1428  C1430   1.414   .     A
C1429  C1434   1.416   .     A
C1429  C1432   1.411   .     A
C1430  C652    1.387   1_556 S
C1431  C1434   1.411   .     A
C1431  H1482   1.079   .     S
C1431  C1444   1.382   .     A
C1433  C1442   1.415   .     A
C1433  C642    1.423   1_556 S
C1435  H1458   1.116   .     S
C1435  O1496   1.425   .     S
C1435  C1436   1.529   .     S
C1435  H1457   1.112   .     S
C1436  C1437   1.527   .     S
C1436  H1459   1.111   .     S
C1436  H1460   1.112   .     S
C1437  H1463   1.110   .     S
C1437  H1464   1.111   .     S
C1437  H1461   1.111   .     S
C1438  C1439   1.533   .     S
C1438  H1465   1.105   .     S
C1438  O1488   1.419   .     S
C1439  H1467   1.112   .     S
C1439  C1440   1.527   .     S
C1440  H1471   1.111   .     S
C1441  H1474   1.106   .     S
C1441  H1475   1.099   .     S
C1441  H1472   1.111   .     S
C1442  C1445   1.391   .     A
C1442  H1483   1.078   .     S
C1443  H1478   1.106   .     S
C1443  H1476   1.111   .     S
C1443  H1477   1.099   .     S
C1444  H1451   1.075   .     S
C1445  H1462   1.084   .     S
C1445  C640    1.394   1_556 S
C1446  H1484   1.082   .     S
C1447  H1452   1.082   .     S
C1447  C882    1.383   1_565 S
C1448  H1453   1.083   .     S
C1448  C1499   1.403   .     S
C1448  C918    1.384   1_565 S
Cu1449 N1485   2.034   .     S
Cu1449 O1495   1.958   .     S
Cu1449 O1492   1.963   .     S
Cu1449 O1487   1.956   .     S
Cu1449 O1491   1.963   .     S
Cu1450 O1490   1.963   .     S
Cu1450 O1494   1.958   .     S
Cu1450 O1489   1.956   .     S
Cu1450 O1493   1.963   .     S
Cu1450 N1486   2.034   .     S
Cu1450 Cu1537  2.707   .     S
H1466  C1526   1.117   .     S
H1468  C1527   1.110   .     S
H1469  C1528   1.111   .     S
H1470  C912    1.110   1_565 S
H1481  C1511   1.076   .     S
O1489  C1508   1.296   .     S
O1493  C1506   1.301   .     S
O1496  C1513   1.389   .     S
C1497  C1500   1.447   .     S
C1497  O1578   1.303   .     A
C1497  O1399   1.296   1_655 S
C1498  H1542   1.083   .     S
C1499  C1508   1.448   .     S
C1499  C1535   1.398   .     A
C1500  C1534   1.398   .     A
C1500  C1322   1.402   1_655 S
C1501  C1529   1.506   .     S
C1501  C1503   1.420   .     A
C1501  N1574   1.392   .     A
C1502  C1531   1.506   .     S
C1502  N1573   1.394   .     A
C1502  C1504   1.422   .     A
C1503  N1573   1.353   .     A
C1503  H1543   1.076   .     S
C1504  N1574   1.354   .     A
C1504  H1544   1.083   .     S
C1505  O1582   1.302   .     A
C1505  C1507   1.465   .     S
C1505  O1404   1.304   1_655 S
C1506  O1583   1.307   .     A
C1506  C1509   1.471   .     S
C1507  C1514   1.401   .     A
C1507  C1512   1.410   .     A
C1508  O1579   1.303   .     A
C1509  C1515   1.398   .     A
C1509  C1513   1.417   .     A
C1510  C1512   1.392   .     A
C1510  H1568   1.083   .     S
C1510  C1518   1.399   .     A
C1511  C1520   1.400   .     A
C1511  C1513   1.397   .     A
C1512  O1400   1.383   1_655 S
C1514  H1567   1.079   .     S
C1514  C1516   1.403   .     A
C1515  C1517   1.402   .     A
C1515  H1561   1.079   .     S
C1516  C1521   1.423   .     A
C1516  C1518   1.414   .     A
C1517  C1522   1.416   .     A
C1517  C1520   1.411   .     A
C1518  C740    1.387   1_556 S
C1519  C1522   1.411   .     A
C1519  H1570   1.079   .     S
C1519  C1532   1.382   .     A
C1521  C1530   1.415   .     A
C1521  C730    1.423   1_556 S
C1523  H1546   1.116   .     S
C1523  O1584   1.425   .     S
C1523  C1524   1.529   .     S
C1523  H1545   1.112   .     S
C1524  C1525   1.527   .     S
C1524  H1547   1.111   .     S
C1524  H1548   1.112   .     S
C1525  H1551   1.110   .     S
C1525  H1552   1.111   .     S
C1525  H1549   1.111   .     S
C1526  C1527   1.533   .     S
C1526  H1553   1.105   .     S
C1526  O1576   1.419   .     S
C1527  H1555   1.112   .     S
C1527  C1528   1.527   .     S
C1528  H1559   1.111   .     S
C1529  H1562   1.106   .     S
C1529  H1563   1.099   .     S
C1529  H1560   1.111   .     S
C1530  C1533   1.391   .     A
C1530  H1571   1.078   .     S
C1531  H1566   1.106   .     S
C1531  H1564   1.111   .     S
C1531  H1565   1.099   .     S
C1532  H1539   1.075   .     S
C1533  H1550   1.084   .     S
C1533  C728    1.394   1_556 S
C1534  H1572   1.082   .     S
C1535  H1540   1.082   .     S
C1535  C970    1.383   1_565 S
C1536  H1541   1.083   .     S
C1536  C1323   1.403   1_655 S
C1536  C1006   1.384   1_565 S
Cu1537 N1573   2.034   .     S
Cu1537 O1583   1.958   .     S
Cu1537 O1580   1.963   .     S
Cu1537 O1575   1.956   .     S
Cu1537 O1579   1.963   .     S
Cu1538 O1578   1.963   .     S
Cu1538 O1582   1.958   .     S
Cu1538 O1577   1.956   .     S
Cu1538 O1581   1.963   .     S
Cu1538 N1574   2.034   .     S
Cu1538 Cu1361  2.707   1_655 S
H1554  C1350   1.117   1_655 S
H1556  C1351   1.110   1_655 S
H1557  C1352   1.111   1_655 S
H1558  C1000   1.110   1_565 S
H1569  C1335   1.076   1_655 S
O1577  C1332   1.296   1_655 S
O1581  C1330   1.301   1_655 S
O1584  C1337   1.389   1_655 S
