data_str_m3_o1_o16_pcu_sym.253
_audit_creation_date              2020-01-03
_audit_creation_method            'Materials Studio'
_symmetry_space_group_name_H-M    'P1'
_symmetry_Int_Tables_number       1
_symmetry_cell_setting            triclinic
loop_
_symmetry_equiv_pos_as_xyz
  x,y,z
_cell_length_a                    29.7608
_cell_length_b                    31.9077
_cell_length_c                    26.0874
_cell_angle_alpha                 90.3250
_cell_angle_beta                  71.6142
_cell_angle_gamma                 89.7516
loop_
_atom_site_label
_atom_site_type_symbol
_atom_site_fract_x
_atom_site_fract_y
_atom_site_fract_z
_atom_site_U_iso_or_equiv
_atom_site_adp_type
_atom_site_occupancy
C1     C     0.16683   0.24637   0.24903   0.00000  Uiso   1.00
C2     C     0.14794   0.12890   0.48767   0.00000  Uiso   1.00
C3     C     0.16149   0.13296   0.43121   0.00000  Uiso   1.00
C4     C     0.18364   0.13417   0.01249   0.00000  Uiso   1.00
C5     C     0.23184   0.13186   0.48064   0.00000  Uiso   1.00
C6     C     0.24372   0.12188   0.42594   0.00000  Uiso   1.00
C7     C     0.20874   0.12227   0.40125   0.00000  Uiso   1.00
C8     C     0.17261   0.14763   0.06602   0.00000  Uiso   1.00
C9     C     0.25621   0.15422   0.05683   0.00000  Uiso   1.00
C10    C     0.12727   0.14737   0.40760   0.00000  Uiso   1.00
C11    C     0.19088   0.31126   0.19982   0.00000  Uiso   1.00
C12    C     0.14117   0.16225   0.35150   0.00000  Uiso   1.00
C13    C     0.18985   0.02171   0.20003   0.00000  Uiso   1.00
C14    C     0.16732   0.04256   0.24927   0.00000  Uiso   1.00
C15    C     0.14340   0.02155   0.29742   0.00000  Uiso   1.00
C16    C     0.14292   0.31132   0.29626   0.00000  Uiso   1.00
C17    C     0.16665   0.29053   0.24796   0.00000  Uiso   1.00
C18    C     0.31618   0.13555   0.22479   0.00000  Uiso   1.00
C19    C     0.03068   0.13530   0.22456   0.00000  Uiso   1.00
C20    C     0.01582   0.19727   0.27717   0.00000  Uiso   1.00
C21    C     0.30164   0.19730   0.27614   0.00000  Uiso   1.00
C22    C     0.16683   0.08689   0.24976   0.00000  Uiso   1.00
C23    C     0.19274   0.16547   0.14768   0.00000  Uiso   1.00
C24    C     0.26741   0.14157   0.00295   0.00000  Uiso   1.00
C25    C     0.20807   0.15669   0.08922   0.00000  Uiso   1.00
C26    C     0.07927   0.14610   0.43807   0.00000  Uiso   1.00
C27    C     0.06572   0.13033   0.49026   0.00000  Uiso   1.00
C28    C     0.09951   0.12123   0.01575   0.00000  Uiso   1.00
H29    H     0.30341   0.11095   0.20430   0.00000  Uiso   1.00
H30    H     0.27690   0.22132   0.29754   0.00000  Uiso   1.00
H31    H     0.28027   0.11672   0.40154   0.00000  Uiso   1.00
H32    H     0.30392   0.14097   0.47752   0.00000  Uiso   1.00
H33    H     0.13601   0.15309   0.08934   0.00000  Uiso   1.00
H34    H     0.05218   0.15480   0.42042   0.00000  Uiso   1.00
H35    H     0.02888   0.12413   0.01046   0.00000  Uiso   1.00
H36    H     0.21942   0.11399   0.35892   0.00000  Uiso   1.00
N37    N     0.04760   0.16668   0.25001   0.00000  Uiso   1.00
N38    N     0.28573   0.16665   0.25001   0.00000  Uiso   1.00
O39    O     0.12846   0.22775   0.25000   0.00000  Uiso   1.00
O40    O     0.20490   0.22774   0.25000   0.00000  Uiso   1.00
O41    O     0.10947   0.16666   0.32681   0.00000  Uiso   1.00
O42    O     0.18591   0.16665   0.32681   0.00000  Uiso   1.00
O43    O     0.12843   0.10559   0.24999   0.00000  Uiso   1.00
O44    O     0.20488   0.10558   0.25000   0.00000  Uiso   1.00
O45    O     0.14742   0.16668   0.17319   0.00000  Uiso   1.00
O46    O     0.22387   0.16667   0.17319   0.00000  Uiso   1.00
Zn47   Zn    0.11562   0.16667   0.25000   0.00000  Uiso   1.00
Zn48   Zn    0.21771   0.16666   0.25000   0.00000  Uiso   1.00
N49    N     0.29431   0.16571   0.07649   0.00000  Uiso   1.00
H50    H     0.28813   0.19592   0.09302   0.00000  Uiso   1.00
H51    H     0.29626   0.14432   0.10590   0.00000  Uiso   1.00
C52    C     0.20965   0.04616   0.14931   0.00000  Uiso   1.00
H53    H     0.22722   0.07576   0.14997   0.00000  Uiso   1.00
O54    O     0.20462   0.03435   0.10686   0.00000  Uiso   1.00
C55    C     0.12122   0.04549   0.34845   0.00000  Uiso   1.00
H56    H     0.13608   0.07511   0.35465   0.00000  Uiso   1.00
O57    O     0.08598   0.03306   0.38328   0.00000  Uiso   1.00
N58    N     0.12132   0.28726   0.34413   0.00000  Uiso   1.00
H59    H     0.13562   0.29630   0.37429   0.00000  Uiso   1.00
H60    H     0.08485   0.29289   0.35718   0.00000  Uiso   1.00
C61    C     0.06136   0.10034   0.19699   0.00000  Uiso   1.00
H62    H     0.09830   0.10536   0.17541   0.00000  Uiso   1.00
O63    O     0.04532   0.06512   0.19744   0.00000  Uiso   1.00
C64    C     0.02926   0.22950   0.31034   0.00000  Uiso   1.00
H65    H     0.05779   0.22404   0.32659   0.00000  Uiso   1.00
O66    O     0.00749   0.26262   0.32122   0.00000  Uiso   1.00
C67    C     0.08468   0.09682   0.06638   0.00000  Uiso   1.00
H68    H     0.11103   0.08240   0.08150   0.00000  Uiso   1.00
O69    O     0.04282   0.09112   0.09066   0.00000  Uiso   1.00
C70    C     0.21773   0.28661   0.15086   0.00000  Uiso   1.00
H71    H     0.20496   0.25625   0.14292   0.00000  Uiso   1.00
O72    O     0.25535   0.29907   0.12033   0.00000  Uiso   1.00
C73    C     0.50017   0.24637   0.24903   0.00000  Uiso   1.00
C74    C     0.48127   0.12890   0.48767   0.00000  Uiso   1.00
C75    C     0.49483   0.13296   0.43121   0.00000  Uiso   1.00
C76    C     0.51698   0.13417   0.01249   0.00000  Uiso   1.00
C77    C     0.56517   0.13186   0.48064   0.00000  Uiso   1.00
C78    C     0.57706   0.12188   0.42594   0.00000  Uiso   1.00
C79    C     0.54207   0.12227   0.40125   0.00000  Uiso   1.00
C80    C     0.50595   0.14763   0.06602   0.00000  Uiso   1.00
C81    C     0.58954   0.15422   0.05683   0.00000  Uiso   1.00
C82    C     0.46061   0.14737   0.40760   0.00000  Uiso   1.00
C83    C     0.52421   0.31126   0.19982   0.00000  Uiso   1.00
C84    C     0.47450   0.16225   0.35150   0.00000  Uiso   1.00
C85    C     0.52318   0.02171   0.20003   0.00000  Uiso   1.00
C86    C     0.50065   0.04256   0.24927   0.00000  Uiso   1.00
C87    C     0.47673   0.02155   0.29742   0.00000  Uiso   1.00
C88    C     0.47625   0.31132   0.29626   0.00000  Uiso   1.00
C89    C     0.49999   0.29053   0.24796   0.00000  Uiso   1.00
C90    C     0.64952   0.13555   0.22479   0.00000  Uiso   1.00
C91    C     0.36401   0.13530   0.22456   0.00000  Uiso   1.00
C92    C     0.34915   0.19727   0.27717   0.00000  Uiso   1.00
C93    C     0.63497   0.19730   0.27614   0.00000  Uiso   1.00
C94    C     0.50016   0.08689   0.24976   0.00000  Uiso   1.00
C95    C     0.52607   0.16547   0.14768   0.00000  Uiso   1.00
C96    C     0.60075   0.14157   0.00295   0.00000  Uiso   1.00
C97    C     0.54140   0.15669   0.08922   0.00000  Uiso   1.00
C98    C     0.41260   0.14610   0.43807   0.00000  Uiso   1.00
C99    C     0.39905   0.13033   0.49026   0.00000  Uiso   1.00
C100   C     0.43285   0.12123   0.01575   0.00000  Uiso   1.00
H101   H     0.63674   0.11095   0.20430   0.00000  Uiso   1.00
H102   H     0.61024   0.22132   0.29754   0.00000  Uiso   1.00
H103   H     0.61360   0.11672   0.40154   0.00000  Uiso   1.00
H104   H     0.63725   0.14097   0.47752   0.00000  Uiso   1.00
H105   H     0.46934   0.15309   0.08934   0.00000  Uiso   1.00
H106   H     0.38552   0.15480   0.42042   0.00000  Uiso   1.00
H107   H     0.36222   0.12413   0.01046   0.00000  Uiso   1.00
H108   H     0.55276   0.11399   0.35892   0.00000  Uiso   1.00
N109   N     0.38093   0.16668   0.25001   0.00000  Uiso   1.00
N110   N     0.61906   0.16665   0.25001   0.00000  Uiso   1.00
O111   O     0.46179   0.22775   0.25000   0.00000  Uiso   1.00
O112   O     0.53823   0.22774   0.25000   0.00000  Uiso   1.00
O113   O     0.44280   0.16666   0.32681   0.00000  Uiso   1.00
O114   O     0.51924   0.16665   0.32681   0.00000  Uiso   1.00
O115   O     0.46177   0.10559   0.24999   0.00000  Uiso   1.00
O116   O     0.53821   0.10558   0.25000   0.00000  Uiso   1.00
O117   O     0.48076   0.16668   0.17319   0.00000  Uiso   1.00
O118   O     0.55720   0.16667   0.17319   0.00000  Uiso   1.00
Zn119  Zn    0.44896   0.16667   0.25000   0.00000  Uiso   1.00
Zn120  Zn    0.55104   0.16666   0.25000   0.00000  Uiso   1.00
N121   N     0.62764   0.16571   0.07649   0.00000  Uiso   1.00
H122   H     0.62146   0.19592   0.09302   0.00000  Uiso   1.00
H123   H     0.62959   0.14432   0.10590   0.00000  Uiso   1.00
C124   C     0.54299   0.04616   0.14931   0.00000  Uiso   1.00
H125   H     0.56056   0.07576   0.14997   0.00000  Uiso   1.00
O126   O     0.53796   0.03435   0.10686   0.00000  Uiso   1.00
C127   C     0.45455   0.04549   0.34845   0.00000  Uiso   1.00
H128   H     0.46941   0.07511   0.35465   0.00000  Uiso   1.00
O129   O     0.41931   0.03306   0.38328   0.00000  Uiso   1.00
N130   N     0.45465   0.28726   0.34413   0.00000  Uiso   1.00
H131   H     0.46896   0.29630   0.37429   0.00000  Uiso   1.00
H132   H     0.41818   0.29289   0.35718   0.00000  Uiso   1.00
C133   C     0.39469   0.10034   0.19699   0.00000  Uiso   1.00
H134   H     0.43164   0.10536   0.17541   0.00000  Uiso   1.00
O135   O     0.37865   0.06512   0.19744   0.00000  Uiso   1.00
C136   C     0.36260   0.22950   0.31034   0.00000  Uiso   1.00
H137   H     0.39112   0.22404   0.32659   0.00000  Uiso   1.00
O138   O     0.34083   0.26262   0.32122   0.00000  Uiso   1.00
C139   C     0.41801   0.09682   0.06638   0.00000  Uiso   1.00
H140   H     0.44436   0.08240   0.08150   0.00000  Uiso   1.00
O141   O     0.37615   0.09112   0.09066   0.00000  Uiso   1.00
C142   C     0.55107   0.28661   0.15086   0.00000  Uiso   1.00
H143   H     0.53829   0.25625   0.14292   0.00000  Uiso   1.00
O144   O     0.58868   0.29907   0.12033   0.00000  Uiso   1.00
C145   C     0.83350   0.24637   0.24903   0.00000  Uiso   1.00
C146   C     0.81461   0.12890   0.48767   0.00000  Uiso   1.00
C147   C     0.82816   0.13296   0.43121   0.00000  Uiso   1.00
C148   C     0.85031   0.13417   0.01249   0.00000  Uiso   1.00
C149   C     0.89851   0.13186   0.48064   0.00000  Uiso   1.00
C150   C     0.91039   0.12188   0.42594   0.00000  Uiso   1.00
C151   C     0.87540   0.12227   0.40125   0.00000  Uiso   1.00
C152   C     0.83928   0.14763   0.06602   0.00000  Uiso   1.00
C153   C     0.92288   0.15422   0.05683   0.00000  Uiso   1.00
C154   C     0.79394   0.14737   0.40760   0.00000  Uiso   1.00
C155   C     0.85754   0.31126   0.19982   0.00000  Uiso   1.00
C156   C     0.80784   0.16225   0.35150   0.00000  Uiso   1.00
C157   C     0.85652   0.02171   0.20003   0.00000  Uiso   1.00
C158   C     0.83398   0.04256   0.24927   0.00000  Uiso   1.00
C159   C     0.81007   0.02155   0.29742   0.00000  Uiso   1.00
C160   C     0.80958   0.31132   0.29626   0.00000  Uiso   1.00
C161   C     0.83332   0.29053   0.24796   0.00000  Uiso   1.00
C162   C     0.98285   0.13555   0.22479   0.00000  Uiso   1.00
C163   C     0.69735   0.13530   0.22456   0.00000  Uiso   1.00
C164   C     0.68249   0.19727   0.27717   0.00000  Uiso   1.00
C165   C     0.96831   0.19730   0.27614   0.00000  Uiso   1.00
C166   C     0.83349   0.08689   0.24976   0.00000  Uiso   1.00
C167   C     0.85940   0.16547   0.14768   0.00000  Uiso   1.00
C168   C     0.93408   0.14157   0.00295   0.00000  Uiso   1.00
C169   C     0.87473   0.15669   0.08922   0.00000  Uiso   1.00
C170   C     0.74594   0.14610   0.43807   0.00000  Uiso   1.00
C171   C     0.73239   0.13033   0.49026   0.00000  Uiso   1.00
C172   C     0.76618   0.12123   0.01575   0.00000  Uiso   1.00
H173   H     0.97008   0.11095   0.20430   0.00000  Uiso   1.00
H174   H     0.94357   0.22132   0.29754   0.00000  Uiso   1.00
H175   H     0.94693   0.11672   0.40154   0.00000  Uiso   1.00
H176   H     0.97058   0.14097   0.47752   0.00000  Uiso   1.00
H177   H     0.80267   0.15309   0.08934   0.00000  Uiso   1.00
H178   H     0.71885   0.15480   0.42042   0.00000  Uiso   1.00
H179   H     0.69555   0.12413   0.01046   0.00000  Uiso   1.00
H180   H     0.88609   0.11399   0.35892   0.00000  Uiso   1.00
N181   N     0.71426   0.16668   0.25001   0.00000  Uiso   1.00
N182   N     0.95239   0.16665   0.25001   0.00000  Uiso   1.00
O183   O     0.79512   0.22775   0.25000   0.00000  Uiso   1.00
O184   O     0.87157   0.22774   0.25000   0.00000  Uiso   1.00
O185   O     0.77613   0.16666   0.32681   0.00000  Uiso   1.00
O186   O     0.85258   0.16665   0.32681   0.00000  Uiso   1.00
O187   O     0.79510   0.10559   0.24999   0.00000  Uiso   1.00
O188   O     0.87154   0.10558   0.25000   0.00000  Uiso   1.00
O189   O     0.81409   0.16668   0.17319   0.00000  Uiso   1.00
O190   O     0.89053   0.16667   0.17319   0.00000  Uiso   1.00
Zn191  Zn    0.78229   0.16667   0.25000   0.00000  Uiso   1.00
Zn192  Zn    0.88438   0.16666   0.25000   0.00000  Uiso   1.00
N193   N     0.96097   0.16571   0.07649   0.00000  Uiso   1.00
H194   H     0.95480   0.19592   0.09302   0.00000  Uiso   1.00
H195   H     0.96293   0.14432   0.10590   0.00000  Uiso   1.00
C196   C     0.87632   0.04616   0.14931   0.00000  Uiso   1.00
H197   H     0.89389   0.07576   0.14997   0.00000  Uiso   1.00
O198   O     0.87129   0.03435   0.10686   0.00000  Uiso   1.00
C199   C     0.78789   0.04549   0.34845   0.00000  Uiso   1.00
H200   H     0.80274   0.07511   0.35465   0.00000  Uiso   1.00
O201   O     0.75265   0.03306   0.38328   0.00000  Uiso   1.00
N202   N     0.78798   0.28726   0.34413   0.00000  Uiso   1.00
H203   H     0.80229   0.29630   0.37429   0.00000  Uiso   1.00
H204   H     0.75151   0.29289   0.35718   0.00000  Uiso   1.00
C205   C     0.72803   0.10034   0.19699   0.00000  Uiso   1.00
H206   H     0.76497   0.10536   0.17541   0.00000  Uiso   1.00
O207   O     0.71199   0.06512   0.19744   0.00000  Uiso   1.00
C208   C     0.69593   0.22950   0.31034   0.00000  Uiso   1.00
H209   H     0.72445   0.22404   0.32659   0.00000  Uiso   1.00
O210   O     0.67416   0.26262   0.32122   0.00000  Uiso   1.00
C211   C     0.75134   0.09682   0.06638   0.00000  Uiso   1.00
H212   H     0.77770   0.08240   0.08150   0.00000  Uiso   1.00
O213   O     0.70948   0.09112   0.09066   0.00000  Uiso   1.00
C214   C     0.88440   0.28661   0.15086   0.00000  Uiso   1.00
H215   H     0.87162   0.25625   0.14292   0.00000  Uiso   1.00
O216   O     0.92201   0.29907   0.12033   0.00000  Uiso   1.00
C217   C     0.16683   0.57970   0.24903   0.00000  Uiso   1.00
C218   C     0.14794   0.46223   0.48767   0.00000  Uiso   1.00
C219   C     0.16149   0.46629   0.43121   0.00000  Uiso   1.00
C220   C     0.18364   0.46751   0.01249   0.00000  Uiso   1.00
C221   C     0.23184   0.46520   0.48064   0.00000  Uiso   1.00
C222   C     0.24372   0.45521   0.42594   0.00000  Uiso   1.00
C223   C     0.20874   0.45561   0.40125   0.00000  Uiso   1.00
C224   C     0.17261   0.48096   0.06602   0.00000  Uiso   1.00
C225   C     0.25621   0.48755   0.05683   0.00000  Uiso   1.00
C226   C     0.12727   0.48070   0.40760   0.00000  Uiso   1.00
C227   C     0.19088   0.64459   0.19982   0.00000  Uiso   1.00
C228   C     0.14117   0.49558   0.35150   0.00000  Uiso   1.00
C229   C     0.18985   0.35504   0.20003   0.00000  Uiso   1.00
C230   C     0.16732   0.37590   0.24927   0.00000  Uiso   1.00
C231   C     0.14340   0.35488   0.29742   0.00000  Uiso   1.00
C232   C     0.14292   0.64465   0.29626   0.00000  Uiso   1.00
C233   C     0.16665   0.62387   0.24796   0.00000  Uiso   1.00
C234   C     0.31618   0.46888   0.22479   0.00000  Uiso   1.00
C235   C     0.03068   0.46863   0.22456   0.00000  Uiso   1.00
C236   C     0.01582   0.53060   0.27717   0.00000  Uiso   1.00
C237   C     0.30164   0.53064   0.27614   0.00000  Uiso   1.00
C238   C     0.16683   0.42022   0.24976   0.00000  Uiso   1.00
C239   C     0.19274   0.49880   0.14768   0.00000  Uiso   1.00
C240   C     0.26741   0.47490   0.00295   0.00000  Uiso   1.00
C241   C     0.20807   0.49003   0.08922   0.00000  Uiso   1.00
C242   C     0.07927   0.47944   0.43807   0.00000  Uiso   1.00
C243   C     0.06572   0.46366   0.49026   0.00000  Uiso   1.00
C244   C     0.09951   0.45456   0.01575   0.00000  Uiso   1.00
H245   H     0.30341   0.44428   0.20430   0.00000  Uiso   1.00
H246   H     0.27690   0.55465   0.29754   0.00000  Uiso   1.00
H247   H     0.28027   0.45006   0.40154   0.00000  Uiso   1.00
H248   H     0.30392   0.47430   0.47752   0.00000  Uiso   1.00
H249   H     0.13601   0.48642   0.08934   0.00000  Uiso   1.00
H250   H     0.05218   0.48814   0.42042   0.00000  Uiso   1.00
H251   H     0.02888   0.45747   0.01046   0.00000  Uiso   1.00
H252   H     0.21942   0.44732   0.35892   0.00000  Uiso   1.00
N253   N     0.04760   0.50001   0.25001   0.00000  Uiso   1.00
N254   N     0.28573   0.49998   0.25001   0.00000  Uiso   1.00
O255   O     0.12846   0.56108   0.25000   0.00000  Uiso   1.00
O256   O     0.20490   0.56107   0.25000   0.00000  Uiso   1.00
O257   O     0.10947   0.50000   0.32681   0.00000  Uiso   1.00
O258   O     0.18591   0.49999   0.32681   0.00000  Uiso   1.00
O259   O     0.12843   0.43893   0.24999   0.00000  Uiso   1.00
O260   O     0.20488   0.43892   0.25000   0.00000  Uiso   1.00
O261   O     0.14742   0.50001   0.17319   0.00000  Uiso   1.00
O262   O     0.22387   0.50000   0.17319   0.00000  Uiso   1.00
Zn263  Zn    0.11562   0.50001   0.25000   0.00000  Uiso   1.00
Zn264  Zn    0.21771   0.49999   0.25000   0.00000  Uiso   1.00
N265   N     0.29431   0.49904   0.07649   0.00000  Uiso   1.00
H266   H     0.28813   0.52926   0.09302   0.00000  Uiso   1.00
H267   H     0.29626   0.47765   0.10590   0.00000  Uiso   1.00
C268   C     0.20965   0.37949   0.14931   0.00000  Uiso   1.00
H269   H     0.22722   0.40910   0.14997   0.00000  Uiso   1.00
O270   O     0.20462   0.36769   0.10686   0.00000  Uiso   1.00
C271   C     0.12122   0.37882   0.34845   0.00000  Uiso   1.00
H272   H     0.13608   0.40845   0.35465   0.00000  Uiso   1.00
O273   O     0.08598   0.36640   0.38328   0.00000  Uiso   1.00
N274   N     0.12132   0.62060   0.34413   0.00000  Uiso   1.00
H275   H     0.13562   0.62963   0.37429   0.00000  Uiso   1.00
H276   H     0.08485   0.62622   0.35718   0.00000  Uiso   1.00
C277   C     0.06136   0.43367   0.19699   0.00000  Uiso   1.00
H278   H     0.09830   0.43869   0.17541   0.00000  Uiso   1.00
O279   O     0.04532   0.39845   0.19744   0.00000  Uiso   1.00
C280   C     0.02926   0.56283   0.31034   0.00000  Uiso   1.00
H281   H     0.05779   0.55738   0.32659   0.00000  Uiso   1.00
O282   O     0.00749   0.59595   0.32122   0.00000  Uiso   1.00
C283   C     0.08468   0.43015   0.06638   0.00000  Uiso   1.00
H284   H     0.11103   0.41573   0.08150   0.00000  Uiso   1.00
O285   O     0.04282   0.42446   0.09066   0.00000  Uiso   1.00
C286   C     0.21773   0.61994   0.15086   0.00000  Uiso   1.00
H287   H     0.20496   0.58959   0.14292   0.00000  Uiso   1.00
O288   O     0.25535   0.63241   0.12033   0.00000  Uiso   1.00
C289   C     0.50017   0.57970   0.24903   0.00000  Uiso   1.00
C290   C     0.48127   0.46223   0.48767   0.00000  Uiso   1.00
C291   C     0.49483   0.46629   0.43121   0.00000  Uiso   1.00
C292   C     0.51698   0.46751   0.01249   0.00000  Uiso   1.00
C293   C     0.56517   0.46520   0.48064   0.00000  Uiso   1.00
C294   C     0.57706   0.45521   0.42594   0.00000  Uiso   1.00
C295   C     0.54207   0.45561   0.40125   0.00000  Uiso   1.00
C296   C     0.50595   0.48096   0.06602   0.00000  Uiso   1.00
C297   C     0.58954   0.48755   0.05683   0.00000  Uiso   1.00
C298   C     0.46061   0.48070   0.40760   0.00000  Uiso   1.00
C299   C     0.52421   0.64459   0.19982   0.00000  Uiso   1.00
C300   C     0.47450   0.49558   0.35150   0.00000  Uiso   1.00
C301   C     0.52318   0.35504   0.20003   0.00000  Uiso   1.00
C302   C     0.50065   0.37590   0.24927   0.00000  Uiso   1.00
C303   C     0.47673   0.35488   0.29742   0.00000  Uiso   1.00
C304   C     0.47625   0.64465   0.29626   0.00000  Uiso   1.00
C305   C     0.49999   0.62387   0.24796   0.00000  Uiso   1.00
C306   C     0.64952   0.46888   0.22479   0.00000  Uiso   1.00
C307   C     0.36401   0.46863   0.22456   0.00000  Uiso   1.00
C308   C     0.34915   0.53060   0.27717   0.00000  Uiso   1.00
C309   C     0.63497   0.53064   0.27614   0.00000  Uiso   1.00
C310   C     0.50016   0.42022   0.24976   0.00000  Uiso   1.00
C311   C     0.52607   0.49880   0.14768   0.00000  Uiso   1.00
C312   C     0.60075   0.47490   0.00295   0.00000  Uiso   1.00
C313   C     0.54140   0.49003   0.08922   0.00000  Uiso   1.00
C314   C     0.41260   0.47944   0.43807   0.00000  Uiso   1.00
C315   C     0.39905   0.46366   0.49026   0.00000  Uiso   1.00
C316   C     0.43285   0.45456   0.01575   0.00000  Uiso   1.00
H317   H     0.63674   0.44428   0.20430   0.00000  Uiso   1.00
H318   H     0.61024   0.55465   0.29754   0.00000  Uiso   1.00
H319   H     0.61360   0.45006   0.40154   0.00000  Uiso   1.00
H320   H     0.63725   0.47430   0.47752   0.00000  Uiso   1.00
H321   H     0.46934   0.48642   0.08934   0.00000  Uiso   1.00
H322   H     0.38552   0.48814   0.42042   0.00000  Uiso   1.00
H323   H     0.36222   0.45747   0.01046   0.00000  Uiso   1.00
H324   H     0.55276   0.44732   0.35892   0.00000  Uiso   1.00
N325   N     0.38093   0.50001   0.25001   0.00000  Uiso   1.00
N326   N     0.61906   0.49998   0.25001   0.00000  Uiso   1.00
O327   O     0.46179   0.56108   0.25000   0.00000  Uiso   1.00
O328   O     0.53823   0.56107   0.25000   0.00000  Uiso   1.00
O329   O     0.44280   0.50000   0.32681   0.00000  Uiso   1.00
O330   O     0.51924   0.49999   0.32681   0.00000  Uiso   1.00
O331   O     0.46177   0.43893   0.24999   0.00000  Uiso   1.00
O332   O     0.53821   0.43892   0.25000   0.00000  Uiso   1.00
O333   O     0.48076   0.50001   0.17319   0.00000  Uiso   1.00
O334   O     0.55720   0.50000   0.17319   0.00000  Uiso   1.00
Zn335  Zn    0.44896   0.50001   0.25000   0.00000  Uiso   1.00
Zn336  Zn    0.55104   0.49999   0.25000   0.00000  Uiso   1.00
N337   N     0.62764   0.49904   0.07649   0.00000  Uiso   1.00
H338   H     0.62146   0.52926   0.09302   0.00000  Uiso   1.00
H339   H     0.62959   0.47765   0.10590   0.00000  Uiso   1.00
C340   C     0.54299   0.37949   0.14931   0.00000  Uiso   1.00
H341   H     0.56056   0.40910   0.14997   0.00000  Uiso   1.00
O342   O     0.53796   0.36769   0.10686   0.00000  Uiso   1.00
C343   C     0.45455   0.37882   0.34845   0.00000  Uiso   1.00
H344   H     0.46941   0.40845   0.35465   0.00000  Uiso   1.00
O345   O     0.41931   0.36640   0.38328   0.00000  Uiso   1.00
N346   N     0.45465   0.62060   0.34413   0.00000  Uiso   1.00
H347   H     0.46896   0.62963   0.37429   0.00000  Uiso   1.00
H348   H     0.41818   0.62622   0.35718   0.00000  Uiso   1.00
C349   C     0.39469   0.43367   0.19699   0.00000  Uiso   1.00
H350   H     0.43164   0.43869   0.17541   0.00000  Uiso   1.00
O351   O     0.37865   0.39845   0.19744   0.00000  Uiso   1.00
C352   C     0.36260   0.56283   0.31034   0.00000  Uiso   1.00
H353   H     0.39112   0.55738   0.32659   0.00000  Uiso   1.00
O354   O     0.34083   0.59595   0.32122   0.00000  Uiso   1.00
C355   C     0.41801   0.43015   0.06638   0.00000  Uiso   1.00
H356   H     0.44436   0.41573   0.08150   0.00000  Uiso   1.00
O357   O     0.37615   0.42446   0.09066   0.00000  Uiso   1.00
C358   C     0.55107   0.61994   0.15086   0.00000  Uiso   1.00
H359   H     0.53829   0.58959   0.14292   0.00000  Uiso   1.00
O360   O     0.58868   0.63241   0.12033   0.00000  Uiso   1.00
C361   C     0.83350   0.57970   0.24903   0.00000  Uiso   1.00
C362   C     0.81461   0.46223   0.48767   0.00000  Uiso   1.00
C363   C     0.82816   0.46629   0.43121   0.00000  Uiso   1.00
C364   C     0.85031   0.46751   0.01249   0.00000  Uiso   1.00
C365   C     0.89851   0.46520   0.48064   0.00000  Uiso   1.00
C366   C     0.91039   0.45521   0.42594   0.00000  Uiso   1.00
C367   C     0.87540   0.45561   0.40125   0.00000  Uiso   1.00
C368   C     0.83928   0.48096   0.06602   0.00000  Uiso   1.00
C369   C     0.92288   0.48755   0.05683   0.00000  Uiso   1.00
C370   C     0.79394   0.48070   0.40760   0.00000  Uiso   1.00
C371   C     0.85754   0.64459   0.19982   0.00000  Uiso   1.00
C372   C     0.80784   0.49558   0.35150   0.00000  Uiso   1.00
C373   C     0.85652   0.35504   0.20003   0.00000  Uiso   1.00
C374   C     0.83398   0.37590   0.24927   0.00000  Uiso   1.00
C375   C     0.81007   0.35488   0.29742   0.00000  Uiso   1.00
C376   C     0.80958   0.64465   0.29626   0.00000  Uiso   1.00
C377   C     0.83332   0.62387   0.24796   0.00000  Uiso   1.00
C378   C     0.98285   0.46888   0.22479   0.00000  Uiso   1.00
C379   C     0.69735   0.46863   0.22456   0.00000  Uiso   1.00
C380   C     0.68249   0.53060   0.27717   0.00000  Uiso   1.00
C381   C     0.96831   0.53064   0.27614   0.00000  Uiso   1.00
C382   C     0.83349   0.42022   0.24976   0.00000  Uiso   1.00
C383   C     0.85940   0.49880   0.14768   0.00000  Uiso   1.00
C384   C     0.93408   0.47490   0.00295   0.00000  Uiso   1.00
C385   C     0.87473   0.49003   0.08922   0.00000  Uiso   1.00
C386   C     0.74594   0.47944   0.43807   0.00000  Uiso   1.00
C387   C     0.73239   0.46366   0.49026   0.00000  Uiso   1.00
C388   C     0.76618   0.45456   0.01575   0.00000  Uiso   1.00
H389   H     0.97008   0.44428   0.20430   0.00000  Uiso   1.00
H390   H     0.94357   0.55465   0.29754   0.00000  Uiso   1.00
H391   H     0.94693   0.45006   0.40154   0.00000  Uiso   1.00
H392   H     0.97058   0.47430   0.47752   0.00000  Uiso   1.00
H393   H     0.80267   0.48642   0.08934   0.00000  Uiso   1.00
H394   H     0.71885   0.48814   0.42042   0.00000  Uiso   1.00
H395   H     0.69555   0.45747   0.01046   0.00000  Uiso   1.00
H396   H     0.88609   0.44732   0.35892   0.00000  Uiso   1.00
N397   N     0.71426   0.50001   0.25001   0.00000  Uiso   1.00
N398   N     0.95239   0.49998   0.25001   0.00000  Uiso   1.00
O399   O     0.79512   0.56108   0.25000   0.00000  Uiso   1.00
O400   O     0.87157   0.56107   0.25000   0.00000  Uiso   1.00
O401   O     0.77613   0.50000   0.32681   0.00000  Uiso   1.00
O402   O     0.85258   0.49999   0.32681   0.00000  Uiso   1.00
O403   O     0.79510   0.43893   0.24999   0.00000  Uiso   1.00
O404   O     0.87154   0.43892   0.25000   0.00000  Uiso   1.00
O405   O     0.81409   0.50001   0.17319   0.00000  Uiso   1.00
O406   O     0.89053   0.50000   0.17319   0.00000  Uiso   1.00
Zn407  Zn    0.78229   0.50001   0.25000   0.00000  Uiso   1.00
Zn408  Zn    0.88438   0.49999   0.25000   0.00000  Uiso   1.00
N409   N     0.96097   0.49904   0.07649   0.00000  Uiso   1.00
H410   H     0.95480   0.52926   0.09302   0.00000  Uiso   1.00
H411   H     0.96293   0.47765   0.10590   0.00000  Uiso   1.00
C412   C     0.87632   0.37949   0.14931   0.00000  Uiso   1.00
H413   H     0.89389   0.40910   0.14997   0.00000  Uiso   1.00
O414   O     0.87129   0.36769   0.10686   0.00000  Uiso   1.00
C415   C     0.78789   0.37882   0.34845   0.00000  Uiso   1.00
H416   H     0.80274   0.40845   0.35465   0.00000  Uiso   1.00
O417   O     0.75265   0.36640   0.38328   0.00000  Uiso   1.00
N418   N     0.78798   0.62060   0.34413   0.00000  Uiso   1.00
H419   H     0.80229   0.62963   0.37429   0.00000  Uiso   1.00
H420   H     0.75151   0.62622   0.35718   0.00000  Uiso   1.00
C421   C     0.72803   0.43367   0.19699   0.00000  Uiso   1.00
H422   H     0.76497   0.43869   0.17541   0.00000  Uiso   1.00
O423   O     0.71199   0.39845   0.19744   0.00000  Uiso   1.00
C424   C     0.69593   0.56283   0.31034   0.00000  Uiso   1.00
H425   H     0.72445   0.55738   0.32659   0.00000  Uiso   1.00
O426   O     0.67416   0.59595   0.32122   0.00000  Uiso   1.00
C427   C     0.75134   0.43015   0.06638   0.00000  Uiso   1.00
H428   H     0.77770   0.41573   0.08150   0.00000  Uiso   1.00
O429   O     0.70948   0.42446   0.09066   0.00000  Uiso   1.00
C430   C     0.88440   0.61994   0.15086   0.00000  Uiso   1.00
H431   H     0.87162   0.58959   0.14292   0.00000  Uiso   1.00
O432   O     0.92201   0.63241   0.12033   0.00000  Uiso   1.00
C433   C     0.16683   0.91304   0.24903   0.00000  Uiso   1.00
C434   C     0.14794   0.79557   0.48767   0.00000  Uiso   1.00
C435   C     0.16149   0.79963   0.43121   0.00000  Uiso   1.00
C436   C     0.18364   0.80084   0.01249   0.00000  Uiso   1.00
C437   C     0.23184   0.79853   0.48064   0.00000  Uiso   1.00
C438   C     0.24372   0.78855   0.42594   0.00000  Uiso   1.00
C439   C     0.20874   0.78894   0.40125   0.00000  Uiso   1.00
C440   C     0.17261   0.81430   0.06602   0.00000  Uiso   1.00
C441   C     0.25621   0.82088   0.05683   0.00000  Uiso   1.00
C442   C     0.12727   0.81403   0.40760   0.00000  Uiso   1.00
C443   C     0.19088   0.97793   0.19982   0.00000  Uiso   1.00
C444   C     0.14117   0.82892   0.35150   0.00000  Uiso   1.00
C445   C     0.18985   0.68837   0.20003   0.00000  Uiso   1.00
C446   C     0.16732   0.70923   0.24927   0.00000  Uiso   1.00
C447   C     0.14340   0.68821   0.29742   0.00000  Uiso   1.00
C448   C     0.14292   0.97798   0.29626   0.00000  Uiso   1.00
C449   C     0.16665   0.95720   0.24796   0.00000  Uiso   1.00
C450   C     0.31618   0.80221   0.22479   0.00000  Uiso   1.00
C451   C     0.03068   0.80196   0.22456   0.00000  Uiso   1.00
C452   C     0.01582   0.86394   0.27717   0.00000  Uiso   1.00
C453   C     0.30164   0.86397   0.27614   0.00000  Uiso   1.00
C454   C     0.16683   0.75355   0.24976   0.00000  Uiso   1.00
C455   C     0.19274   0.83213   0.14768   0.00000  Uiso   1.00
C456   C     0.26741   0.80824   0.00295   0.00000  Uiso   1.00
C457   C     0.20807   0.82336   0.08922   0.00000  Uiso   1.00
C458   C     0.07927   0.81277   0.43807   0.00000  Uiso   1.00
C459   C     0.06572   0.79699   0.49026   0.00000  Uiso   1.00
C460   C     0.09951   0.78790   0.01575   0.00000  Uiso   1.00
H461   H     0.30341   0.77762   0.20430   0.00000  Uiso   1.00
H462   H     0.27690   0.88798   0.29754   0.00000  Uiso   1.00
H463   H     0.28027   0.78339   0.40154   0.00000  Uiso   1.00
H464   H     0.30392   0.80763   0.47752   0.00000  Uiso   1.00
H465   H     0.13601   0.81976   0.08934   0.00000  Uiso   1.00
H466   H     0.05218   0.82147   0.42042   0.00000  Uiso   1.00
H467   H     0.02888   0.79080   0.01046   0.00000  Uiso   1.00
H468   H     0.21942   0.78066   0.35892   0.00000  Uiso   1.00
N469   N     0.04760   0.83334   0.25001   0.00000  Uiso   1.00
N470   N     0.28573   0.83331   0.25001   0.00000  Uiso   1.00
O471   O     0.12846   0.89442   0.25000   0.00000  Uiso   1.00
O472   O     0.20490   0.89441   0.25000   0.00000  Uiso   1.00
O473   O     0.10947   0.83333   0.32681   0.00000  Uiso   1.00
O474   O     0.18591   0.83332   0.32681   0.00000  Uiso   1.00
O475   O     0.12843   0.77226   0.24999   0.00000  Uiso   1.00
O476   O     0.20488   0.77225   0.25000   0.00000  Uiso   1.00
O477   O     0.14742   0.83335   0.17319   0.00000  Uiso   1.00
O478   O     0.22387   0.83334   0.17319   0.00000  Uiso   1.00
Zn479  Zn    0.11562   0.83334   0.25000   0.00000  Uiso   1.00
Zn480  Zn    0.21771   0.83333   0.25000   0.00000  Uiso   1.00
N481   N     0.29431   0.83237   0.07649   0.00000  Uiso   1.00
H482   H     0.28813   0.86259   0.09302   0.00000  Uiso   1.00
H483   H     0.29626   0.81099   0.10590   0.00000  Uiso   1.00
C484   C     0.20965   0.71283   0.14931   0.00000  Uiso   1.00
H485   H     0.22722   0.74243   0.14997   0.00000  Uiso   1.00
O486   O     0.20462   0.70102   0.10686   0.00000  Uiso   1.00
C487   C     0.12122   0.71215   0.34845   0.00000  Uiso   1.00
H488   H     0.13608   0.74178   0.35465   0.00000  Uiso   1.00
O489   O     0.08598   0.69973   0.38328   0.00000  Uiso   1.00
N490   N     0.12132   0.95393   0.34413   0.00000  Uiso   1.00
H491   H     0.13562   0.96297   0.37429   0.00000  Uiso   1.00
H492   H     0.08485   0.95956   0.35718   0.00000  Uiso   1.00
C493   C     0.06136   0.76700   0.19699   0.00000  Uiso   1.00
H494   H     0.09830   0.77203   0.17541   0.00000  Uiso   1.00
O495   O     0.04532   0.73179   0.19744   0.00000  Uiso   1.00
C496   C     0.02926   0.89616   0.31034   0.00000  Uiso   1.00
H497   H     0.05779   0.89071   0.32659   0.00000  Uiso   1.00
O498   O     0.00749   0.92928   0.32122   0.00000  Uiso   1.00
C499   C     0.08468   0.76348   0.06638   0.00000  Uiso   1.00
H500   H     0.11103   0.74906   0.08150   0.00000  Uiso   1.00
O501   O     0.04282   0.75779   0.09066   0.00000  Uiso   1.00
C502   C     0.21773   0.95327   0.15086   0.00000  Uiso   1.00
H503   H     0.20496   0.92292   0.14292   0.00000  Uiso   1.00
O504   O     0.25535   0.96574   0.12033   0.00000  Uiso   1.00
C505   C     0.50017   0.91304   0.24903   0.00000  Uiso   1.00
C506   C     0.48127   0.79557   0.48767   0.00000  Uiso   1.00
C507   C     0.49483   0.79963   0.43121   0.00000  Uiso   1.00
C508   C     0.51698   0.80084   0.01249   0.00000  Uiso   1.00
C509   C     0.56517   0.79853   0.48064   0.00000  Uiso   1.00
C510   C     0.57706   0.78855   0.42594   0.00000  Uiso   1.00
C511   C     0.54207   0.78894   0.40125   0.00000  Uiso   1.00
C512   C     0.50595   0.81430   0.06602   0.00000  Uiso   1.00
C513   C     0.58954   0.82088   0.05683   0.00000  Uiso   1.00
C514   C     0.46061   0.81403   0.40760   0.00000  Uiso   1.00
C515   C     0.52421   0.97793   0.19982   0.00000  Uiso   1.00
C516   C     0.47450   0.82892   0.35150   0.00000  Uiso   1.00
C517   C     0.52318   0.68837   0.20003   0.00000  Uiso   1.00
C518   C     0.50065   0.70923   0.24927   0.00000  Uiso   1.00
C519   C     0.47673   0.68821   0.29742   0.00000  Uiso   1.00
C520   C     0.47625   0.97798   0.29626   0.00000  Uiso   1.00
C521   C     0.49999   0.95720   0.24796   0.00000  Uiso   1.00
C522   C     0.64952   0.80221   0.22479   0.00000  Uiso   1.00
C523   C     0.36401   0.80196   0.22456   0.00000  Uiso   1.00
C524   C     0.34915   0.86394   0.27717   0.00000  Uiso   1.00
C525   C     0.63497   0.86397   0.27614   0.00000  Uiso   1.00
C526   C     0.50016   0.75355   0.24976   0.00000  Uiso   1.00
C527   C     0.52607   0.83213   0.14768   0.00000  Uiso   1.00
C528   C     0.60075   0.80824   0.00295   0.00000  Uiso   1.00
C529   C     0.54140   0.82336   0.08922   0.00000  Uiso   1.00
C530   C     0.41260   0.81277   0.43807   0.00000  Uiso   1.00
C531   C     0.39905   0.79699   0.49026   0.00000  Uiso   1.00
C532   C     0.43285   0.78790   0.01575   0.00000  Uiso   1.00
H533   H     0.63674   0.77762   0.20430   0.00000  Uiso   1.00
H534   H     0.61024   0.88798   0.29754   0.00000  Uiso   1.00
H535   H     0.61360   0.78339   0.40154   0.00000  Uiso   1.00
H536   H     0.63725   0.80763   0.47752   0.00000  Uiso   1.00
H537   H     0.46934   0.81976   0.08934   0.00000  Uiso   1.00
H538   H     0.38552   0.82147   0.42042   0.00000  Uiso   1.00
H539   H     0.36222   0.79080   0.01046   0.00000  Uiso   1.00
H540   H     0.55276   0.78066   0.35892   0.00000  Uiso   1.00
N541   N     0.38093   0.83334   0.25001   0.00000  Uiso   1.00
N542   N     0.61906   0.83331   0.25001   0.00000  Uiso   1.00
O543   O     0.46179   0.89442   0.25000   0.00000  Uiso   1.00
O544   O     0.53823   0.89441   0.25000   0.00000  Uiso   1.00
O545   O     0.44280   0.83333   0.32681   0.00000  Uiso   1.00
O546   O     0.51924   0.83332   0.32681   0.00000  Uiso   1.00
O547   O     0.46177   0.77226   0.24999   0.00000  Uiso   1.00
O548   O     0.53821   0.77225   0.25000   0.00000  Uiso   1.00
O549   O     0.48076   0.83335   0.17319   0.00000  Uiso   1.00
O550   O     0.55720   0.83334   0.17319   0.00000  Uiso   1.00
Zn551  Zn    0.44896   0.83334   0.25000   0.00000  Uiso   1.00
Zn552  Zn    0.55104   0.83333   0.25000   0.00000  Uiso   1.00
N553   N     0.62764   0.83237   0.07649   0.00000  Uiso   1.00
H554   H     0.62146   0.86259   0.09302   0.00000  Uiso   1.00
H555   H     0.62959   0.81099   0.10590   0.00000  Uiso   1.00
C556   C     0.54299   0.71283   0.14931   0.00000  Uiso   1.00
H557   H     0.56056   0.74243   0.14997   0.00000  Uiso   1.00
O558   O     0.53796   0.70102   0.10686   0.00000  Uiso   1.00
C559   C     0.45455   0.71215   0.34845   0.00000  Uiso   1.00
H560   H     0.46941   0.74178   0.35465   0.00000  Uiso   1.00
O561   O     0.41931   0.69973   0.38328   0.00000  Uiso   1.00
N562   N     0.45465   0.95393   0.34413   0.00000  Uiso   1.00
H563   H     0.46896   0.96297   0.37429   0.00000  Uiso   1.00
H564   H     0.41818   0.95956   0.35718   0.00000  Uiso   1.00
C565   C     0.39469   0.76700   0.19699   0.00000  Uiso   1.00
H566   H     0.43164   0.77203   0.17541   0.00000  Uiso   1.00
O567   O     0.37865   0.73179   0.19744   0.00000  Uiso   1.00
C568   C     0.36260   0.89616   0.31034   0.00000  Uiso   1.00
H569   H     0.39112   0.89071   0.32659   0.00000  Uiso   1.00
O570   O     0.34083   0.92928   0.32122   0.00000  Uiso   1.00
C571   C     0.41801   0.76348   0.06638   0.00000  Uiso   1.00
H572   H     0.44436   0.74906   0.08150   0.00000  Uiso   1.00
O573   O     0.37615   0.75779   0.09066   0.00000  Uiso   1.00
C574   C     0.55107   0.95327   0.15086   0.00000  Uiso   1.00
H575   H     0.53829   0.92292   0.14292   0.00000  Uiso   1.00
O576   O     0.58868   0.96574   0.12033   0.00000  Uiso   1.00
C577   C     0.83350   0.91304   0.24903   0.00000  Uiso   1.00
C578   C     0.81461   0.79557   0.48767   0.00000  Uiso   1.00
C579   C     0.82816   0.79963   0.43121   0.00000  Uiso   1.00
C580   C     0.85031   0.80084   0.01249   0.00000  Uiso   1.00
C581   C     0.89851   0.79853   0.48064   0.00000  Uiso   1.00
C582   C     0.91039   0.78855   0.42594   0.00000  Uiso   1.00
C583   C     0.87540   0.78894   0.40125   0.00000  Uiso   1.00
C584   C     0.83928   0.81430   0.06602   0.00000  Uiso   1.00
C585   C     0.92288   0.82088   0.05683   0.00000  Uiso   1.00
C586   C     0.79394   0.81403   0.40760   0.00000  Uiso   1.00
C587   C     0.85754   0.97793   0.19982   0.00000  Uiso   1.00
C588   C     0.80784   0.82892   0.35150   0.00000  Uiso   1.00
C589   C     0.85652   0.68837   0.20003   0.00000  Uiso   1.00
C590   C     0.83398   0.70923   0.24927   0.00000  Uiso   1.00
C591   C     0.81007   0.68821   0.29742   0.00000  Uiso   1.00
C592   C     0.80958   0.97798   0.29626   0.00000  Uiso   1.00
C593   C     0.83332   0.95720   0.24796   0.00000  Uiso   1.00
C594   C     0.98285   0.80221   0.22479   0.00000  Uiso   1.00
C595   C     0.69735   0.80196   0.22456   0.00000  Uiso   1.00
C596   C     0.68249   0.86394   0.27717   0.00000  Uiso   1.00
C597   C     0.96831   0.86397   0.27614   0.00000  Uiso   1.00
C598   C     0.83349   0.75355   0.24976   0.00000  Uiso   1.00
C599   C     0.85940   0.83213   0.14768   0.00000  Uiso   1.00
C600   C     0.93408   0.80824   0.00295   0.00000  Uiso   1.00
C601   C     0.87473   0.82336   0.08922   0.00000  Uiso   1.00
C602   C     0.74594   0.81277   0.43807   0.00000  Uiso   1.00
C603   C     0.73239   0.79699   0.49026   0.00000  Uiso   1.00
C604   C     0.76618   0.78790   0.01575   0.00000  Uiso   1.00
H605   H     0.97008   0.77762   0.20430   0.00000  Uiso   1.00
H606   H     0.94357   0.88798   0.29754   0.00000  Uiso   1.00
H607   H     0.94693   0.78339   0.40154   0.00000  Uiso   1.00
H608   H     0.97058   0.80763   0.47752   0.00000  Uiso   1.00
H609   H     0.80267   0.81976   0.08934   0.00000  Uiso   1.00
H610   H     0.71885   0.82147   0.42042   0.00000  Uiso   1.00
H611   H     0.69555   0.79080   0.01046   0.00000  Uiso   1.00
H612   H     0.88609   0.78066   0.35892   0.00000  Uiso   1.00
N613   N     0.71426   0.83334   0.25001   0.00000  Uiso   1.00
N614   N     0.95239   0.83331   0.25001   0.00000  Uiso   1.00
O615   O     0.79512   0.89442   0.25000   0.00000  Uiso   1.00
O616   O     0.87157   0.89441   0.25000   0.00000  Uiso   1.00
O617   O     0.77613   0.83333   0.32681   0.00000  Uiso   1.00
O618   O     0.85258   0.83332   0.32681   0.00000  Uiso   1.00
O619   O     0.79510   0.77226   0.24999   0.00000  Uiso   1.00
O620   O     0.87154   0.77225   0.25000   0.00000  Uiso   1.00
O621   O     0.81409   0.83335   0.17319   0.00000  Uiso   1.00
O622   O     0.89053   0.83334   0.17319   0.00000  Uiso   1.00
Zn623  Zn    0.78229   0.83334   0.25000   0.00000  Uiso   1.00
Zn624  Zn    0.88438   0.83333   0.25000   0.00000  Uiso   1.00
N625   N     0.96097   0.83237   0.07649   0.00000  Uiso   1.00
H626   H     0.95480   0.86259   0.09302   0.00000  Uiso   1.00
H627   H     0.96293   0.81099   0.10590   0.00000  Uiso   1.00
C628   C     0.87632   0.71283   0.14931   0.00000  Uiso   1.00
H629   H     0.89389   0.74243   0.14997   0.00000  Uiso   1.00
O630   O     0.87129   0.70102   0.10686   0.00000  Uiso   1.00
C631   C     0.78789   0.71215   0.34845   0.00000  Uiso   1.00
H632   H     0.80274   0.74178   0.35465   0.00000  Uiso   1.00
O633   O     0.75265   0.69973   0.38328   0.00000  Uiso   1.00
N634   N     0.78798   0.95393   0.34413   0.00000  Uiso   1.00
H635   H     0.80229   0.96297   0.37429   0.00000  Uiso   1.00
H636   H     0.75151   0.95956   0.35718   0.00000  Uiso   1.00
C637   C     0.72803   0.76700   0.19699   0.00000  Uiso   1.00
H638   H     0.76497   0.77203   0.17541   0.00000  Uiso   1.00
O639   O     0.71199   0.73179   0.19744   0.00000  Uiso   1.00
C640   C     0.69593   0.89616   0.31034   0.00000  Uiso   1.00
H641   H     0.72445   0.89071   0.32659   0.00000  Uiso   1.00
O642   O     0.67416   0.92928   0.32122   0.00000  Uiso   1.00
C643   C     0.75134   0.76348   0.06638   0.00000  Uiso   1.00
H644   H     0.77770   0.74906   0.08150   0.00000  Uiso   1.00
O645   O     0.70948   0.75779   0.09066   0.00000  Uiso   1.00
C646   C     0.88440   0.95327   0.15086   0.00000  Uiso   1.00
H647   H     0.87162   0.92292   0.14292   0.00000  Uiso   1.00
O648   O     0.92201   0.96574   0.12033   0.00000  Uiso   1.00
C649   C     0.16683   0.24637   0.74903   0.00000  Uiso   1.00
C650   C     0.14794   0.12890   0.98767   0.00000  Uiso   1.00
C651   C     0.16149   0.13296   0.93121   0.00000  Uiso   1.00
C652   C     0.18364   0.13417   0.51249   0.00000  Uiso   1.00
C653   C     0.23184   0.13186   0.98064   0.00000  Uiso   1.00
C654   C     0.24372   0.12188   0.92594   0.00000  Uiso   1.00
C655   C     0.20874   0.12227   0.90125   0.00000  Uiso   1.00
C656   C     0.17261   0.14763   0.56602   0.00000  Uiso   1.00
C657   C     0.25621   0.15422   0.55683   0.00000  Uiso   1.00
C658   C     0.12727   0.14737   0.90760   0.00000  Uiso   1.00
C659   C     0.19088   0.31126   0.69982   0.00000  Uiso   1.00
C660   C     0.14117   0.16225   0.85150   0.00000  Uiso   1.00
C661   C     0.18985   0.02171   0.70003   0.00000  Uiso   1.00
C662   C     0.16732   0.04256   0.74927   0.00000  Uiso   1.00
C663   C     0.14340   0.02155   0.79742   0.00000  Uiso   1.00
C664   C     0.14292   0.31132   0.79626   0.00000  Uiso   1.00
C665   C     0.16665   0.29053   0.74796   0.00000  Uiso   1.00
C666   C     0.31618   0.13555   0.72479   0.00000  Uiso   1.00
C667   C     0.03068   0.13530   0.72456   0.00000  Uiso   1.00
C668   C     0.01582   0.19727   0.77717   0.00000  Uiso   1.00
C669   C     0.30164   0.19730   0.77614   0.00000  Uiso   1.00
C670   C     0.16683   0.08689   0.74976   0.00000  Uiso   1.00
C671   C     0.19274   0.16547   0.64768   0.00000  Uiso   1.00
C672   C     0.26741   0.14157   0.50295   0.00000  Uiso   1.00
C673   C     0.20807   0.15669   0.58922   0.00000  Uiso   1.00
C674   C     0.07927   0.14610   0.93807   0.00000  Uiso   1.00
C675   C     0.06572   0.13033   0.99026   0.00000  Uiso   1.00
C676   C     0.09951   0.12123   0.51575   0.00000  Uiso   1.00
H677   H     0.30341   0.11095   0.70430   0.00000  Uiso   1.00
H678   H     0.27690   0.22132   0.79754   0.00000  Uiso   1.00
H679   H     0.28027   0.11672   0.90154   0.00000  Uiso   1.00
H680   H     0.30392   0.14097   0.97752   0.00000  Uiso   1.00
H681   H     0.13601   0.15309   0.58934   0.00000  Uiso   1.00
H682   H     0.05218   0.15480   0.92042   0.00000  Uiso   1.00
H683   H     0.02888   0.12413   0.51046   0.00000  Uiso   1.00
H684   H     0.21942   0.11399   0.85892   0.00000  Uiso   1.00
N685   N     0.04760   0.16668   0.75001   0.00000  Uiso   1.00
N686   N     0.28573   0.16665   0.75001   0.00000  Uiso   1.00
O687   O     0.12846   0.22775   0.75000   0.00000  Uiso   1.00
O688   O     0.20490   0.22774   0.75000   0.00000  Uiso   1.00
O689   O     0.10947   0.16666   0.82681   0.00000  Uiso   1.00
O690   O     0.18591   0.16665   0.82681   0.00000  Uiso   1.00
O691   O     0.12843   0.10559   0.74999   0.00000  Uiso   1.00
O692   O     0.20488   0.10558   0.75000   0.00000  Uiso   1.00
O693   O     0.14742   0.16668   0.67319   0.00000  Uiso   1.00
O694   O     0.22387   0.16667   0.67319   0.00000  Uiso   1.00
Zn695  Zn    0.11562   0.16667   0.75000   0.00000  Uiso   1.00
Zn696  Zn    0.21771   0.16666   0.75000   0.00000  Uiso   1.00
N697   N     0.29431   0.16571   0.57649   0.00000  Uiso   1.00
H698   H     0.28813   0.19592   0.59302   0.00000  Uiso   1.00
H699   H     0.29626   0.14432   0.60590   0.00000  Uiso   1.00
C700   C     0.20965   0.04616   0.64931   0.00000  Uiso   1.00
H701   H     0.22722   0.07576   0.64997   0.00000  Uiso   1.00
O702   O     0.20462   0.03435   0.60686   0.00000  Uiso   1.00
C703   C     0.12122   0.04549   0.84845   0.00000  Uiso   1.00
H704   H     0.13608   0.07511   0.85465   0.00000  Uiso   1.00
O705   O     0.08598   0.03306   0.88328   0.00000  Uiso   1.00
N706   N     0.12132   0.28726   0.84413   0.00000  Uiso   1.00
H707   H     0.13562   0.29630   0.87429   0.00000  Uiso   1.00
H708   H     0.08485   0.29289   0.85718   0.00000  Uiso   1.00
C709   C     0.06136   0.10034   0.69699   0.00000  Uiso   1.00
H710   H     0.09830   0.10536   0.67541   0.00000  Uiso   1.00
O711   O     0.04532   0.06512   0.69744   0.00000  Uiso   1.00
C712   C     0.02926   0.22950   0.81034   0.00000  Uiso   1.00
H713   H     0.05779   0.22404   0.82659   0.00000  Uiso   1.00
O714   O     0.00749   0.26262   0.82122   0.00000  Uiso   1.00
C715   C     0.08468   0.09682   0.56638   0.00000  Uiso   1.00
H716   H     0.11103   0.08240   0.58150   0.00000  Uiso   1.00
O717   O     0.04282   0.09112   0.59066   0.00000  Uiso   1.00
C718   C     0.21773   0.28661   0.65086   0.00000  Uiso   1.00
H719   H     0.20496   0.25625   0.64292   0.00000  Uiso   1.00
O720   O     0.25535   0.29907   0.62033   0.00000  Uiso   1.00
C721   C     0.50017   0.24637   0.74903   0.00000  Uiso   1.00
C722   C     0.48127   0.12890   0.98767   0.00000  Uiso   1.00
C723   C     0.49483   0.13296   0.93121   0.00000  Uiso   1.00
C724   C     0.51698   0.13417   0.51249   0.00000  Uiso   1.00
C725   C     0.56517   0.13186   0.98064   0.00000  Uiso   1.00
C726   C     0.57706   0.12188   0.92594   0.00000  Uiso   1.00
C727   C     0.54207   0.12227   0.90125   0.00000  Uiso   1.00
C728   C     0.50595   0.14763   0.56602   0.00000  Uiso   1.00
C729   C     0.58954   0.15422   0.55683   0.00000  Uiso   1.00
C730   C     0.46061   0.14737   0.90760   0.00000  Uiso   1.00
C731   C     0.52421   0.31126   0.69982   0.00000  Uiso   1.00
C732   C     0.47450   0.16225   0.85150   0.00000  Uiso   1.00
C733   C     0.52318   0.02171   0.70003   0.00000  Uiso   1.00
C734   C     0.50065   0.04256   0.74927   0.00000  Uiso   1.00
C735   C     0.47673   0.02155   0.79742   0.00000  Uiso   1.00
C736   C     0.47625   0.31132   0.79626   0.00000  Uiso   1.00
C737   C     0.49999   0.29053   0.74796   0.00000  Uiso   1.00
C738   C     0.64952   0.13555   0.72479   0.00000  Uiso   1.00
C739   C     0.36401   0.13530   0.72456   0.00000  Uiso   1.00
C740   C     0.34915   0.19727   0.77717   0.00000  Uiso   1.00
C741   C     0.63497   0.19730   0.77614   0.00000  Uiso   1.00
C742   C     0.50016   0.08689   0.74976   0.00000  Uiso   1.00
C743   C     0.52607   0.16547   0.64768   0.00000  Uiso   1.00
C744   C     0.60075   0.14157   0.50295   0.00000  Uiso   1.00
C745   C     0.54140   0.15669   0.58922   0.00000  Uiso   1.00
C746   C     0.41260   0.14610   0.93807   0.00000  Uiso   1.00
C747   C     0.39905   0.13033   0.99026   0.00000  Uiso   1.00
C748   C     0.43285   0.12123   0.51575   0.00000  Uiso   1.00
H749   H     0.63674   0.11095   0.70430   0.00000  Uiso   1.00
H750   H     0.61024   0.22132   0.79754   0.00000  Uiso   1.00
H751   H     0.61360   0.11672   0.90154   0.00000  Uiso   1.00
H752   H     0.63725   0.14097   0.97752   0.00000  Uiso   1.00
H753   H     0.46934   0.15309   0.58934   0.00000  Uiso   1.00
H754   H     0.38552   0.15480   0.92042   0.00000  Uiso   1.00
H755   H     0.36222   0.12413   0.51046   0.00000  Uiso   1.00
H756   H     0.55276   0.11399   0.85892   0.00000  Uiso   1.00
N757   N     0.38093   0.16668   0.75001   0.00000  Uiso   1.00
N758   N     0.61906   0.16665   0.75001   0.00000  Uiso   1.00
O759   O     0.46179   0.22775   0.75000   0.00000  Uiso   1.00
O760   O     0.53823   0.22774   0.75000   0.00000  Uiso   1.00
O761   O     0.44280   0.16666   0.82681   0.00000  Uiso   1.00
O762   O     0.51924   0.16665   0.82681   0.00000  Uiso   1.00
O763   O     0.46177   0.10559   0.74999   0.00000  Uiso   1.00
O764   O     0.53821   0.10558   0.75000   0.00000  Uiso   1.00
O765   O     0.48076   0.16668   0.67319   0.00000  Uiso   1.00
O766   O     0.55720   0.16667   0.67319   0.00000  Uiso   1.00
Zn767  Zn    0.44896   0.16667   0.75000   0.00000  Uiso   1.00
Zn768  Zn    0.55104   0.16666   0.75000   0.00000  Uiso   1.00
N769   N     0.62764   0.16571   0.57649   0.00000  Uiso   1.00
H770   H     0.62146   0.19592   0.59302   0.00000  Uiso   1.00
H771   H     0.62959   0.14432   0.60590   0.00000  Uiso   1.00
C772   C     0.54299   0.04616   0.64931   0.00000  Uiso   1.00
H773   H     0.56056   0.07576   0.64997   0.00000  Uiso   1.00
O774   O     0.53796   0.03435   0.60686   0.00000  Uiso   1.00
C775   C     0.45455   0.04549   0.84845   0.00000  Uiso   1.00
H776   H     0.46941   0.07511   0.85465   0.00000  Uiso   1.00
O777   O     0.41931   0.03306   0.88328   0.00000  Uiso   1.00
N778   N     0.45465   0.28726   0.84413   0.00000  Uiso   1.00
H779   H     0.46896   0.29630   0.87429   0.00000  Uiso   1.00
H780   H     0.41818   0.29289   0.85718   0.00000  Uiso   1.00
C781   C     0.39469   0.10034   0.69699   0.00000  Uiso   1.00
H782   H     0.43164   0.10536   0.67541   0.00000  Uiso   1.00
O783   O     0.37865   0.06512   0.69744   0.00000  Uiso   1.00
C784   C     0.36260   0.22950   0.81034   0.00000  Uiso   1.00
H785   H     0.39112   0.22404   0.82659   0.00000  Uiso   1.00
O786   O     0.34083   0.26262   0.82122   0.00000  Uiso   1.00
C787   C     0.41801   0.09682   0.56638   0.00000  Uiso   1.00
H788   H     0.44436   0.08240   0.58150   0.00000  Uiso   1.00
O789   O     0.37615   0.09112   0.59066   0.00000  Uiso   1.00
C790   C     0.55107   0.28661   0.65086   0.00000  Uiso   1.00
H791   H     0.53829   0.25625   0.64292   0.00000  Uiso   1.00
O792   O     0.58868   0.29907   0.62033   0.00000  Uiso   1.00
C793   C     0.83350   0.24637   0.74903   0.00000  Uiso   1.00
C794   C     0.81461   0.12890   0.98767   0.00000  Uiso   1.00
C795   C     0.82816   0.13296   0.93121   0.00000  Uiso   1.00
C796   C     0.85031   0.13417   0.51249   0.00000  Uiso   1.00
C797   C     0.89851   0.13186   0.98064   0.00000  Uiso   1.00
C798   C     0.91039   0.12188   0.92594   0.00000  Uiso   1.00
C799   C     0.87540   0.12227   0.90125   0.00000  Uiso   1.00
C800   C     0.83928   0.14763   0.56602   0.00000  Uiso   1.00
C801   C     0.92288   0.15422   0.55683   0.00000  Uiso   1.00
C802   C     0.79394   0.14737   0.90760   0.00000  Uiso   1.00
C803   C     0.85754   0.31126   0.69982   0.00000  Uiso   1.00
C804   C     0.80784   0.16225   0.85150   0.00000  Uiso   1.00
C805   C     0.85652   0.02171   0.70003   0.00000  Uiso   1.00
C806   C     0.83398   0.04256   0.74927   0.00000  Uiso   1.00
C807   C     0.81007   0.02155   0.79742   0.00000  Uiso   1.00
C808   C     0.80958   0.31132   0.79626   0.00000  Uiso   1.00
C809   C     0.83332   0.29053   0.74796   0.00000  Uiso   1.00
C810   C     0.98285   0.13555   0.72479   0.00000  Uiso   1.00
C811   C     0.69735   0.13530   0.72456   0.00000  Uiso   1.00
C812   C     0.68249   0.19727   0.77717   0.00000  Uiso   1.00
C813   C     0.96831   0.19730   0.77614   0.00000  Uiso   1.00
C814   C     0.83349   0.08689   0.74976   0.00000  Uiso   1.00
C815   C     0.85940   0.16547   0.64768   0.00000  Uiso   1.00
C816   C     0.93408   0.14157   0.50295   0.00000  Uiso   1.00
C817   C     0.87473   0.15669   0.58922   0.00000  Uiso   1.00
C818   C     0.74594   0.14610   0.93807   0.00000  Uiso   1.00
C819   C     0.73239   0.13033   0.99026   0.00000  Uiso   1.00
C820   C     0.76618   0.12123   0.51575   0.00000  Uiso   1.00
H821   H     0.97008   0.11095   0.70430   0.00000  Uiso   1.00
H822   H     0.94357   0.22132   0.79754   0.00000  Uiso   1.00
H823   H     0.94693   0.11672   0.90154   0.00000  Uiso   1.00
H824   H     0.97058   0.14097   0.97752   0.00000  Uiso   1.00
H825   H     0.80267   0.15309   0.58934   0.00000  Uiso   1.00
H826   H     0.71885   0.15480   0.92042   0.00000  Uiso   1.00
H827   H     0.69555   0.12413   0.51046   0.00000  Uiso   1.00
H828   H     0.88609   0.11399   0.85892   0.00000  Uiso   1.00
N829   N     0.71426   0.16668   0.75001   0.00000  Uiso   1.00
N830   N     0.95239   0.16665   0.75001   0.00000  Uiso   1.00
O831   O     0.79512   0.22775   0.75000   0.00000  Uiso   1.00
O832   O     0.87157   0.22774   0.75000   0.00000  Uiso   1.00
O833   O     0.77613   0.16666   0.82681   0.00000  Uiso   1.00
O834   O     0.85258   0.16665   0.82681   0.00000  Uiso   1.00
O835   O     0.79510   0.10559   0.74999   0.00000  Uiso   1.00
O836   O     0.87154   0.10558   0.75000   0.00000  Uiso   1.00
O837   O     0.81409   0.16668   0.67319   0.00000  Uiso   1.00
O838   O     0.89053   0.16667   0.67319   0.00000  Uiso   1.00
Zn839  Zn    0.78229   0.16667   0.75000   0.00000  Uiso   1.00
Zn840  Zn    0.88438   0.16666   0.75000   0.00000  Uiso   1.00
N841   N     0.96097   0.16571   0.57649   0.00000  Uiso   1.00
H842   H     0.95480   0.19592   0.59302   0.00000  Uiso   1.00
H843   H     0.96293   0.14432   0.60590   0.00000  Uiso   1.00
C844   C     0.87632   0.04616   0.64931   0.00000  Uiso   1.00
H845   H     0.89389   0.07576   0.64997   0.00000  Uiso   1.00
O846   O     0.87129   0.03435   0.60686   0.00000  Uiso   1.00
C847   C     0.78789   0.04549   0.84845   0.00000  Uiso   1.00
H848   H     0.80274   0.07511   0.85465   0.00000  Uiso   1.00
O849   O     0.75265   0.03306   0.88328   0.00000  Uiso   1.00
N850   N     0.78798   0.28726   0.84413   0.00000  Uiso   1.00
H851   H     0.80229   0.29630   0.87429   0.00000  Uiso   1.00
H852   H     0.75151   0.29289   0.85718   0.00000  Uiso   1.00
C853   C     0.72803   0.10034   0.69699   0.00000  Uiso   1.00
H854   H     0.76497   0.10536   0.67541   0.00000  Uiso   1.00
O855   O     0.71199   0.06512   0.69744   0.00000  Uiso   1.00
C856   C     0.69593   0.22950   0.81034   0.00000  Uiso   1.00
H857   H     0.72445   0.22404   0.82659   0.00000  Uiso   1.00
O858   O     0.67416   0.26262   0.82122   0.00000  Uiso   1.00
C859   C     0.75134   0.09682   0.56638   0.00000  Uiso   1.00
H860   H     0.77770   0.08240   0.58150   0.00000  Uiso   1.00
O861   O     0.70948   0.09112   0.59066   0.00000  Uiso   1.00
C862   C     0.88440   0.28661   0.65086   0.00000  Uiso   1.00
H863   H     0.87162   0.25625   0.64292   0.00000  Uiso   1.00
O864   O     0.92201   0.29907   0.62033   0.00000  Uiso   1.00
C865   C     0.16683   0.57970   0.74903   0.00000  Uiso   1.00
C866   C     0.14794   0.46223   0.98767   0.00000  Uiso   1.00
C867   C     0.16149   0.46629   0.93121   0.00000  Uiso   1.00
C868   C     0.18364   0.46751   0.51249   0.00000  Uiso   1.00
C869   C     0.23184   0.46520   0.98064   0.00000  Uiso   1.00
C870   C     0.24372   0.45521   0.92594   0.00000  Uiso   1.00
C871   C     0.20874   0.45561   0.90125   0.00000  Uiso   1.00
C872   C     0.17261   0.48096   0.56602   0.00000  Uiso   1.00
C873   C     0.25621   0.48755   0.55683   0.00000  Uiso   1.00
C874   C     0.12727   0.48070   0.90760   0.00000  Uiso   1.00
C875   C     0.19088   0.64459   0.69982   0.00000  Uiso   1.00
C876   C     0.14117   0.49558   0.85150   0.00000  Uiso   1.00
C877   C     0.18985   0.35504   0.70003   0.00000  Uiso   1.00
C878   C     0.16732   0.37590   0.74927   0.00000  Uiso   1.00
C879   C     0.14340   0.35488   0.79742   0.00000  Uiso   1.00
C880   C     0.14292   0.64465   0.79626   0.00000  Uiso   1.00
C881   C     0.16665   0.62387   0.74796   0.00000  Uiso   1.00
C882   C     0.31618   0.46888   0.72479   0.00000  Uiso   1.00
C883   C     0.03068   0.46863   0.72456   0.00000  Uiso   1.00
C884   C     0.01582   0.53060   0.77717   0.00000  Uiso   1.00
C885   C     0.30164   0.53064   0.77614   0.00000  Uiso   1.00
C886   C     0.16683   0.42022   0.74976   0.00000  Uiso   1.00
C887   C     0.19274   0.49880   0.64768   0.00000  Uiso   1.00
C888   C     0.26741   0.47490   0.50295   0.00000  Uiso   1.00
C889   C     0.20807   0.49003   0.58922   0.00000  Uiso   1.00
C890   C     0.07927   0.47944   0.93807   0.00000  Uiso   1.00
C891   C     0.06572   0.46366   0.99026   0.00000  Uiso   1.00
C892   C     0.09951   0.45456   0.51575   0.00000  Uiso   1.00
H893   H     0.30341   0.44428   0.70430   0.00000  Uiso   1.00
H894   H     0.27690   0.55465   0.79754   0.00000  Uiso   1.00
H895   H     0.28027   0.45006   0.90154   0.00000  Uiso   1.00
H896   H     0.30392   0.47430   0.97752   0.00000  Uiso   1.00
H897   H     0.13601   0.48642   0.58934   0.00000  Uiso   1.00
H898   H     0.05218   0.48814   0.92042   0.00000  Uiso   1.00
H899   H     0.02888   0.45747   0.51046   0.00000  Uiso   1.00
H900   H     0.21942   0.44732   0.85892   0.00000  Uiso   1.00
N901   N     0.04760   0.50001   0.75001   0.00000  Uiso   1.00
N902   N     0.28573   0.49998   0.75001   0.00000  Uiso   1.00
O903   O     0.12846   0.56108   0.75000   0.00000  Uiso   1.00
O904   O     0.20490   0.56107   0.75000   0.00000  Uiso   1.00
O905   O     0.10947   0.50000   0.82681   0.00000  Uiso   1.00
O906   O     0.18591   0.49999   0.82681   0.00000  Uiso   1.00
O907   O     0.12843   0.43893   0.74999   0.00000  Uiso   1.00
O908   O     0.20488   0.43892   0.75000   0.00000  Uiso   1.00
O909   O     0.14742   0.50001   0.67319   0.00000  Uiso   1.00
O910   O     0.22387   0.50000   0.67319   0.00000  Uiso   1.00
Zn911  Zn    0.11562   0.50001   0.75000   0.00000  Uiso   1.00
Zn912  Zn    0.21771   0.49999   0.75000   0.00000  Uiso   1.00
N913   N     0.29431   0.49904   0.57649   0.00000  Uiso   1.00
H914   H     0.28813   0.52926   0.59302   0.00000  Uiso   1.00
H915   H     0.29626   0.47765   0.60590   0.00000  Uiso   1.00
C916   C     0.20965   0.37949   0.64931   0.00000  Uiso   1.00
H917   H     0.22722   0.40910   0.64997   0.00000  Uiso   1.00
O918   O     0.20462   0.36769   0.60686   0.00000  Uiso   1.00
C919   C     0.12122   0.37882   0.84845   0.00000  Uiso   1.00
H920   H     0.13608   0.40845   0.85465   0.00000  Uiso   1.00
O921   O     0.08598   0.36640   0.88328   0.00000  Uiso   1.00
N922   N     0.12132   0.62060   0.84413   0.00000  Uiso   1.00
H923   H     0.13562   0.62963   0.87429   0.00000  Uiso   1.00
H924   H     0.08485   0.62622   0.85718   0.00000  Uiso   1.00
C925   C     0.06136   0.43367   0.69699   0.00000  Uiso   1.00
H926   H     0.09830   0.43869   0.67541   0.00000  Uiso   1.00
O927   O     0.04532   0.39845   0.69744   0.00000  Uiso   1.00
C928   C     0.02926   0.56283   0.81034   0.00000  Uiso   1.00
H929   H     0.05779   0.55738   0.82659   0.00000  Uiso   1.00
O930   O     0.00749   0.59595   0.82122   0.00000  Uiso   1.00
C931   C     0.08468   0.43015   0.56638   0.00000  Uiso   1.00
H932   H     0.11103   0.41573   0.58150   0.00000  Uiso   1.00
O933   O     0.04282   0.42446   0.59066   0.00000  Uiso   1.00
C934   C     0.21773   0.61994   0.65086   0.00000  Uiso   1.00
H935   H     0.20496   0.58959   0.64292   0.00000  Uiso   1.00
O936   O     0.25535   0.63241   0.62033   0.00000  Uiso   1.00
C937   C     0.50017   0.57970   0.74903   0.00000  Uiso   1.00
C938   C     0.48127   0.46223   0.98767   0.00000  Uiso   1.00
C939   C     0.49483   0.46629   0.93121   0.00000  Uiso   1.00
C940   C     0.51698   0.46751   0.51249   0.00000  Uiso   1.00
C941   C     0.56517   0.46520   0.98064   0.00000  Uiso   1.00
C942   C     0.57706   0.45521   0.92594   0.00000  Uiso   1.00
C943   C     0.54207   0.45561   0.90125   0.00000  Uiso   1.00
C944   C     0.50595   0.48096   0.56602   0.00000  Uiso   1.00
C945   C     0.58954   0.48755   0.55683   0.00000  Uiso   1.00
C946   C     0.46061   0.48070   0.90760   0.00000  Uiso   1.00
C947   C     0.52421   0.64459   0.69982   0.00000  Uiso   1.00
C948   C     0.47450   0.49558   0.85150   0.00000  Uiso   1.00
C949   C     0.52318   0.35504   0.70003   0.00000  Uiso   1.00
C950   C     0.50065   0.37590   0.74927   0.00000  Uiso   1.00
C951   C     0.47673   0.35488   0.79742   0.00000  Uiso   1.00
C952   C     0.47625   0.64465   0.79626   0.00000  Uiso   1.00
C953   C     0.49999   0.62387   0.74796   0.00000  Uiso   1.00
C954   C     0.64952   0.46888   0.72479   0.00000  Uiso   1.00
C955   C     0.36401   0.46863   0.72456   0.00000  Uiso   1.00
C956   C     0.34915   0.53060   0.77717   0.00000  Uiso   1.00
C957   C     0.63497   0.53064   0.77614   0.00000  Uiso   1.00
C958   C     0.50016   0.42022   0.74976   0.00000  Uiso   1.00
C959   C     0.52607   0.49880   0.64768   0.00000  Uiso   1.00
C960   C     0.60075   0.47490   0.50295   0.00000  Uiso   1.00
C961   C     0.54140   0.49003   0.58922   0.00000  Uiso   1.00
C962   C     0.41260   0.47944   0.93807   0.00000  Uiso   1.00
C963   C     0.39905   0.46366   0.99026   0.00000  Uiso   1.00
C964   C     0.43285   0.45456   0.51575   0.00000  Uiso   1.00
H965   H     0.63674   0.44428   0.70430   0.00000  Uiso   1.00
H966   H     0.61024   0.55465   0.79754   0.00000  Uiso   1.00
H967   H     0.61360   0.45006   0.90154   0.00000  Uiso   1.00
H968   H     0.63725   0.47430   0.97752   0.00000  Uiso   1.00
H969   H     0.46934   0.48642   0.58934   0.00000  Uiso   1.00
H970   H     0.38552   0.48814   0.92042   0.00000  Uiso   1.00
H971   H     0.36222   0.45747   0.51046   0.00000  Uiso   1.00
H972   H     0.55276   0.44732   0.85892   0.00000  Uiso   1.00
N973   N     0.38093   0.50001   0.75001   0.00000  Uiso   1.00
N974   N     0.61906   0.49998   0.75001   0.00000  Uiso   1.00
O975   O     0.46179   0.56108   0.75000   0.00000  Uiso   1.00
O976   O     0.53823   0.56107   0.75000   0.00000  Uiso   1.00
O977   O     0.44280   0.50000   0.82681   0.00000  Uiso   1.00
O978   O     0.51924   0.49999   0.82681   0.00000  Uiso   1.00
O979   O     0.46177   0.43893   0.74999   0.00000  Uiso   1.00
O980   O     0.53821   0.43892   0.75000   0.00000  Uiso   1.00
O981   O     0.48076   0.50001   0.67319   0.00000  Uiso   1.00
O982   O     0.55720   0.50000   0.67319   0.00000  Uiso   1.00
Zn983  Zn    0.44896   0.50001   0.75000   0.00000  Uiso   1.00
Zn984  Zn    0.55104   0.49999   0.75000   0.00000  Uiso   1.00
N985   N     0.62764   0.49904   0.57649   0.00000  Uiso   1.00
H986   H     0.62146   0.52926   0.59302   0.00000  Uiso   1.00
H987   H     0.62959   0.47765   0.60590   0.00000  Uiso   1.00
C988   C     0.54299   0.37949   0.64931   0.00000  Uiso   1.00
H989   H     0.56056   0.40910   0.64997   0.00000  Uiso   1.00
O990   O     0.53796   0.36769   0.60686   0.00000  Uiso   1.00
C991   C     0.45455   0.37882   0.84845   0.00000  Uiso   1.00
H992   H     0.46941   0.40845   0.85465   0.00000  Uiso   1.00
O993   O     0.41931   0.36640   0.88328   0.00000  Uiso   1.00
N994   N     0.45465   0.62060   0.84413   0.00000  Uiso   1.00
H995   H     0.46896   0.62963   0.87429   0.00000  Uiso   1.00
H996   H     0.41818   0.62622   0.85718   0.00000  Uiso   1.00
C997   C     0.39469   0.43367   0.69699   0.00000  Uiso   1.00
H998   H     0.43164   0.43869   0.67541   0.00000  Uiso   1.00
O999   O     0.37865   0.39845   0.69744   0.00000  Uiso   1.00
C1000  C     0.36260   0.56283   0.81034   0.00000  Uiso   1.00
H1001  H     0.39112   0.55738   0.82659   0.00000  Uiso   1.00
O1002  O     0.34083   0.59595   0.82122   0.00000  Uiso   1.00
C1003  C     0.41801   0.43015   0.56638   0.00000  Uiso   1.00
H1004  H     0.44436   0.41573   0.58150   0.00000  Uiso   1.00
O1005  O     0.37615   0.42446   0.59066   0.00000  Uiso   1.00
C1006  C     0.55107   0.61994   0.65086   0.00000  Uiso   1.00
H1007  H     0.53829   0.58959   0.64292   0.00000  Uiso   1.00
O1008  O     0.58868   0.63241   0.62033   0.00000  Uiso   1.00
C1009  C     0.83350   0.57970   0.74903   0.00000  Uiso   1.00
C1010  C     0.81461   0.46223   0.98767   0.00000  Uiso   1.00
C1011  C     0.82816   0.46629   0.93121   0.00000  Uiso   1.00
C1012  C     0.85031   0.46751   0.51249   0.00000  Uiso   1.00
C1013  C     0.89851   0.46520   0.98064   0.00000  Uiso   1.00
C1014  C     0.91039   0.45521   0.92594   0.00000  Uiso   1.00
C1015  C     0.87540   0.45561   0.90125   0.00000  Uiso   1.00
C1016  C     0.83928   0.48096   0.56602   0.00000  Uiso   1.00
C1017  C     0.92288   0.48755   0.55683   0.00000  Uiso   1.00
C1018  C     0.79394   0.48070   0.90760   0.00000  Uiso   1.00
C1019  C     0.85754   0.64459   0.69982   0.00000  Uiso   1.00
C1020  C     0.80784   0.49558   0.85150   0.00000  Uiso   1.00
C1021  C     0.85652   0.35504   0.70003   0.00000  Uiso   1.00
C1022  C     0.83398   0.37590   0.74927   0.00000  Uiso   1.00
C1023  C     0.81007   0.35488   0.79742   0.00000  Uiso   1.00
C1024  C     0.80958   0.64465   0.79626   0.00000  Uiso   1.00
C1025  C     0.83332   0.62387   0.74796   0.00000  Uiso   1.00
C1026  C     0.98285   0.46888   0.72479   0.00000  Uiso   1.00
C1027  C     0.69735   0.46863   0.72456   0.00000  Uiso   1.00
C1028  C     0.68249   0.53060   0.77717   0.00000  Uiso   1.00
C1029  C     0.96831   0.53064   0.77614   0.00000  Uiso   1.00
C1030  C     0.83349   0.42022   0.74976   0.00000  Uiso   1.00
C1031  C     0.85940   0.49880   0.64768   0.00000  Uiso   1.00
C1032  C     0.93408   0.47490   0.50295   0.00000  Uiso   1.00
C1033  C     0.87473   0.49003   0.58922   0.00000  Uiso   1.00
C1034  C     0.74594   0.47944   0.93807   0.00000  Uiso   1.00
C1035  C     0.73239   0.46366   0.99026   0.00000  Uiso   1.00
C1036  C     0.76618   0.45456   0.51575   0.00000  Uiso   1.00
H1037  H     0.97008   0.44428   0.70430   0.00000  Uiso   1.00
H1038  H     0.94357   0.55465   0.79754   0.00000  Uiso   1.00
H1039  H     0.94693   0.45006   0.90154   0.00000  Uiso   1.00
H1040  H     0.97058   0.47430   0.97752   0.00000  Uiso   1.00
H1041  H     0.80267   0.48642   0.58934   0.00000  Uiso   1.00
H1042  H     0.71885   0.48814   0.92042   0.00000  Uiso   1.00
H1043  H     0.69555   0.45747   0.51046   0.00000  Uiso   1.00
H1044  H     0.88609   0.44732   0.85892   0.00000  Uiso   1.00
N1045  N     0.71426   0.50001   0.75001   0.00000  Uiso   1.00
N1046  N     0.95239   0.49998   0.75001   0.00000  Uiso   1.00
O1047  O     0.79512   0.56108   0.75000   0.00000  Uiso   1.00
O1048  O     0.87157   0.56107   0.75000   0.00000  Uiso   1.00
O1049  O     0.77613   0.50000   0.82681   0.00000  Uiso   1.00
O1050  O     0.85258   0.49999   0.82681   0.00000  Uiso   1.00
O1051  O     0.79510   0.43893   0.74999   0.00000  Uiso   1.00
O1052  O     0.87154   0.43892   0.75000   0.00000  Uiso   1.00
O1053  O     0.81409   0.50001   0.67319   0.00000  Uiso   1.00
O1054  O     0.89053   0.50000   0.67319   0.00000  Uiso   1.00
Zn1055 Zn    0.78229   0.50001   0.75000   0.00000  Uiso   1.00
Zn1056 Zn    0.88438   0.49999   0.75000   0.00000  Uiso   1.00
N1057  N     0.96097   0.49904   0.57649   0.00000  Uiso   1.00
H1058  H     0.95480   0.52926   0.59302   0.00000  Uiso   1.00
H1059  H     0.96293   0.47765   0.60590   0.00000  Uiso   1.00
C1060  C     0.87632   0.37949   0.64931   0.00000  Uiso   1.00
H1061  H     0.89389   0.40910   0.64997   0.00000  Uiso   1.00
O1062  O     0.87129   0.36769   0.60686   0.00000  Uiso   1.00
C1063  C     0.78789   0.37882   0.84845   0.00000  Uiso   1.00
H1064  H     0.80274   0.40845   0.85465   0.00000  Uiso   1.00
O1065  O     0.75265   0.36640   0.88328   0.00000  Uiso   1.00
N1066  N     0.78798   0.62060   0.84413   0.00000  Uiso   1.00
H1067  H     0.80229   0.62963   0.87429   0.00000  Uiso   1.00
H1068  H     0.75151   0.62622   0.85718   0.00000  Uiso   1.00
C1069  C     0.72803   0.43367   0.69699   0.00000  Uiso   1.00
H1070  H     0.76497   0.43869   0.67541   0.00000  Uiso   1.00
O1071  O     0.71199   0.39845   0.69744   0.00000  Uiso   1.00
C1072  C     0.69593   0.56283   0.81034   0.00000  Uiso   1.00
H1073  H     0.72445   0.55738   0.82659   0.00000  Uiso   1.00
O1074  O     0.67416   0.59595   0.82122   0.00000  Uiso   1.00
C1075  C     0.75134   0.43015   0.56638   0.00000  Uiso   1.00
H1076  H     0.77770   0.41573   0.58150   0.00000  Uiso   1.00
O1077  O     0.70948   0.42446   0.59066   0.00000  Uiso   1.00
C1078  C     0.88440   0.61994   0.65086   0.00000  Uiso   1.00
H1079  H     0.87162   0.58959   0.64292   0.00000  Uiso   1.00
O1080  O     0.92201   0.63241   0.62033   0.00000  Uiso   1.00
C1081  C     0.16683   0.91304   0.74903   0.00000  Uiso   1.00
C1082  C     0.14794   0.79557   0.98767   0.00000  Uiso   1.00
C1083  C     0.16149   0.79963   0.93121   0.00000  Uiso   1.00
C1084  C     0.18364   0.80084   0.51249   0.00000  Uiso   1.00
C1085  C     0.23184   0.79853   0.98064   0.00000  Uiso   1.00
C1086  C     0.24372   0.78855   0.92594   0.00000  Uiso   1.00
C1087  C     0.20874   0.78894   0.90125   0.00000  Uiso   1.00
C1088  C     0.17261   0.81430   0.56602   0.00000  Uiso   1.00
C1089  C     0.25621   0.82088   0.55683   0.00000  Uiso   1.00
C1090  C     0.12727   0.81403   0.90760   0.00000  Uiso   1.00
C1091  C     0.19088   0.97793   0.69982   0.00000  Uiso   1.00
C1092  C     0.14117   0.82892   0.85150   0.00000  Uiso   1.00
C1093  C     0.18985   0.68837   0.70003   0.00000  Uiso   1.00
C1094  C     0.16732   0.70923   0.74927   0.00000  Uiso   1.00
C1095  C     0.14340   0.68821   0.79742   0.00000  Uiso   1.00
C1096  C     0.14292   0.97798   0.79626   0.00000  Uiso   1.00
C1097  C     0.16665   0.95720   0.74796   0.00000  Uiso   1.00
C1098  C     0.31618   0.80221   0.72479   0.00000  Uiso   1.00
C1099  C     0.03068   0.80196   0.72456   0.00000  Uiso   1.00
C1100  C     0.01582   0.86394   0.77717   0.00000  Uiso   1.00
C1101  C     0.30164   0.86397   0.77614   0.00000  Uiso   1.00
C1102  C     0.16683   0.75355   0.74976   0.00000  Uiso   1.00
C1103  C     0.19274   0.83213   0.64768   0.00000  Uiso   1.00
C1104  C     0.26741   0.80824   0.50295   0.00000  Uiso   1.00
C1105  C     0.20807   0.82336   0.58922   0.00000  Uiso   1.00
C1106  C     0.07927   0.81277   0.93807   0.00000  Uiso   1.00
C1107  C     0.06572   0.79699   0.99026   0.00000  Uiso   1.00
C1108  C     0.09951   0.78790   0.51575   0.00000  Uiso   1.00
H1109  H     0.30341   0.77762   0.70430   0.00000  Uiso   1.00
H1110  H     0.27690   0.88798   0.79754   0.00000  Uiso   1.00
H1111  H     0.28027   0.78339   0.90154   0.00000  Uiso   1.00
H1112  H     0.30392   0.80763   0.97752   0.00000  Uiso   1.00
H1113  H     0.13601   0.81976   0.58934   0.00000  Uiso   1.00
H1114  H     0.05218   0.82147   0.92042   0.00000  Uiso   1.00
H1115  H     0.02888   0.79080   0.51046   0.00000  Uiso   1.00
H1116  H     0.21942   0.78066   0.85892   0.00000  Uiso   1.00
N1117  N     0.04760   0.83334   0.75001   0.00000  Uiso   1.00
N1118  N     0.28573   0.83331   0.75001   0.00000  Uiso   1.00
O1119  O     0.12846   0.89442   0.75000   0.00000  Uiso   1.00
O1120  O     0.20490   0.89441   0.75000   0.00000  Uiso   1.00
O1121  O     0.10947   0.83333   0.82681   0.00000  Uiso   1.00
O1122  O     0.18591   0.83332   0.82681   0.00000  Uiso   1.00
O1123  O     0.12843   0.77226   0.74999   0.00000  Uiso   1.00
O1124  O     0.20488   0.77225   0.75000   0.00000  Uiso   1.00
O1125  O     0.14742   0.83335   0.67319   0.00000  Uiso   1.00
O1126  O     0.22387   0.83334   0.67319   0.00000  Uiso   1.00
Zn1127 Zn    0.11562   0.83334   0.75000   0.00000  Uiso   1.00
Zn1128 Zn    0.21771   0.83333   0.75000   0.00000  Uiso   1.00
N1129  N     0.29431   0.83237   0.57649   0.00000  Uiso   1.00
H1130  H     0.28813   0.86259   0.59302   0.00000  Uiso   1.00
H1131  H     0.29626   0.81099   0.60590   0.00000  Uiso   1.00
C1132  C     0.20965   0.71283   0.64931   0.00000  Uiso   1.00
H1133  H     0.22722   0.74243   0.64997   0.00000  Uiso   1.00
O1134  O     0.20462   0.70102   0.60686   0.00000  Uiso   1.00
C1135  C     0.12122   0.71215   0.84845   0.00000  Uiso   1.00
H1136  H     0.13608   0.74178   0.85465   0.00000  Uiso   1.00
O1137  O     0.08598   0.69973   0.88328   0.00000  Uiso   1.00
N1138  N     0.12132   0.95393   0.84413   0.00000  Uiso   1.00
H1139  H     0.13562   0.96297   0.87429   0.00000  Uiso   1.00
H1140  H     0.08485   0.95956   0.85718   0.00000  Uiso   1.00
C1141  C     0.06136   0.76700   0.69699   0.00000  Uiso   1.00
H1142  H     0.09830   0.77203   0.67541   0.00000  Uiso   1.00
O1143  O     0.04532   0.73179   0.69744   0.00000  Uiso   1.00
C1144  C     0.02926   0.89616   0.81034   0.00000  Uiso   1.00
H1145  H     0.05779   0.89071   0.82659   0.00000  Uiso   1.00
O1146  O     0.00749   0.92928   0.82122   0.00000  Uiso   1.00
C1147  C     0.08468   0.76348   0.56638   0.00000  Uiso   1.00
H1148  H     0.11103   0.74906   0.58150   0.00000  Uiso   1.00
O1149  O     0.04282   0.75779   0.59066   0.00000  Uiso   1.00
C1150  C     0.21773   0.95327   0.65086   0.00000  Uiso   1.00
H1151  H     0.20496   0.92292   0.64292   0.00000  Uiso   1.00
O1152  O     0.25535   0.96574   0.62033   0.00000  Uiso   1.00
C1153  C     0.50017   0.91304   0.74903   0.00000  Uiso   1.00
C1154  C     0.48127   0.79557   0.98767   0.00000  Uiso   1.00
C1155  C     0.49483   0.79963   0.93121   0.00000  Uiso   1.00
C1156  C     0.51698   0.80084   0.51249   0.00000  Uiso   1.00
C1157  C     0.56517   0.79853   0.98064   0.00000  Uiso   1.00
C1158  C     0.57706   0.78855   0.92594   0.00000  Uiso   1.00
C1159  C     0.54207   0.78894   0.90125   0.00000  Uiso   1.00
C1160  C     0.50595   0.81430   0.56602   0.00000  Uiso   1.00
C1161  C     0.58954   0.82088   0.55683   0.00000  Uiso   1.00
C1162  C     0.46061   0.81403   0.90760   0.00000  Uiso   1.00
C1163  C     0.52421   0.97793   0.69982   0.00000  Uiso   1.00
C1164  C     0.47450   0.82892   0.85150   0.00000  Uiso   1.00
C1165  C     0.52318   0.68837   0.70003   0.00000  Uiso   1.00
C1166  C     0.50065   0.70923   0.74927   0.00000  Uiso   1.00
C1167  C     0.47673   0.68821   0.79742   0.00000  Uiso   1.00
C1168  C     0.47625   0.97798   0.79626   0.00000  Uiso   1.00
C1169  C     0.49999   0.95720   0.74796   0.00000  Uiso   1.00
C1170  C     0.64952   0.80221   0.72479   0.00000  Uiso   1.00
C1171  C     0.36401   0.80196   0.72456   0.00000  Uiso   1.00
C1172  C     0.34915   0.86394   0.77717   0.00000  Uiso   1.00
C1173  C     0.63497   0.86397   0.77614   0.00000  Uiso   1.00
C1174  C     0.50016   0.75355   0.74976   0.00000  Uiso   1.00
C1175  C     0.52607   0.83213   0.64768   0.00000  Uiso   1.00
C1176  C     0.60075   0.80824   0.50295   0.00000  Uiso   1.00
C1177  C     0.54140   0.82336   0.58922   0.00000  Uiso   1.00
C1178  C     0.41260   0.81277   0.93807   0.00000  Uiso   1.00
C1179  C     0.39905   0.79699   0.99026   0.00000  Uiso   1.00
C1180  C     0.43285   0.78790   0.51575   0.00000  Uiso   1.00
H1181  H     0.63674   0.77762   0.70430   0.00000  Uiso   1.00
H1182  H     0.61024   0.88798   0.79754   0.00000  Uiso   1.00
H1183  H     0.61360   0.78339   0.90154   0.00000  Uiso   1.00
H1184  H     0.63725   0.80763   0.97752   0.00000  Uiso   1.00
H1185  H     0.46934   0.81976   0.58934   0.00000  Uiso   1.00
H1186  H     0.38552   0.82147   0.92042   0.00000  Uiso   1.00
H1187  H     0.36222   0.79080   0.51046   0.00000  Uiso   1.00
H1188  H     0.55276   0.78066   0.85892   0.00000  Uiso   1.00
N1189  N     0.38093   0.83334   0.75001   0.00000  Uiso   1.00
N1190  N     0.61906   0.83331   0.75001   0.00000  Uiso   1.00
O1191  O     0.46179   0.89442   0.75000   0.00000  Uiso   1.00
O1192  O     0.53823   0.89441   0.75000   0.00000  Uiso   1.00
O1193  O     0.44280   0.83333   0.82681   0.00000  Uiso   1.00
O1194  O     0.51924   0.83332   0.82681   0.00000  Uiso   1.00
O1195  O     0.46177   0.77226   0.74999   0.00000  Uiso   1.00
O1196  O     0.53821   0.77225   0.75000   0.00000  Uiso   1.00
O1197  O     0.48076   0.83335   0.67319   0.00000  Uiso   1.00
O1198  O     0.55720   0.83334   0.67319   0.00000  Uiso   1.00
Zn1199 Zn    0.44896   0.83334   0.75000   0.00000  Uiso   1.00
Zn1200 Zn    0.55104   0.83333   0.75000   0.00000  Uiso   1.00
N1201  N     0.62764   0.83237   0.57649   0.00000  Uiso   1.00
H1202  H     0.62146   0.86259   0.59302   0.00000  Uiso   1.00
H1203  H     0.62959   0.81099   0.60590   0.00000  Uiso   1.00
C1204  C     0.54299   0.71283   0.64931   0.00000  Uiso   1.00
H1205  H     0.56056   0.74243   0.64997   0.00000  Uiso   1.00
O1206  O     0.53796   0.70102   0.60686   0.00000  Uiso   1.00
C1207  C     0.45455   0.71215   0.84845   0.00000  Uiso   1.00
H1208  H     0.46941   0.74178   0.85465   0.00000  Uiso   1.00
O1209  O     0.41931   0.69973   0.88328   0.00000  Uiso   1.00
N1210  N     0.45465   0.95393   0.84413   0.00000  Uiso   1.00
H1211  H     0.46896   0.96297   0.87429   0.00000  Uiso   1.00
H1212  H     0.41818   0.95956   0.85718   0.00000  Uiso   1.00
C1213  C     0.39469   0.76700   0.69699   0.00000  Uiso   1.00
H1214  H     0.43164   0.77203   0.67541   0.00000  Uiso   1.00
O1215  O     0.37865   0.73179   0.69744   0.00000  Uiso   1.00
C1216  C     0.36260   0.89616   0.81034   0.00000  Uiso   1.00
H1217  H     0.39112   0.89071   0.82659   0.00000  Uiso   1.00
O1218  O     0.34083   0.92928   0.82122   0.00000  Uiso   1.00
C1219  C     0.41801   0.76348   0.56638   0.00000  Uiso   1.00
H1220  H     0.44436   0.74906   0.58150   0.00000  Uiso   1.00
O1221  O     0.37615   0.75779   0.59066   0.00000  Uiso   1.00
C1222  C     0.55107   0.95327   0.65086   0.00000  Uiso   1.00
H1223  H     0.53829   0.92292   0.64292   0.00000  Uiso   1.00
O1224  O     0.58868   0.96574   0.62033   0.00000  Uiso   1.00
C1225  C     0.83350   0.91304   0.74903   0.00000  Uiso   1.00
C1226  C     0.81461   0.79557   0.98767   0.00000  Uiso   1.00
C1227  C     0.82816   0.79963   0.93121   0.00000  Uiso   1.00
C1228  C     0.85031   0.80084   0.51249   0.00000  Uiso   1.00
C1229  C     0.89851   0.79853   0.98064   0.00000  Uiso   1.00
C1230  C     0.91039   0.78855   0.92594   0.00000  Uiso   1.00
C1231  C     0.87540   0.78894   0.90125   0.00000  Uiso   1.00
C1232  C     0.83928   0.81430   0.56602   0.00000  Uiso   1.00
C1233  C     0.92288   0.82088   0.55683   0.00000  Uiso   1.00
C1234  C     0.79394   0.81403   0.90760   0.00000  Uiso   1.00
C1235  C     0.85754   0.97793   0.69982   0.00000  Uiso   1.00
C1236  C     0.80784   0.82892   0.85150   0.00000  Uiso   1.00
C1237  C     0.85652   0.68837   0.70003   0.00000  Uiso   1.00
C1238  C     0.83398   0.70923   0.74927   0.00000  Uiso   1.00
C1239  C     0.81007   0.68821   0.79742   0.00000  Uiso   1.00
C1240  C     0.80958   0.97798   0.79626   0.00000  Uiso   1.00
C1241  C     0.83332   0.95720   0.74796   0.00000  Uiso   1.00
C1242  C     0.98285   0.80221   0.72479   0.00000  Uiso   1.00
C1243  C     0.69735   0.80196   0.72456   0.00000  Uiso   1.00
C1244  C     0.68249   0.86394   0.77717   0.00000  Uiso   1.00
C1245  C     0.96831   0.86397   0.77614   0.00000  Uiso   1.00
C1246  C     0.83349   0.75355   0.74976   0.00000  Uiso   1.00
C1247  C     0.85940   0.83213   0.64768   0.00000  Uiso   1.00
C1248  C     0.93408   0.80824   0.50295   0.00000  Uiso   1.00
C1249  C     0.87473   0.82336   0.58922   0.00000  Uiso   1.00
C1250  C     0.74594   0.81277   0.93807   0.00000  Uiso   1.00
C1251  C     0.73239   0.79699   0.99026   0.00000  Uiso   1.00
C1252  C     0.76618   0.78790   0.51575   0.00000  Uiso   1.00
H1253  H     0.97008   0.77762   0.70430   0.00000  Uiso   1.00
H1254  H     0.94357   0.88798   0.79754   0.00000  Uiso   1.00
H1255  H     0.94693   0.78339   0.90154   0.00000  Uiso   1.00
H1256  H     0.97058   0.80763   0.97752   0.00000  Uiso   1.00
H1257  H     0.80267   0.81976   0.58934   0.00000  Uiso   1.00
H1258  H     0.71885   0.82147   0.92042   0.00000  Uiso   1.00
H1259  H     0.69555   0.79080   0.51046   0.00000  Uiso   1.00
H1260  H     0.88609   0.78066   0.85892   0.00000  Uiso   1.00
N1261  N     0.71426   0.83334   0.75001   0.00000  Uiso   1.00
N1262  N     0.95239   0.83331   0.75001   0.00000  Uiso   1.00
O1263  O     0.79512   0.89442   0.75000   0.00000  Uiso   1.00
O1264  O     0.87157   0.89441   0.75000   0.00000  Uiso   1.00
O1265  O     0.77613   0.83333   0.82681   0.00000  Uiso   1.00
O1266  O     0.85258   0.83332   0.82681   0.00000  Uiso   1.00
O1267  O     0.79510   0.77226   0.74999   0.00000  Uiso   1.00
O1268  O     0.87154   0.77225   0.75000   0.00000  Uiso   1.00
O1269  O     0.81409   0.83335   0.67319   0.00000  Uiso   1.00
O1270  O     0.89053   0.83334   0.67319   0.00000  Uiso   1.00
Zn1271 Zn    0.78229   0.83334   0.75000   0.00000  Uiso   1.00
Zn1272 Zn    0.88438   0.83333   0.75000   0.00000  Uiso   1.00
N1273  N     0.96097   0.83237   0.57649   0.00000  Uiso   1.00
H1274  H     0.95480   0.86259   0.59302   0.00000  Uiso   1.00
H1275  H     0.96293   0.81099   0.60590   0.00000  Uiso   1.00
C1276  C     0.87632   0.71283   0.64931   0.00000  Uiso   1.00
H1277  H     0.89389   0.74243   0.64997   0.00000  Uiso   1.00
O1278  O     0.87129   0.70102   0.60686   0.00000  Uiso   1.00
C1279  C     0.78789   0.71215   0.84845   0.00000  Uiso   1.00
H1280  H     0.80274   0.74178   0.85465   0.00000  Uiso   1.00
O1281  O     0.75265   0.69973   0.88328   0.00000  Uiso   1.00
N1282  N     0.78798   0.95393   0.84413   0.00000  Uiso   1.00
H1283  H     0.80229   0.96297   0.87429   0.00000  Uiso   1.00
H1284  H     0.75151   0.95956   0.85718   0.00000  Uiso   1.00
C1285  C     0.72803   0.76700   0.69699   0.00000  Uiso   1.00
H1286  H     0.76497   0.77203   0.67541   0.00000  Uiso   1.00
O1287  O     0.71199   0.73179   0.69744   0.00000  Uiso   1.00
C1288  C     0.69593   0.89616   0.81034   0.00000  Uiso   1.00
H1289  H     0.72445   0.89071   0.82659   0.00000  Uiso   1.00
O1290  O     0.67416   0.92928   0.82122   0.00000  Uiso   1.00
C1291  C     0.75134   0.76348   0.56638   0.00000  Uiso   1.00
H1292  H     0.77770   0.74906   0.58150   0.00000  Uiso   1.00
O1293  O     0.70948   0.75779   0.59066   0.00000  Uiso   1.00
C1294  C     0.88440   0.95327   0.65086   0.00000  Uiso   1.00
H1295  H     0.87162   0.92292   0.64292   0.00000  Uiso   1.00
O1296  O     0.92201   0.96574   0.62033   0.00000  Uiso   1.00
loop_
_geom_bond_atom_site_label_1
_geom_bond_atom_site_label_2
_geom_bond_distance
_geom_bond_site_symmetry_2
_ccdc_geom_bond_type
C1     C17     1.410   .     S
C1     O39     1.283   .     A
C1     O40     1.285   .     A
C2     C3      1.406   .     A
C2     C652    1.418   .     S
C2     C676    1.419   .     S
C3     C10     1.422   .     A
C3     C7      1.415   .     A
C4     C8      1.395   .     A
C4     C650    1.418   1_554 S
C4     C653    1.414   1_554 S
C5     C6      1.392   .     A
C5     C652    1.414   .     S
C5     C672    1.395   .     S
C6     C7      1.386   .     A
C6     H31     1.084   .     S
C7     H36     1.079   .     S
C8     C25     1.402   .     A
C8     H33     1.080   .     S
C9     C24     1.395   .     A
C9     C25     1.417   .     A
C9     N49     1.432   .     S
C10    C26     1.400   .     A
C10    C12     1.472   .     S
C11    C70     1.493   .     S
C11    C17     1.406   .     A
C11    C229    1.397   .     S
C12    O42     1.292   .     A
C12    O41     1.307   .     A
C13    C52     1.494   .     S
C13    C14     1.409   .     A
C13    C443    1.397   1_545 S
C14    C22     1.414   .     S
C14    C15     1.408   .     A
C15    C55     1.491   .     S
C15    C448    1.390   1_545 S
C16    N58     1.439   .     S
C16    C17     1.397   .     A
C16    C231    1.390   .     S
C18    N38     1.359   .     A
C18    H29     1.083   .     S
C18    C91     1.422   .     S
C19    C61     1.471   .     S
C19    N37     1.380   .     A
C19    C162    1.422   1_455 S
C20    C64     1.476   .     S
C20    N37     1.382   .     A
C20    C165    1.423   1_455 S
C21    H30     1.082   .     S
C21    N38     1.359   .     A
C21    C92     1.423   .     S
C22    O43     1.285   .     A
C22    O44     1.284   .     A
C23    O45     1.302   .     A
C23    O46     1.301   .     A
C23    C25     1.472   .     S
C24    C653    1.395   1_554 S
C24    H680    1.080   1_554 S
C26    C27     1.390   .     A
C26    H34     1.083   .     S
C27    C676    1.400   .     S
C27    H683    1.076   .     S
C28    C67     1.481   .     S
C28    C650    1.419   1_554 S
C28    C675    1.400   1_554 S
H32    C672    1.080   .     S
H35    C675    1.076   1_554 S
N37    Zn47    2.024   .     S
N38    Zn48    2.024   .     S
O39    Zn47    1.988   .     S
O40    Zn48    1.984   .     S
O41    Zn47    1.954   .     S
O42    Zn48    1.927   .     S
O43    Zn47    1.984   .     S
O44    Zn48    1.988   .     S
O45    Zn47    1.927   .     S
O46    Zn48    1.954   .     S
N49    H50     1.045   .     S
N49    H51     1.045   .     S
C52    O54     1.221   .     D
C52    H53     1.084   .     S
C55    H56     1.078   .     S
C55    O57     1.220   .     D
N58    H60     1.044   .     S
N58    H59     1.046   .     S
C61    H62     1.079   .     S
C61    O63     1.221   .     D
C64    H65     1.076   .     S
C64    O66     1.221   .     D
C67    H68     1.085   .     S
C67    O69     1.221   .     D
C70    H71     1.084   .     S
C70    O72     1.221   .     D
C73    C89     1.410   .     S
C73    O111    1.283   .     A
C73    O112    1.285   .     A
C74    C75     1.406   .     A
C74    C724    1.418   .     S
C74    C748    1.419   .     S
C75    C82     1.422   .     A
C75    C79     1.415   .     A
C76    C80     1.395   .     A
C76    C722    1.418   1_554 S
C76    C725    1.414   1_554 S
C77    C78     1.392   .     A
C77    C724    1.414   .     S
C77    C744    1.395   .     S
C78    C79     1.386   .     A
C78    H103    1.084   .     S
C79    H108    1.079   .     S
C80    C97     1.402   .     A
C80    H105    1.080   .     S
C81    C96     1.395   .     A
C81    C97     1.417   .     A
C81    N121    1.432   .     S
C82    C98     1.400   .     A
C82    C84     1.472   .     S
C83    C142    1.493   .     S
C83    C89     1.406   .     A
C83    C301    1.397   .     S
C84    O114    1.292   .     A
C84    O113    1.307   .     A
C85    C124    1.494   .     S
C85    C86     1.409   .     A
C85    C515    1.397   1_545 S
C86    C94     1.414   .     S
C86    C87     1.408   .     A
C87    C127    1.491   .     S
C87    C520    1.390   1_545 S
C88    N130    1.439   .     S
C88    C89     1.397   .     A
C88    C303    1.390   .     S
C90    N110    1.359   .     A
C90    H101    1.083   .     S
C90    C163    1.422   .     S
C91    C133    1.471   .     S
C91    N109    1.380   .     A
C92    C136    1.476   .     S
C92    N109    1.382   .     A
C93    H102    1.082   .     S
C93    N110    1.359   .     A
C93    C164    1.423   .     S
C94    O115    1.285   .     A
C94    O116    1.284   .     A
C95    O117    1.302   .     A
C95    O118    1.301   .     A
C95    C97     1.472   .     S
C96    C725    1.395   1_554 S
C96    H752    1.080   1_554 S
C98    C99     1.390   .     A
C98    H106    1.083   .     S
C99    C748    1.400   .     S
C99    H755    1.076   .     S
C100   C139    1.481   .     S
C100   C722    1.419   1_554 S
C100   C747    1.400   1_554 S
H104   C744    1.080   .     S
H107   C747    1.076   1_554 S
N109   Zn119   2.024   .     S
N110   Zn120   2.024   .     S
O111   Zn119   1.988   .     S
O112   Zn120   1.984   .     S
O113   Zn119   1.954   .     S
O114   Zn120   1.927   .     S
O115   Zn119   1.984   .     S
O116   Zn120   1.988   .     S
O117   Zn119   1.927   .     S
O118   Zn120   1.954   .     S
N121   H122    1.045   .     S
N121   H123    1.045   .     S
C124   O126    1.221   .     D
C124   H125    1.084   .     S
C127   H128    1.078   .     S
C127   O129    1.220   .     D
N130   H132    1.044   .     S
N130   H131    1.046   .     S
C133   H134    1.079   .     S
C133   O135    1.221   .     D
C136   H137    1.076   .     S
C136   O138    1.221   .     D
C139   H140    1.085   .     S
C139   O141    1.221   .     D
C142   H143    1.084   .     S
C142   O144    1.221   .     D
C145   C161    1.410   .     S
C145   O183    1.283   .     A
C145   O184    1.285   .     A
C146   C147    1.406   .     A
C146   C796    1.418   .     S
C146   C820    1.419   .     S
C147   C154    1.422   .     A
C147   C151    1.415   .     A
C148   C152    1.395   .     A
C148   C794    1.418   1_554 S
C148   C797    1.414   1_554 S
C149   C150    1.392   .     A
C149   C796    1.414   .     S
C149   C816    1.395   .     S
C150   C151    1.386   .     A
C150   H175    1.084   .     S
C151   H180    1.079   .     S
C152   C169    1.402   .     A
C152   H177    1.080   .     S
C153   C168    1.395   .     A
C153   C169    1.417   .     A
C153   N193    1.432   .     S
C154   C170    1.400   .     A
C154   C156    1.472   .     S
C155   C214    1.493   .     S
C155   C161    1.406   .     A
C155   C373    1.397   .     S
C156   O186    1.292   .     A
C156   O185    1.307   .     A
C157   C196    1.494   .     S
C157   C158    1.409   .     A
C157   C587    1.397   1_545 S
C158   C166    1.414   .     S
C158   C159    1.408   .     A
C159   C199    1.491   .     S
C159   C592    1.390   1_545 S
C160   N202    1.439   .     S
C160   C161    1.397   .     A
C160   C375    1.390   .     S
C162   N182    1.359   .     A
C162   H173    1.083   .     S
C162   C19     1.422   1_655 S
C163   C205    1.471   .     S
C163   N181    1.380   .     A
C164   C208    1.476   .     S
C164   N181    1.382   .     A
C165   H174    1.082   .     S
C165   N182    1.359   .     A
C165   C20     1.423   1_655 S
C166   O187    1.285   .     A
C166   O188    1.284   .     A
C167   O189    1.302   .     A
C167   O190    1.301   .     A
C167   C169    1.472   .     S
C168   C797    1.395   1_554 S
C168   H824    1.080   1_554 S
C170   C171    1.390   .     A
C170   H178    1.083   .     S
C171   C820    1.400   .     S
C171   H827    1.076   .     S
C172   C211    1.481   .     S
C172   C794    1.419   1_554 S
C172   C819    1.400   1_554 S
H176   C816    1.080   .     S
H179   C819    1.076   1_554 S
N181   Zn191   2.024   .     S
N182   Zn192   2.024   .     S
O183   Zn191   1.988   .     S
O184   Zn192   1.984   .     S
O185   Zn191   1.954   .     S
O186   Zn192   1.927   .     S
O187   Zn191   1.984   .     S
O188   Zn192   1.988   .     S
O189   Zn191   1.927   .     S
O190   Zn192   1.954   .     S
N193   H194    1.045   .     S
N193   H195    1.045   .     S
C196   O198    1.221   .     D
C196   H197    1.084   .     S
C199   H200    1.078   .     S
C199   O201    1.220   .     D
N202   H204    1.044   .     S
N202   H203    1.046   .     S
C205   H206    1.079   .     S
C205   O207    1.221   .     D
C208   H209    1.076   .     S
C208   O210    1.221   .     D
C211   H212    1.085   .     S
C211   O213    1.221   .     D
C214   H215    1.084   .     S
C214   O216    1.221   .     D
C217   C233    1.410   .     S
C217   O255    1.283   .     A
C217   O256    1.285   .     A
C218   C219    1.406   .     A
C218   C868    1.418   .     S
C218   C892    1.419   .     S
C219   C226    1.422   .     A
C219   C223    1.415   .     A
C220   C224    1.395   .     A
C220   C866    1.418   1_554 S
C220   C869    1.414   1_554 S
C221   C222    1.392   .     A
C221   C868    1.414   .     S
C221   C888    1.395   .     S
C222   C223    1.386   .     A
C222   H247    1.084   .     S
C223   H252    1.079   .     S
C224   C241    1.402   .     A
C224   H249    1.080   .     S
C225   C240    1.395   .     A
C225   C241    1.417   .     A
C225   N265    1.432   .     S
C226   C242    1.400   .     A
C226   C228    1.472   .     S
C227   C286    1.493   .     S
C227   C233    1.406   .     A
C227   C445    1.397   .     S
C228   O258    1.292   .     A
C228   O257    1.307   .     A
C229   C268    1.494   .     S
C229   C230    1.409   .     A
C230   C238    1.414   .     S
C230   C231    1.408   .     A
C231   C271    1.491   .     S
C232   N274    1.439   .     S
C232   C233    1.397   .     A
C232   C447    1.390   .     S
C234   N254    1.359   .     A
C234   H245    1.083   .     S
C234   C307    1.422   .     S
C235   C277    1.471   .     S
C235   N253    1.380   .     A
C235   C378    1.422   1_455 S
C236   C280    1.476   .     S
C236   N253    1.382   .     A
C236   C381    1.423   1_455 S
C237   H246    1.082   .     S
C237   N254    1.359   .     A
C237   C308    1.423   .     S
C238   O259    1.285   .     A
C238   O260    1.284   .     A
C239   O261    1.302   .     A
C239   O262    1.301   .     A
C239   C241    1.472   .     S
C240   C869    1.395   1_554 S
C240   H896    1.080   1_554 S
C242   C243    1.390   .     A
C242   H250    1.083   .     S
C243   C892    1.400   .     S
C243   H899    1.076   .     S
C244   C283    1.481   .     S
C244   C866    1.419   1_554 S
C244   C891    1.400   1_554 S
H248   C888    1.080   .     S
H251   C891    1.076   1_554 S
N253   Zn263   2.024   .     S
N254   Zn264   2.024   .     S
O255   Zn263   1.988   .     S
O256   Zn264   1.984   .     S
O257   Zn263   1.954   .     S
O258   Zn264   1.927   .     S
O259   Zn263   1.984   .     S
O260   Zn264   1.988   .     S
O261   Zn263   1.927   .     S
O262   Zn264   1.954   .     S
N265   H266    1.045   .     S
N265   H267    1.045   .     S
C268   O270    1.221   .     D
C268   H269    1.084   .     S
C271   H272    1.078   .     S
C271   O273    1.220   .     D
N274   H276    1.044   .     S
N274   H275    1.046   .     S
C277   H278    1.079   .     S
C277   O279    1.221   .     D
C280   H281    1.076   .     S
C280   O282    1.221   .     D
C283   H284    1.085   .     S
C283   O285    1.221   .     D
C286   H287    1.084   .     S
C286   O288    1.221   .     D
C289   C305    1.410   .     S
C289   O327    1.283   .     A
C289   O328    1.285   .     A
C290   C291    1.406   .     A
C290   C940    1.418   .     S
C290   C964    1.419   .     S
C291   C298    1.422   .     A
C291   C295    1.415   .     A
C292   C296    1.395   .     A
C292   C938    1.418   1_554 S
C292   C941    1.414   1_554 S
C293   C294    1.392   .     A
C293   C940    1.414   .     S
C293   C960    1.395   .     S
C294   C295    1.386   .     A
C294   H319    1.084   .     S
C295   H324    1.079   .     S
C296   C313    1.402   .     A
C296   H321    1.080   .     S
C297   C312    1.395   .     A
C297   C313    1.417   .     A
C297   N337    1.432   .     S
C298   C314    1.400   .     A
C298   C300    1.472   .     S
C299   C358    1.493   .     S
C299   C305    1.406   .     A
C299   C517    1.397   .     S
C300   O330    1.292   .     A
C300   O329    1.307   .     A
C301   C340    1.494   .     S
C301   C302    1.409   .     A
C302   C310    1.414   .     S
C302   C303    1.408   .     A
C303   C343    1.491   .     S
C304   N346    1.439   .     S
C304   C305    1.397   .     A
C304   C519    1.390   .     S
C306   N326    1.359   .     A
C306   H317    1.083   .     S
C306   C379    1.422   .     S
C307   C349    1.471   .     S
C307   N325    1.380   .     A
C308   C352    1.476   .     S
C308   N325    1.382   .     A
C309   H318    1.082   .     S
C309   N326    1.359   .     A
C309   C380    1.423   .     S
C310   O331    1.285   .     A
C310   O332    1.284   .     A
C311   O333    1.302   .     A
C311   O334    1.301   .     A
C311   C313    1.472   .     S
C312   C941    1.395   1_554 S
C312   H968    1.080   1_554 S
C314   C315    1.390   .     A
C314   H322    1.083   .     S
C315   C964    1.400   .     S
C315   H971    1.076   .     S
C316   C355    1.481   .     S
C316   C938    1.419   1_554 S
C316   C963    1.400   1_554 S
H320   C960    1.080   .     S
H323   C963    1.076   1_554 S
N325   Zn335   2.024   .     S
N326   Zn336   2.024   .     S
O327   Zn335   1.988   .     S
O328   Zn336   1.984   .     S
O329   Zn335   1.954   .     S
O330   Zn336   1.927   .     S
O331   Zn335   1.984   .     S
O332   Zn336   1.988   .     S
O333   Zn335   1.927   .     S
O334   Zn336   1.954   .     S
N337   H338    1.045   .     S
N337   H339    1.045   .     S
C340   O342    1.221   .     D
C340   H341    1.084   .     S
C343   H344    1.078   .     S
C343   O345    1.220   .     D
N346   H348    1.044   .     S
N346   H347    1.046   .     S
C349   H350    1.079   .     S
C349   O351    1.221   .     D
C352   H353    1.076   .     S
C352   O354    1.221   .     D
C355   H356    1.085   .     S
C355   O357    1.221   .     D
C358   H359    1.084   .     S
C358   O360    1.221   .     D
C361   C377    1.410   .     S
C361   O399    1.283   .     A
C361   O400    1.285   .     A
C362   C363    1.406   .     A
C362   C1012   1.418   .     S
C362   C1036   1.419   .     S
C363   C370    1.422   .     A
C363   C367    1.415   .     A
C364   C368    1.395   .     A
C364   C1010   1.418   1_554 S
C364   C1013   1.414   1_554 S
C365   C366    1.392   .     A
C365   C1012   1.414   .     S
C365   C1032   1.395   .     S
C366   C367    1.386   .     A
C366   H391    1.084   .     S
C367   H396    1.079   .     S
C368   C385    1.402   .     A
C368   H393    1.080   .     S
C369   C384    1.395   .     A
C369   C385    1.417   .     A
C369   N409    1.432   .     S
C370   C386    1.400   .     A
C370   C372    1.472   .     S
C371   C430    1.493   .     S
C371   C377    1.406   .     A
C371   C589    1.397   .     S
C372   O402    1.292   .     A
C372   O401    1.307   .     A
C373   C412    1.494   .     S
C373   C374    1.409   .     A
C374   C382    1.414   .     S
C374   C375    1.408   .     A
C375   C415    1.491   .     S
C376   N418    1.439   .     S
C376   C377    1.397   .     A
C376   C591    1.390   .     S
C378   N398    1.359   .     A
C378   H389    1.083   .     S
C378   C235    1.422   1_655 S
C379   C421    1.471   .     S
C379   N397    1.380   .     A
C380   C424    1.476   .     S
C380   N397    1.382   .     A
C381   H390    1.082   .     S
C381   N398    1.359   .     A
C381   C236    1.423   1_655 S
C382   O403    1.285   .     A
C382   O404    1.284   .     A
C383   O405    1.302   .     A
C383   O406    1.301   .     A
C383   C385    1.472   .     S
C384   C1013   1.395   1_554 S
C384   H1040   1.080   1_554 S
C386   C387    1.390   .     A
C386   H394    1.083   .     S
C387   C1036   1.400   .     S
C387   H1043   1.076   .     S
C388   C427    1.481   .     S
C388   C1010   1.419   1_554 S
C388   C1035   1.400   1_554 S
H392   C1032   1.080   .     S
H395   C1035   1.076   1_554 S
N397   Zn407   2.024   .     S
N398   Zn408   2.024   .     S
O399   Zn407   1.988   .     S
O400   Zn408   1.984   .     S
O401   Zn407   1.954   .     S
O402   Zn408   1.927   .     S
O403   Zn407   1.984   .     S
O404   Zn408   1.988   .     S
O405   Zn407   1.927   .     S
O406   Zn408   1.954   .     S
N409   H410    1.045   .     S
N409   H411    1.045   .     S
C412   O414    1.221   .     D
C412   H413    1.084   .     S
C415   H416    1.078   .     S
C415   O417    1.220   .     D
N418   H420    1.044   .     S
N418   H419    1.046   .     S
C421   H422    1.079   .     S
C421   O423    1.221   .     D
C424   H425    1.076   .     S
C424   O426    1.221   .     D
C427   H428    1.085   .     S
C427   O429    1.221   .     D
C430   H431    1.084   .     S
C430   O432    1.221   .     D
C433   C449    1.410   .     S
C433   O471    1.283   .     A
C433   O472    1.285   .     A
C434   C435    1.406   .     A
C434   C1084   1.418   .     S
C434   C1108   1.419   .     S
C435   C442    1.422   .     A
C435   C439    1.415   .     A
C436   C440    1.395   .     A
C436   C1082   1.418   1_554 S
C436   C1085   1.414   1_554 S
C437   C438    1.392   .     A
C437   C1084   1.414   .     S
C437   C1104   1.395   .     S
C438   C439    1.386   .     A
C438   H463    1.084   .     S
C439   H468    1.079   .     S
C440   C457    1.402   .     A
C440   H465    1.080   .     S
C441   C456    1.395   .     A
C441   C457    1.417   .     A
C441   N481    1.432   .     S
C442   C458    1.400   .     A
C442   C444    1.472   .     S
C443   C502    1.493   .     S
C443   C449    1.406   .     A
C443   C13     1.397   1_565 S
C444   O474    1.292   .     A
C444   O473    1.307   .     A
C445   C484    1.494   .     S
C445   C446    1.409   .     A
C446   C454    1.414   .     S
C446   C447    1.408   .     A
C447   C487    1.491   .     S
C448   N490    1.439   .     S
C448   C449    1.397   .     A
C448   C15     1.390   1_565 S
C450   N470    1.359   .     A
C450   H461    1.083   .     S
C450   C523    1.422   .     S
C451   C493    1.471   .     S
C451   N469    1.380   .     A
C451   C594    1.422   1_455 S
C452   C496    1.476   .     S
C452   N469    1.382   .     A
C452   C597    1.423   1_455 S
C453   H462    1.082   .     S
C453   N470    1.359   .     A
C453   C524    1.423   .     S
C454   O475    1.285   .     A
C454   O476    1.284   .     A
C455   O477    1.302   .     A
C455   O478    1.301   .     A
C455   C457    1.472   .     S
C456   C1085   1.395   1_554 S
C456   H1112   1.080   1_554 S
C458   C459    1.390   .     A
C458   H466    1.083   .     S
C459   C1108   1.400   .     S
C459   H1115   1.076   .     S
C460   C499    1.481   .     S
C460   C1082   1.419   1_554 S
C460   C1107   1.400   1_554 S
H464   C1104   1.080   .     S
H467   C1107   1.076   1_554 S
N469   Zn479   2.024   .     S
N470   Zn480   2.024   .     S
O471   Zn479   1.988   .     S
O472   Zn480   1.984   .     S
O473   Zn479   1.954   .     S
O474   Zn480   1.927   .     S
O475   Zn479   1.984   .     S
O476   Zn480   1.988   .     S
O477   Zn479   1.927   .     S
O478   Zn480   1.954   .     S
N481   H482    1.045   .     S
N481   H483    1.045   .     S
C484   O486    1.221   .     D
C484   H485    1.084   .     S
C487   H488    1.078   .     S
C487   O489    1.220   .     D
N490   H492    1.044   .     S
N490   H491    1.046   .     S
C493   H494    1.079   .     S
C493   O495    1.221   .     D
C496   H497    1.076   .     S
C496   O498    1.221   .     D
C499   H500    1.085   .     S
C499   O501    1.221   .     D
C502   H503    1.084   .     S
C502   O504    1.221   .     D
C505   C521    1.410   .     S
C505   O543    1.283   .     A
C505   O544    1.285   .     A
C506   C507    1.406   .     A
C506   C1156   1.418   .     S
C506   C1180   1.419   .     S
C507   C514    1.422   .     A
C507   C511    1.415   .     A
C508   C512    1.395   .     A
C508   C1154   1.418   1_554 S
C508   C1157   1.414   1_554 S
C509   C510    1.392   .     A
C509   C1156   1.414   .     S
C509   C1176   1.395   .     S
C510   C511    1.386   .     A
C510   H535    1.084   .     S
C511   H540    1.079   .     S
C512   C529    1.402   .     A
C512   H537    1.080   .     S
C513   C528    1.395   .     A
C513   C529    1.417   .     A
C513   N553    1.432   .     S
C514   C530    1.400   .     A
C514   C516    1.472   .     S
C515   C574    1.493   .     S
C515   C521    1.406   .     A
C515   C85     1.397   1_565 S
C516   O546    1.292   .     A
C516   O545    1.307   .     A
C517   C556    1.494   .     S
C517   C518    1.409   .     A
C518   C526    1.414   .     S
C518   C519    1.408   .     A
C519   C559    1.491   .     S
C520   N562    1.439   .     S
C520   C521    1.397   .     A
C520   C87     1.390   1_565 S
C522   N542    1.359   .     A
C522   H533    1.083   .     S
C522   C595    1.422   .     S
C523   C565    1.471   .     S
C523   N541    1.380   .     A
C524   C568    1.476   .     S
C524   N541    1.382   .     A
C525   H534    1.082   .     S
C525   N542    1.359   .     A
C525   C596    1.423   .     S
C526   O547    1.285   .     A
C526   O548    1.284   .     A
C527   O549    1.302   .     A
C527   O550    1.301   .     A
C527   C529    1.472   .     S
C528   C1157   1.395   1_554 S
C528   H1184   1.080   1_554 S
C530   C531    1.390   .     A
C530   H538    1.083   .     S
C531   C1180   1.400   .     S
C531   H1187   1.076   .     S
C532   C571    1.481   .     S
C532   C1154   1.419   1_554 S
C532   C1179   1.400   1_554 S
H536   C1176   1.080   .     S
H539   C1179   1.076   1_554 S
N541   Zn551   2.024   .     S
N542   Zn552   2.024   .     S
O543   Zn551   1.988   .     S
O544   Zn552   1.984   .     S
O545   Zn551   1.954   .     S
O546   Zn552   1.927   .     S
O547   Zn551   1.984   .     S
O548   Zn552   1.988   .     S
O549   Zn551   1.927   .     S
O550   Zn552   1.954   .     S
N553   H554    1.045   .     S
N553   H555    1.045   .     S
C556   O558    1.221   .     D
C556   H557    1.084   .     S
C559   H560    1.078   .     S
C559   O561    1.220   .     D
N562   H564    1.044   .     S
N562   H563    1.046   .     S
C565   H566    1.079   .     S
C565   O567    1.221   .     D
C568   H569    1.076   .     S
C568   O570    1.221   .     D
C571   H572    1.085   .     S
C571   O573    1.221   .     D
C574   H575    1.084   .     S
C574   O576    1.221   .     D
C577   C593    1.410   .     S
C577   O615    1.283   .     A
C577   O616    1.285   .     A
C578   C579    1.406   .     A
C578   C1228   1.418   .     S
C578   C1252   1.419   .     S
C579   C586    1.422   .     A
C579   C583    1.415   .     A
C580   C584    1.395   .     A
C580   C1226   1.418   1_554 S
C580   C1229   1.414   1_554 S
C581   C582    1.392   .     A
C581   C1228   1.414   .     S
C581   C1248   1.395   .     S
C582   C583    1.386   .     A
C582   H607    1.084   .     S
C583   H612    1.079   .     S
C584   C601    1.402   .     A
C584   H609    1.080   .     S
C585   C600    1.395   .     A
C585   C601    1.417   .     A
C585   N625    1.432   .     S
C586   C602    1.400   .     A
C586   C588    1.472   .     S
C587   C646    1.493   .     S
C587   C593    1.406   .     A
C587   C157    1.397   1_565 S
C588   O618    1.292   .     A
C588   O617    1.307   .     A
C589   C628    1.494   .     S
C589   C590    1.409   .     A
C590   C598    1.414   .     S
C590   C591    1.408   .     A
C591   C631    1.491   .     S
C592   N634    1.439   .     S
C592   C593    1.397   .     A
C592   C159    1.390   1_565 S
C594   N614    1.359   .     A
C594   H605    1.083   .     S
C594   C451    1.422   1_655 S
C595   C637    1.471   .     S
C595   N613    1.380   .     A
C596   C640    1.476   .     S
C596   N613    1.382   .     A
C597   H606    1.082   .     S
C597   N614    1.359   .     A
C597   C452    1.423   1_655 S
C598   O619    1.285   .     A
C598   O620    1.284   .     A
C599   O621    1.302   .     A
C599   O622    1.301   .     A
C599   C601    1.472   .     S
C600   C1229   1.395   1_554 S
C600   H1256   1.080   1_554 S
C602   C603    1.390   .     A
C602   H610    1.083   .     S
C603   C1252   1.400   .     S
C603   H1259   1.076   .     S
C604   C643    1.481   .     S
C604   C1226   1.419   1_554 S
C604   C1251   1.400   1_554 S
H608   C1248   1.080   .     S
H611   C1251   1.076   1_554 S
N613   Zn623   2.024   .     S
N614   Zn624   2.024   .     S
O615   Zn623   1.988   .     S
O616   Zn624   1.984   .     S
O617   Zn623   1.954   .     S
O618   Zn624   1.927   .     S
O619   Zn623   1.984   .     S
O620   Zn624   1.988   .     S
O621   Zn623   1.927   .     S
O622   Zn624   1.954   .     S
N625   H626    1.045   .     S
N625   H627    1.045   .     S
C628   O630    1.221   .     D
C628   H629    1.084   .     S
C631   H632    1.078   .     S
C631   O633    1.220   .     D
N634   H636    1.044   .     S
N634   H635    1.046   .     S
C637   H638    1.079   .     S
C637   O639    1.221   .     D
C640   H641    1.076   .     S
C640   O642    1.221   .     D
C643   H644    1.085   .     S
C643   O645    1.221   .     D
C646   H647    1.084   .     S
C646   O648    1.221   .     D
C649   C665    1.410   .     S
C649   O687    1.283   .     A
C649   O688    1.285   .     A
C650   C651    1.406   .     A
C650   C4      1.418   1_556 S
C650   C28     1.419   1_556 S
C651   C658    1.422   .     A
C651   C655    1.415   .     A
C652   C656    1.395   .     A
C653   C654    1.392   .     A
C653   C4      1.414   1_556 S
C653   C24     1.395   1_556 S
C654   C655    1.386   .     A
C654   H679    1.084   .     S
C655   H684    1.079   .     S
C656   C673    1.402   .     A
C656   H681    1.080   .     S
C657   C672    1.395   .     A
C657   C673    1.417   .     A
C657   N697    1.432   .     S
C658   C674    1.400   .     A
C658   C660    1.472   .     S
C659   C718    1.493   .     S
C659   C665    1.406   .     A
C659   C877    1.397   .     S
C660   O690    1.292   .     A
C660   O689    1.307   .     A
C661   C700    1.494   .     S
C661   C662    1.409   .     A
C661   C1091   1.397   1_545 S
C662   C670    1.414   .     S
C662   C663    1.408   .     A
C663   C703    1.491   .     S
C663   C1096   1.390   1_545 S
C664   N706    1.439   .     S
C664   C665    1.397   .     A
C664   C879    1.390   .     S
C666   N686    1.359   .     A
C666   H677    1.083   .     S
C666   C739    1.422   .     S
C667   C709    1.471   .     S
C667   N685    1.380   .     A
C667   C810    1.422   1_455 S
C668   C712    1.476   .     S
C668   N685    1.382   .     A
C668   C813    1.423   1_455 S
C669   H678    1.082   .     S
C669   N686    1.359   .     A
C669   C740    1.423   .     S
C670   O691    1.285   .     A
C670   O692    1.284   .     A
C671   O693    1.302   .     A
C671   O694    1.301   .     A
C671   C673    1.472   .     S
C674   C675    1.390   .     A
C674   H682    1.083   .     S
C675   C28     1.400   1_556 S
C675   H35     1.076   1_556 S
C676   C715    1.481   .     S
H680   C24     1.080   1_556 S
N685   Zn695   2.024   .     S
N686   Zn696   2.024   .     S
O687   Zn695   1.988   .     S
O688   Zn696   1.984   .     S
O689   Zn695   1.954   .     S
O690   Zn696   1.927   .     S
O691   Zn695   1.984   .     S
O692   Zn696   1.988   .     S
O693   Zn695   1.927   .     S
O694   Zn696   1.954   .     S
N697   H698    1.045   .     S
N697   H699    1.045   .     S
C700   O702    1.221   .     D
C700   H701    1.084   .     S
C703   H704    1.078   .     S
C703   O705    1.220   .     D
N706   H708    1.044   .     S
N706   H707    1.046   .     S
C709   H710    1.079   .     S
C709   O711    1.221   .     D
C712   H713    1.076   .     S
C712   O714    1.221   .     D
C715   H716    1.085   .     S
C715   O717    1.221   .     D
C718   H719    1.084   .     S
C718   O720    1.221   .     D
C721   C737    1.410   .     S
C721   O759    1.283   .     A
C721   O760    1.285   .     A
C722   C723    1.406   .     A
C722   C76     1.418   1_556 S
C722   C100    1.419   1_556 S
C723   C730    1.422   .     A
C723   C727    1.415   .     A
C724   C728    1.395   .     A
C725   C726    1.392   .     A
C725   C76     1.414   1_556 S
C725   C96     1.395   1_556 S
C726   C727    1.386   .     A
C726   H751    1.084   .     S
C727   H756    1.079   .     S
C728   C745    1.402   .     A
C728   H753    1.080   .     S
C729   C744    1.395   .     A
C729   C745    1.417   .     A
C729   N769    1.432   .     S
C730   C746    1.400   .     A
C730   C732    1.472   .     S
C731   C790    1.493   .     S
C731   C737    1.406   .     A
C731   C949    1.397   .     S
C732   O762    1.292   .     A
C732   O761    1.307   .     A
C733   C772    1.494   .     S
C733   C734    1.409   .     A
C733   C1163   1.397   1_545 S
C734   C742    1.414   .     S
C734   C735    1.408   .     A
C735   C775    1.491   .     S
C735   C1168   1.390   1_545 S
C736   N778    1.439   .     S
C736   C737    1.397   .     A
C736   C951    1.390   .     S
C738   N758    1.359   .     A
C738   H749    1.083   .     S
C738   C811    1.422   .     S
C739   C781    1.471   .     S
C739   N757    1.380   .     A
C740   C784    1.476   .     S
C740   N757    1.382   .     A
C741   H750    1.082   .     S
C741   N758    1.359   .     A
C741   C812    1.423   .     S
C742   O763    1.285   .     A
C742   O764    1.284   .     A
C743   O765    1.302   .     A
C743   O766    1.301   .     A
C743   C745    1.472   .     S
C746   C747    1.390   .     A
C746   H754    1.083   .     S
C747   C100    1.400   1_556 S
C747   H107    1.076   1_556 S
C748   C787    1.481   .     S
H752   C96     1.080   1_556 S
N757   Zn767   2.024   .     S
N758   Zn768   2.024   .     S
O759   Zn767   1.988   .     S
O760   Zn768   1.984   .     S
O761   Zn767   1.954   .     S
O762   Zn768   1.927   .     S
O763   Zn767   1.984   .     S
O764   Zn768   1.988   .     S
O765   Zn767   1.927   .     S
O766   Zn768   1.954   .     S
N769   H770    1.045   .     S
N769   H771    1.045   .     S
C772   O774    1.221   .     D
C772   H773    1.084   .     S
C775   H776    1.078   .     S
C775   O777    1.220   .     D
N778   H780    1.044   .     S
N778   H779    1.046   .     S
C781   H782    1.079   .     S
C781   O783    1.221   .     D
C784   H785    1.076   .     S
C784   O786    1.221   .     D
C787   H788    1.085   .     S
C787   O789    1.221   .     D
C790   H791    1.084   .     S
C790   O792    1.221   .     D
C793   C809    1.410   .     S
C793   O831    1.283   .     A
C793   O832    1.285   .     A
C794   C795    1.406   .     A
C794   C148    1.418   1_556 S
C794   C172    1.419   1_556 S
C795   C802    1.422   .     A
C795   C799    1.415   .     A
C796   C800    1.395   .     A
C797   C798    1.392   .     A
C797   C148    1.414   1_556 S
C797   C168    1.395   1_556 S
C798   C799    1.386   .     A
C798   H823    1.084   .     S
C799   H828    1.079   .     S
C800   C817    1.402   .     A
C800   H825    1.080   .     S
C801   C816    1.395   .     A
C801   C817    1.417   .     A
C801   N841    1.432   .     S
C802   C818    1.400   .     A
C802   C804    1.472   .     S
C803   C862    1.493   .     S
C803   C809    1.406   .     A
C803   C1021   1.397   .     S
C804   O834    1.292   .     A
C804   O833    1.307   .     A
C805   C844    1.494   .     S
C805   C806    1.409   .     A
C805   C1235   1.397   1_545 S
C806   C814    1.414   .     S
C806   C807    1.408   .     A
C807   C847    1.491   .     S
C807   C1240   1.390   1_545 S
C808   N850    1.439   .     S
C808   C809    1.397   .     A
C808   C1023   1.390   .     S
C810   N830    1.359   .     A
C810   H821    1.083   .     S
C810   C667    1.422   1_655 S
C811   C853    1.471   .     S
C811   N829    1.380   .     A
C812   C856    1.476   .     S
C812   N829    1.382   .     A
C813   H822    1.082   .     S
C813   N830    1.359   .     A
C813   C668    1.423   1_655 S
C814   O835    1.285   .     A
C814   O836    1.284   .     A
C815   O837    1.302   .     A
C815   O838    1.301   .     A
C815   C817    1.472   .     S
C818   C819    1.390   .     A
C818   H826    1.083   .     S
C819   C172    1.400   1_556 S
C819   H179    1.076   1_556 S
C820   C859    1.481   .     S
H824   C168    1.080   1_556 S
N829   Zn839   2.024   .     S
N830   Zn840   2.024   .     S
O831   Zn839   1.988   .     S
O832   Zn840   1.984   .     S
O833   Zn839   1.954   .     S
O834   Zn840   1.927   .     S
O835   Zn839   1.984   .     S
O836   Zn840   1.988   .     S
O837   Zn839   1.927   .     S
O838   Zn840   1.954   .     S
N841   H842    1.045   .     S
N841   H843    1.045   .     S
C844   O846    1.221   .     D
C844   H845    1.084   .     S
C847   H848    1.078   .     S
C847   O849    1.220   .     D
N850   H852    1.044   .     S
N850   H851    1.046   .     S
C853   H854    1.079   .     S
C853   O855    1.221   .     D
C856   H857    1.076   .     S
C856   O858    1.221   .     D
C859   H860    1.085   .     S
C859   O861    1.221   .     D
C862   H863    1.084   .     S
C862   O864    1.221   .     D
C865   C881    1.410   .     S
C865   O903    1.283   .     A
C865   O904    1.285   .     A
C866   C867    1.406   .     A
C866   C220    1.418   1_556 S
C866   C244    1.419   1_556 S
C867   C874    1.422   .     A
C867   C871    1.415   .     A
C868   C872    1.395   .     A
C869   C870    1.392   .     A
C869   C220    1.414   1_556 S
C869   C240    1.395   1_556 S
C870   C871    1.386   .     A
C870   H895    1.084   .     S
C871   H900    1.079   .     S
C872   C889    1.402   .     A
C872   H897    1.080   .     S
C873   C888    1.395   .     A
C873   C889    1.417   .     A
C873   N913    1.432   .     S
C874   C890    1.400   .     A
C874   C876    1.472   .     S
C875   C934    1.493   .     S
C875   C881    1.406   .     A
C875   C1093   1.397   .     S
C876   O906    1.292   .     A
C876   O905    1.307   .     A
C877   C916    1.494   .     S
C877   C878    1.409   .     A
C878   C886    1.414   .     S
C878   C879    1.408   .     A
C879   C919    1.491   .     S
C880   N922    1.439   .     S
C880   C881    1.397   .     A
C880   C1095   1.390   .     S
C882   N902    1.359   .     A
C882   H893    1.083   .     S
C882   C955    1.422   .     S
C883   C925    1.471   .     S
C883   N901    1.380   .     A
C883   C1026   1.422   1_455 S
C884   C928    1.476   .     S
C884   N901    1.382   .     A
C884   C1029   1.423   1_455 S
C885   H894    1.082   .     S
C885   N902    1.359   .     A
C885   C956    1.423   .     S
C886   O907    1.285   .     A
C886   O908    1.284   .     A
C887   O909    1.302   .     A
C887   O910    1.301   .     A
C887   C889    1.472   .     S
C890   C891    1.390   .     A
C890   H898    1.083   .     S
C891   C244    1.400   1_556 S
C891   H251    1.076   1_556 S
C892   C931    1.481   .     S
H896   C240    1.080   1_556 S
N901   Zn911   2.024   .     S
N902   Zn912   2.024   .     S
O903   Zn911   1.988   .     S
O904   Zn912   1.984   .     S
O905   Zn911   1.954   .     S
O906   Zn912   1.927   .     S
O907   Zn911   1.984   .     S
O908   Zn912   1.988   .     S
O909   Zn911   1.927   .     S
O910   Zn912   1.954   .     S
N913   H914    1.045   .     S
N913   H915    1.045   .     S
C916   O918    1.221   .     D
C916   H917    1.084   .     S
C919   H920    1.078   .     S
C919   O921    1.220   .     D
N922   H924    1.044   .     S
N922   H923    1.046   .     S
C925   H926    1.079   .     S
C925   O927    1.221   .     D
C928   H929    1.076   .     S
C928   O930    1.221   .     D
C931   H932    1.085   .     S
C931   O933    1.221   .     D
C934   H935    1.084   .     S
C934   O936    1.221   .     D
C937   C953    1.410   .     S
C937   O975    1.283   .     A
C937   O976    1.285   .     A
C938   C939    1.406   .     A
C938   C292    1.418   1_556 S
C938   C316    1.419   1_556 S
C939   C946    1.422   .     A
C939   C943    1.415   .     A
C940   C944    1.395   .     A
C941   C942    1.392   .     A
C941   C292    1.414   1_556 S
C941   C312    1.395   1_556 S
C942   C943    1.386   .     A
C942   H967    1.084   .     S
C943   H972    1.079   .     S
C944   C961    1.402   .     A
C944   H969    1.080   .     S
C945   C960    1.395   .     A
C945   C961    1.417   .     A
C945   N985    1.432   .     S
C946   C962    1.400   .     A
C946   C948    1.472   .     S
C947   C1006   1.493   .     S
C947   C953    1.406   .     A
C947   C1165   1.397   .     S
C948   O978    1.292   .     A
C948   O977    1.307   .     A
C949   C988    1.494   .     S
C949   C950    1.409   .     A
C950   C958    1.414   .     S
C950   C951    1.408   .     A
C951   C991    1.491   .     S
C952   N994    1.439   .     S
C952   C953    1.397   .     A
C952   C1167   1.390   .     S
C954   N974    1.359   .     A
C954   H965    1.083   .     S
C954   C1027   1.422   .     S
C955   C997    1.471   .     S
C955   N973    1.380   .     A
C956   C1000   1.476   .     S
C956   N973    1.382   .     A
C957   H966    1.082   .     S
C957   N974    1.359   .     A
C957   C1028   1.423   .     S
C958   O979    1.285   .     A
C958   O980    1.284   .     A
C959   O981    1.302   .     A
C959   O982    1.301   .     A
C959   C961    1.472   .     S
C962   C963    1.390   .     A
C962   H970    1.083   .     S
C963   C316    1.400   1_556 S
C963   H323    1.076   1_556 S
C964   C1003   1.481   .     S
H968   C312    1.080   1_556 S
N973   Zn983   2.024   .     S
N974   Zn984   2.024   .     S
O975   Zn983   1.988   .     S
O976   Zn984   1.984   .     S
O977   Zn983   1.954   .     S
O978   Zn984   1.927   .     S
O979   Zn983   1.984   .     S
O980   Zn984   1.988   .     S
O981   Zn983   1.927   .     S
O982   Zn984   1.954   .     S
N985   H986    1.045   .     S
N985   H987    1.045   .     S
C988   O990    1.221   .     D
C988   H989    1.084   .     S
C991   H992    1.078   .     S
C991   O993    1.220   .     D
N994   H996    1.044   .     S
N994   H995    1.046   .     S
C997   H998    1.079   .     S
C997   O999    1.221   .     D
C1000  H1001   1.076   .     S
C1000  O1002   1.221   .     D
C1003  H1004   1.085   .     S
C1003  O1005   1.221   .     D
C1006  H1007   1.084   .     S
C1006  O1008   1.221   .     D
C1009  C1025   1.410   .     S
C1009  O1047   1.283   .     A
C1009  O1048   1.285   .     A
C1010  C1011   1.406   .     A
C1010  C364    1.418   1_556 S
C1010  C388    1.419   1_556 S
C1011  C1018   1.422   .     A
C1011  C1015   1.415   .     A
C1012  C1016   1.395   .     A
C1013  C1014   1.392   .     A
C1013  C364    1.414   1_556 S
C1013  C384    1.395   1_556 S
C1014  C1015   1.386   .     A
C1014  H1039   1.084   .     S
C1015  H1044   1.079   .     S
C1016  C1033   1.402   .     A
C1016  H1041   1.080   .     S
C1017  C1032   1.395   .     A
C1017  C1033   1.417   .     A
C1017  N1057   1.432   .     S
C1018  C1034   1.400   .     A
C1018  C1020   1.472   .     S
C1019  C1078   1.493   .     S
C1019  C1025   1.406   .     A
C1019  C1237   1.397   .     S
C1020  O1050   1.292   .     A
C1020  O1049   1.307   .     A
C1021  C1060   1.494   .     S
C1021  C1022   1.409   .     A
C1022  C1030   1.414   .     S
C1022  C1023   1.408   .     A
C1023  C1063   1.491   .     S
C1024  N1066   1.439   .     S
C1024  C1025   1.397   .     A
C1024  C1239   1.390   .     S
C1026  N1046   1.359   .     A
C1026  H1037   1.083   .     S
C1026  C883    1.422   1_655 S
C1027  C1069   1.471   .     S
C1027  N1045   1.380   .     A
C1028  C1072   1.476   .     S
C1028  N1045   1.382   .     A
C1029  H1038   1.082   .     S
C1029  N1046   1.359   .     A
C1029  C884    1.423   1_655 S
C1030  O1051   1.285   .     A
C1030  O1052   1.284   .     A
C1031  O1053   1.302   .     A
C1031  O1054   1.301   .     A
C1031  C1033   1.472   .     S
C1034  C1035   1.390   .     A
C1034  H1042   1.083   .     S
C1035  C388    1.400   1_556 S
C1035  H395    1.076   1_556 S
C1036  C1075   1.481   .     S
H1040  C384    1.080   1_556 S
N1045  Zn1055  2.024   .     S
N1046  Zn1056  2.024   .     S
O1047  Zn1055  1.988   .     S
O1048  Zn1056  1.984   .     S
O1049  Zn1055  1.954   .     S
O1050  Zn1056  1.927   .     S
O1051  Zn1055  1.984   .     S
O1052  Zn1056  1.988   .     S
O1053  Zn1055  1.927   .     S
O1054  Zn1056  1.954   .     S
N1057  H1058   1.045   .     S
N1057  H1059   1.045   .     S
C1060  O1062   1.221   .     D
C1060  H1061   1.084   .     S
C1063  H1064   1.078   .     S
C1063  O1065   1.220   .     D
N1066  H1068   1.044   .     S
N1066  H1067   1.046   .     S
C1069  H1070   1.079   .     S
C1069  O1071   1.221   .     D
C1072  H1073   1.076   .     S
C1072  O1074   1.221   .     D
C1075  H1076   1.085   .     S
C1075  O1077   1.221   .     D
C1078  H1079   1.084   .     S
C1078  O1080   1.221   .     D
C1081  C1097   1.410   .     S
C1081  O1119   1.283   .     A
C1081  O1120   1.285   .     A
C1082  C1083   1.406   .     A
C1082  C436    1.418   1_556 S
C1082  C460    1.419   1_556 S
C1083  C1090   1.422   .     A
C1083  C1087   1.415   .     A
C1084  C1088   1.395   .     A
C1085  C1086   1.392   .     A
C1085  C436    1.414   1_556 S
C1085  C456    1.395   1_556 S
C1086  C1087   1.386   .     A
C1086  H1111   1.084   .     S
C1087  H1116   1.079   .     S
C1088  C1105   1.402   .     A
C1088  H1113   1.080   .     S
C1089  C1104   1.395   .     A
C1089  C1105   1.417   .     A
C1089  N1129   1.432   .     S
C1090  C1106   1.400   .     A
C1090  C1092   1.472   .     S
C1091  C1150   1.493   .     S
C1091  C1097   1.406   .     A
C1091  C661    1.397   1_565 S
C1092  O1122   1.292   .     A
C1092  O1121   1.307   .     A
C1093  C1132   1.494   .     S
C1093  C1094   1.409   .     A
C1094  C1102   1.414   .     S
C1094  C1095   1.408   .     A
C1095  C1135   1.491   .     S
C1096  N1138   1.439   .     S
C1096  C1097   1.397   .     A
C1096  C663    1.390   1_565 S
C1098  N1118   1.359   .     A
C1098  H1109   1.083   .     S
C1098  C1171   1.422   .     S
C1099  C1141   1.471   .     S
C1099  N1117   1.380   .     A
C1099  C1242   1.422   1_455 S
C1100  C1144   1.476   .     S
C1100  N1117   1.382   .     A
C1100  C1245   1.423   1_455 S
C1101  H1110   1.082   .     S
C1101  N1118   1.359   .     A
C1101  C1172   1.423   .     S
C1102  O1123   1.285   .     A
C1102  O1124   1.284   .     A
C1103  O1125   1.302   .     A
C1103  O1126   1.301   .     A
C1103  C1105   1.472   .     S
C1106  C1107   1.390   .     A
C1106  H1114   1.083   .     S
C1107  C460    1.400   1_556 S
C1107  H467    1.076   1_556 S
C1108  C1147   1.481   .     S
H1112  C456    1.080   1_556 S
N1117  Zn1127  2.024   .     S
N1118  Zn1128  2.024   .     S
O1119  Zn1127  1.988   .     S
O1120  Zn1128  1.984   .     S
O1121  Zn1127  1.954   .     S
O1122  Zn1128  1.927   .     S
O1123  Zn1127  1.984   .     S
O1124  Zn1128  1.988   .     S
O1125  Zn1127  1.927   .     S
O1126  Zn1128  1.954   .     S
N1129  H1130   1.045   .     S
N1129  H1131   1.045   .     S
C1132  O1134   1.221   .     D
C1132  H1133   1.084   .     S
C1135  H1136   1.078   .     S
C1135  O1137   1.220   .     D
N1138  H1140   1.044   .     S
N1138  H1139   1.046   .     S
C1141  H1142   1.079   .     S
C1141  O1143   1.221   .     D
C1144  H1145   1.076   .     S
C1144  O1146   1.221   .     D
C1147  H1148   1.085   .     S
C1147  O1149   1.221   .     D
C1150  H1151   1.084   .     S
C1150  O1152   1.221   .     D
C1153  C1169   1.410   .     S
C1153  O1191   1.283   .     A
C1153  O1192   1.285   .     A
C1154  C1155   1.406   .     A
C1154  C508    1.418   1_556 S
C1154  C532    1.419   1_556 S
C1155  C1162   1.422   .     A
C1155  C1159   1.415   .     A
C1156  C1160   1.395   .     A
C1157  C1158   1.392   .     A
C1157  C508    1.414   1_556 S
C1157  C528    1.395   1_556 S
C1158  C1159   1.386   .     A
C1158  H1183   1.084   .     S
C1159  H1188   1.079   .     S
C1160  C1177   1.402   .     A
C1160  H1185   1.080   .     S
C1161  C1176   1.395   .     A
C1161  C1177   1.417   .     A
C1161  N1201   1.432   .     S
C1162  C1178   1.400   .     A
C1162  C1164   1.472   .     S
C1163  C1222   1.493   .     S
C1163  C1169   1.406   .     A
C1163  C733    1.397   1_565 S
C1164  O1194   1.292   .     A
C1164  O1193   1.307   .     A
C1165  C1204   1.494   .     S
C1165  C1166   1.409   .     A
C1166  C1174   1.414   .     S
C1166  C1167   1.408   .     A
C1167  C1207   1.491   .     S
C1168  N1210   1.439   .     S
C1168  C1169   1.397   .     A
C1168  C735    1.390   1_565 S
C1170  N1190   1.359   .     A
C1170  H1181   1.083   .     S
C1170  C1243   1.422   .     S
C1171  C1213   1.471   .     S
C1171  N1189   1.380   .     A
C1172  C1216   1.476   .     S
C1172  N1189   1.382   .     A
C1173  H1182   1.082   .     S
C1173  N1190   1.359   .     A
C1173  C1244   1.423   .     S
C1174  O1195   1.285   .     A
C1174  O1196   1.284   .     A
C1175  O1197   1.302   .     A
C1175  O1198   1.301   .     A
C1175  C1177   1.472   .     S
C1178  C1179   1.390   .     A
C1178  H1186   1.083   .     S
C1179  C532    1.400   1_556 S
C1179  H539    1.076   1_556 S
C1180  C1219   1.481   .     S
H1184  C528    1.080   1_556 S
N1189  Zn1199  2.024   .     S
N1190  Zn1200  2.024   .     S
O1191  Zn1199  1.988   .     S
O1192  Zn1200  1.984   .     S
O1193  Zn1199  1.954   .     S
O1194  Zn1200  1.927   .     S
O1195  Zn1199  1.984   .     S
O1196  Zn1200  1.988   .     S
O1197  Zn1199  1.927   .     S
O1198  Zn1200  1.954   .     S
N1201  H1202   1.045   .     S
N1201  H1203   1.045   .     S
C1204  O1206   1.221   .     D
C1204  H1205   1.084   .     S
C1207  H1208   1.078   .     S
C1207  O1209   1.220   .     D
N1210  H1212   1.044   .     S
N1210  H1211   1.046   .     S
C1213  H1214   1.079   .     S
C1213  O1215   1.221   .     D
C1216  H1217   1.076   .     S
C1216  O1218   1.221   .     D
C1219  H1220   1.085   .     S
C1219  O1221   1.221   .     D
C1222  H1223   1.084   .     S
C1222  O1224   1.221   .     D
C1225  C1241   1.410   .     S
C1225  O1263   1.283   .     A
C1225  O1264   1.285   .     A
C1226  C1227   1.406   .     A
C1226  C580    1.418   1_556 S
C1226  C604    1.419   1_556 S
C1227  C1234   1.422   .     A
C1227  C1231   1.415   .     A
C1228  C1232   1.395   .     A
C1229  C1230   1.392   .     A
C1229  C580    1.414   1_556 S
C1229  C600    1.395   1_556 S
C1230  C1231   1.386   .     A
C1230  H1255   1.084   .     S
C1231  H1260   1.079   .     S
C1232  C1249   1.402   .     A
C1232  H1257   1.080   .     S
C1233  C1248   1.395   .     A
C1233  C1249   1.417   .     A
C1233  N1273   1.432   .     S
C1234  C1250   1.400   .     A
C1234  C1236   1.472   .     S
C1235  C1294   1.493   .     S
C1235  C1241   1.406   .     A
C1235  C805    1.397   1_565 S
C1236  O1266   1.292   .     A
C1236  O1265   1.307   .     A
C1237  C1276   1.494   .     S
C1237  C1238   1.409   .     A
C1238  C1246   1.414   .     S
C1238  C1239   1.408   .     A
C1239  C1279   1.491   .     S
C1240  N1282   1.439   .     S
C1240  C1241   1.397   .     A
C1240  C807    1.390   1_565 S
C1242  N1262   1.359   .     A
C1242  H1253   1.083   .     S
C1242  C1099   1.422   1_655 S
C1243  C1285   1.471   .     S
C1243  N1261   1.380   .     A
C1244  C1288   1.476   .     S
C1244  N1261   1.382   .     A
C1245  H1254   1.082   .     S
C1245  N1262   1.359   .     A
C1245  C1100   1.423   1_655 S
C1246  O1267   1.285   .     A
C1246  O1268   1.284   .     A
C1247  O1269   1.302   .     A
C1247  O1270   1.301   .     A
C1247  C1249   1.472   .     S
C1250  C1251   1.390   .     A
C1250  H1258   1.083   .     S
C1251  C604    1.400   1_556 S
C1251  H611    1.076   1_556 S
C1252  C1291   1.481   .     S
H1256  C600    1.080   1_556 S
N1261  Zn1271  2.024   .     S
N1262  Zn1272  2.024   .     S
O1263  Zn1271  1.988   .     S
O1264  Zn1272  1.984   .     S
O1265  Zn1271  1.954   .     S
O1266  Zn1272  1.927   .     S
O1267  Zn1271  1.984   .     S
O1268  Zn1272  1.988   .     S
O1269  Zn1271  1.927   .     S
O1270  Zn1272  1.954   .     S
N1273  H1274   1.045   .     S
N1273  H1275   1.045   .     S
C1276  O1278   1.221   .     D
C1276  H1277   1.084   .     S
C1279  H1280   1.078   .     S
C1279  O1281   1.220   .     D
N1282  H1284   1.044   .     S
N1282  H1283   1.046   .     S
C1285  H1286   1.079   .     S
C1285  O1287   1.221   .     D
C1288  H1289   1.076   .     S
C1288  O1290   1.221   .     D
C1291  H1292   1.085   .     S
C1291  O1293   1.221   .     D
C1294  H1295   1.084   .     S
C1294  O1296   1.221   .     D
