data_str_m1_o10_o18_pcu_sym.139
_audit_creation_date              2020-01-03
_audit_creation_method            'Materials Studio'
_symmetry_space_group_name_H-M    'P1'
_symmetry_Int_Tables_number       1
_symmetry_cell_setting            triclinic
loop_
_symmetry_equiv_pos_as_xyz
  x,y,z
_cell_length_a                    32.5494
_cell_length_b                    32.5631
_cell_length_c                    35.6733
_cell_angle_alpha                 97.9681
_cell_angle_beta                  73.0477
_cell_angle_gamma                 98.7234
loop_
_atom_site_label
_atom_site_type_symbol
_atom_site_fract_x
_atom_site_fract_y
_atom_site_fract_z
_atom_site_U_iso_or_equiv
_atom_site_adp_type
_atom_site_occupancy
C1     C     0.05252   0.15991   0.25868   0.00000  Uiso   1.00
C2     C     0.20363   0.13489   0.45809   0.00000  Uiso   1.00
C3     C     0.22818   0.11859   0.47722   0.00000  Uiso   1.00
C4     C     0.28110   0.17359   0.24118   0.00000  Uiso   1.00
C5     C     0.21614   0.12182   0.01886   0.00000  Uiso   1.00
C6     C     0.17911   0.14162   0.04048   0.00000  Uiso   1.00
C7     C     0.23963   0.10516   0.03934   0.00000  Uiso   1.00
C8     C     0.22993   0.11128   0.08022   0.00000  Uiso   1.00
C9     C     0.17336   0.15365   0.08117   0.00000  Uiso   1.00
C10    C     0.32711   0.17628   0.23754   0.00000  Uiso   1.00
C11    C     0.00713   0.15744   0.26207   0.00000  Uiso   1.00
C12    C     0.08858   0.19526   0.41894   0.00000  Uiso   1.00
C13    C     0.18170   0.32274   0.23774   0.00000  Uiso   1.00
C14    C     0.15185   0.01203   0.26189   0.00000  Uiso   1.00
C15    C     0.15544   0.05618   0.25933   0.00000  Uiso   1.00
C16    C     0.17709   0.27780   0.24123   0.00000  Uiso   1.00
C17    C     0.18819   0.14540   0.14402   0.00000  Uiso   1.00
C18    C     0.14582   0.18795   0.35611   0.00000  Uiso   1.00
C19    C     0.13211   0.19136   0.39938   0.00000  Uiso   1.00
C20    C     0.19744   0.13676   0.10131   0.00000  Uiso   1.00
C21    C     0.07240   0.18987   0.45877   0.00000  Uiso   1.00
C22    C     0.22339   0.23250   0.42675   0.00000  Uiso   1.00
C23    C     0.16029   0.18472   0.42088   0.00000  Uiso   1.00
C24    C     0.14232   0.17195   0.45942   0.00000  Uiso   1.00
C25    C     0.09860   0.17727   0.47894   0.00000  Uiso   1.00
C26    C     0.16636   0.15390   0.47902   0.00000  Uiso   1.00
C27    C     0.15070   0.15150   0.02017   0.00000  Uiso   1.00
C28    C     0.10623   0.15521   0.03879   0.00000  Uiso   1.00
C29    C     0.08089   0.16830   0.01792   0.00000  Uiso   1.00
H30    H     0.04687   0.17076   0.03200   0.00000  Uiso   1.00
H31    H     0.15023   0.19458   0.12581   0.00000  Uiso   1.00
H32    H     0.24336   0.09749   0.12684   0.00000  Uiso   1.00
H33    H     0.28777   0.10848   0.46704   0.00000  Uiso   1.00
H34    H     0.21799   0.19626   0.37599   0.00000  Uiso   1.00
H35    H     0.20943   0.26040   0.42333   0.00000  Uiso   1.00
H36    H     0.25906   0.23755   0.41437   0.00000  Uiso   1.00
H37    H     0.21635   0.22872   0.45854   0.00000  Uiso   1.00
H38    H     0.05582   0.14529   0.08378   0.00000  Uiso   1.00
H39    H     0.26536   0.08637   0.02408   0.00000  Uiso   1.00
H40    H     0.01687   0.19362   0.21484   0.00000  Uiso   1.00
H41    H     0.31801   0.14006   0.28504   0.00000  Uiso   1.00
H42    H     0.12426   0.33158   0.28369   0.00000  Uiso   1.00
H43    H     0.03865   0.19321   0.47324   0.00000  Uiso   1.00
H44    H     0.06663   0.20116   0.40310   0.00000  Uiso   1.00
H45    H     0.21334   0.13068   0.42627   0.00000  Uiso   1.00
H46    H     0.23508   0.32120   0.19500   0.00000  Uiso   1.00
N47    N     0.20597   0.19573   0.40599   0.00000  Uiso   1.00
O48    O     0.16667   0.16667   0.25000   0.00000  Uiso   1.00
O49    O     0.15693   0.12393   0.16625   0.00000  Uiso   1.00
O50    O     0.12687   0.20646   0.33749   0.00000  Uiso   1.00
O51    O     0.21088   0.17493   0.15877   0.00000  Uiso   1.00
O52    O     0.17198   0.16135   0.33749   0.00000  Uiso   1.00
O53    O     0.21592   0.00883   0.21027   0.00000  Uiso   1.00
O54    O     0.14733   0.18486   0.09911   0.00000  Uiso   1.00
O55    O     0.25408   0.09275   0.09785   0.00000  Uiso   1.00
O56    O     0.26436   0.10109   0.45392   0.00000  Uiso   1.00
O57    O     0.08685   0.14102   0.07538   0.00000  Uiso   1.00
O58    O     0.17849   0.08101   0.27820   0.00000  Uiso   1.00
O59    O     0.14581   0.26136   0.26767   0.00000  Uiso   1.00
O60    O     0.07452   0.13251   0.23607   0.00000  Uiso   1.00
O61    O     0.26785   0.19179   0.21805   0.00000  Uiso   1.00
O62    O     0.06990   0.18960   0.27820   0.00000  Uiso   1.00
O63    O     0.25440   0.15277   0.26767   0.00000  Uiso   1.00
O64    O     0.13800   0.06903   0.23607   0.00000  Uiso   1.00
O65    O     0.20437   0.25527   0.21805   0.00000  Uiso   1.00
Zn66   Zn    0.19244   0.14090   0.28277   0.00000  Uiso   1.00
Zn67   Zn    0.13459   0.12378   0.22257   0.00000  Uiso   1.00
Zn68   Zn    0.21166   0.19664   0.21188   0.00000  Uiso   1.00
Zn69   Zn    0.12798   0.20535   0.28277   0.00000  Uiso   1.00
C70    C     0.38586   0.15991   0.25868   0.00000  Uiso   1.00
C71    C     0.53696   0.13489   0.45809   0.00000  Uiso   1.00
C72    C     0.56151   0.11859   0.47722   0.00000  Uiso   1.00
C73    C     0.61443   0.17359   0.24118   0.00000  Uiso   1.00
C74    C     0.54947   0.12182   0.01886   0.00000  Uiso   1.00
C75    C     0.51244   0.14162   0.04048   0.00000  Uiso   1.00
C76    C     0.57296   0.10516   0.03934   0.00000  Uiso   1.00
C77    C     0.56327   0.11128   0.08022   0.00000  Uiso   1.00
C78    C     0.50670   0.15365   0.08117   0.00000  Uiso   1.00
C79    C     0.66044   0.17628   0.23754   0.00000  Uiso   1.00
C80    C     0.34046   0.15744   0.26207   0.00000  Uiso   1.00
C81    C     0.42191   0.19526   0.41894   0.00000  Uiso   1.00
C82    C     0.51503   0.32274   0.23774   0.00000  Uiso   1.00
C83    C     0.48518   0.01203   0.26189   0.00000  Uiso   1.00
C84    C     0.48877   0.05618   0.25933   0.00000  Uiso   1.00
C85    C     0.51043   0.27780   0.24123   0.00000  Uiso   1.00
C86    C     0.52152   0.14540   0.14402   0.00000  Uiso   1.00
C87    C     0.47916   0.18795   0.35611   0.00000  Uiso   1.00
C88    C     0.46544   0.19136   0.39938   0.00000  Uiso   1.00
C89    C     0.53077   0.13676   0.10131   0.00000  Uiso   1.00
C90    C     0.40573   0.18987   0.45877   0.00000  Uiso   1.00
C91    C     0.55673   0.23250   0.42675   0.00000  Uiso   1.00
C92    C     0.49362   0.18472   0.42088   0.00000  Uiso   1.00
C93    C     0.47565   0.17195   0.45942   0.00000  Uiso   1.00
C94    C     0.43194   0.17727   0.47894   0.00000  Uiso   1.00
C95    C     0.49970   0.15390   0.47902   0.00000  Uiso   1.00
C96    C     0.48403   0.15150   0.02017   0.00000  Uiso   1.00
C97    C     0.43956   0.15521   0.03879   0.00000  Uiso   1.00
C98    C     0.41422   0.16830   0.01792   0.00000  Uiso   1.00
H99    H     0.38020   0.17076   0.03200   0.00000  Uiso   1.00
H100   H     0.48356   0.19458   0.12581   0.00000  Uiso   1.00
H101   H     0.57670   0.09749   0.12684   0.00000  Uiso   1.00
H102   H     0.62110   0.10848   0.46704   0.00000  Uiso   1.00
H103   H     0.55132   0.19626   0.37599   0.00000  Uiso   1.00
H104   H     0.54276   0.26040   0.42333   0.00000  Uiso   1.00
H105   H     0.59240   0.23755   0.41437   0.00000  Uiso   1.00
H106   H     0.54968   0.22872   0.45854   0.00000  Uiso   1.00
H107   H     0.38915   0.14529   0.08378   0.00000  Uiso   1.00
H108   H     0.59870   0.08637   0.02408   0.00000  Uiso   1.00
H109   H     0.35020   0.19362   0.21484   0.00000  Uiso   1.00
H110   H     0.65135   0.14006   0.28504   0.00000  Uiso   1.00
H111   H     0.45760   0.33158   0.28369   0.00000  Uiso   1.00
H112   H     0.37198   0.19321   0.47324   0.00000  Uiso   1.00
H113   H     0.39996   0.20116   0.40310   0.00000  Uiso   1.00
H114   H     0.54667   0.13068   0.42627   0.00000  Uiso   1.00
H115   H     0.56841   0.32120   0.19500   0.00000  Uiso   1.00
N116   N     0.53930   0.19573   0.40599   0.00000  Uiso   1.00
O117   O     0.50000   0.16667   0.25000   0.00000  Uiso   1.00
O118   O     0.49027   0.12393   0.16625   0.00000  Uiso   1.00
O119   O     0.46020   0.20646   0.33749   0.00000  Uiso   1.00
O120   O     0.54421   0.17493   0.15877   0.00000  Uiso   1.00
O121   O     0.50532   0.16135   0.33749   0.00000  Uiso   1.00
O122   O     0.54925   0.00883   0.21027   0.00000  Uiso   1.00
O123   O     0.48067   0.18486   0.09911   0.00000  Uiso   1.00
O124   O     0.58742   0.09275   0.09785   0.00000  Uiso   1.00
O125   O     0.59770   0.10109   0.45392   0.00000  Uiso   1.00
O126   O     0.42018   0.14102   0.07538   0.00000  Uiso   1.00
O127   O     0.51182   0.08101   0.27820   0.00000  Uiso   1.00
O128   O     0.47914   0.26136   0.26767   0.00000  Uiso   1.00
O129   O     0.40785   0.13251   0.23607   0.00000  Uiso   1.00
O130   O     0.60119   0.19179   0.21805   0.00000  Uiso   1.00
O131   O     0.40323   0.18960   0.27820   0.00000  Uiso   1.00
O132   O     0.58773   0.15277   0.26767   0.00000  Uiso   1.00
O133   O     0.47133   0.06903   0.23607   0.00000  Uiso   1.00
O134   O     0.53771   0.25527   0.21805   0.00000  Uiso   1.00
Zn135  Zn    0.52577   0.14090   0.28277   0.00000  Uiso   1.00
Zn136  Zn    0.46792   0.12378   0.22257   0.00000  Uiso   1.00
Zn137  Zn    0.54500   0.19664   0.21188   0.00000  Uiso   1.00
Zn138  Zn    0.46131   0.20535   0.28277   0.00000  Uiso   1.00
C139   C     0.71919   0.15991   0.25868   0.00000  Uiso   1.00
C140   C     0.87030   0.13489   0.45809   0.00000  Uiso   1.00
C141   C     0.89485   0.11859   0.47722   0.00000  Uiso   1.00
C142   C     0.94777   0.17359   0.24118   0.00000  Uiso   1.00
C143   C     0.88281   0.12182   0.01886   0.00000  Uiso   1.00
C144   C     0.84578   0.14162   0.04048   0.00000  Uiso   1.00
C145   C     0.90629   0.10516   0.03934   0.00000  Uiso   1.00
C146   C     0.89660   0.11128   0.08022   0.00000  Uiso   1.00
C147   C     0.84003   0.15365   0.08117   0.00000  Uiso   1.00
C148   C     0.99377   0.17628   0.23754   0.00000  Uiso   1.00
C149   C     0.67380   0.15744   0.26207   0.00000  Uiso   1.00
C150   C     0.75525   0.19526   0.41894   0.00000  Uiso   1.00
C151   C     0.84836   0.32274   0.23774   0.00000  Uiso   1.00
C152   C     0.81852   0.01203   0.26189   0.00000  Uiso   1.00
C153   C     0.82210   0.05618   0.25933   0.00000  Uiso   1.00
C154   C     0.84376   0.27780   0.24123   0.00000  Uiso   1.00
C155   C     0.85485   0.14540   0.14402   0.00000  Uiso   1.00
C156   C     0.81249   0.18795   0.35611   0.00000  Uiso   1.00
C157   C     0.79878   0.19136   0.39938   0.00000  Uiso   1.00
C158   C     0.86411   0.13676   0.10131   0.00000  Uiso   1.00
C159   C     0.73906   0.18987   0.45877   0.00000  Uiso   1.00
C160   C     0.89006   0.23250   0.42675   0.00000  Uiso   1.00
C161   C     0.82696   0.18472   0.42088   0.00000  Uiso   1.00
C162   C     0.80899   0.17195   0.45942   0.00000  Uiso   1.00
C163   C     0.76527   0.17727   0.47894   0.00000  Uiso   1.00
C164   C     0.83303   0.15390   0.47902   0.00000  Uiso   1.00
C165   C     0.81737   0.15150   0.02017   0.00000  Uiso   1.00
C166   C     0.77289   0.15521   0.03879   0.00000  Uiso   1.00
C167   C     0.74755   0.16830   0.01792   0.00000  Uiso   1.00
H168   H     0.71354   0.17076   0.03200   0.00000  Uiso   1.00
H169   H     0.81690   0.19458   0.12581   0.00000  Uiso   1.00
H170   H     0.91003   0.09749   0.12684   0.00000  Uiso   1.00
H171   H     0.95444   0.10848   0.46704   0.00000  Uiso   1.00
H172   H     0.88466   0.19626   0.37599   0.00000  Uiso   1.00
H173   H     0.87609   0.26040   0.42333   0.00000  Uiso   1.00
H174   H     0.92573   0.23755   0.41437   0.00000  Uiso   1.00
H175   H     0.88301   0.22872   0.45854   0.00000  Uiso   1.00
H176   H     0.72249   0.14529   0.08378   0.00000  Uiso   1.00
H177   H     0.93203   0.08637   0.02408   0.00000  Uiso   1.00
H178   H     0.68354   0.19362   0.21484   0.00000  Uiso   1.00
H179   H     0.98468   0.14006   0.28504   0.00000  Uiso   1.00
H180   H     0.79093   0.33158   0.28369   0.00000  Uiso   1.00
H181   H     0.70531   0.19321   0.47324   0.00000  Uiso   1.00
H182   H     0.73330   0.20116   0.40310   0.00000  Uiso   1.00
H183   H     0.88000   0.13068   0.42627   0.00000  Uiso   1.00
H184   H     0.90174   0.32120   0.19500   0.00000  Uiso   1.00
N185   N     0.87263   0.19573   0.40599   0.00000  Uiso   1.00
O186   O     0.83333   0.16667   0.25000   0.00000  Uiso   1.00
O187   O     0.82360   0.12393   0.16625   0.00000  Uiso   1.00
O188   O     0.79354   0.20646   0.33749   0.00000  Uiso   1.00
O189   O     0.87755   0.17493   0.15877   0.00000  Uiso   1.00
O190   O     0.83865   0.16135   0.33749   0.00000  Uiso   1.00
O191   O     0.88258   0.00883   0.21027   0.00000  Uiso   1.00
O192   O     0.81400   0.18486   0.09911   0.00000  Uiso   1.00
O193   O     0.92075   0.09275   0.09785   0.00000  Uiso   1.00
O194   O     0.93103   0.10109   0.45392   0.00000  Uiso   1.00
O195   O     0.75351   0.14102   0.07538   0.00000  Uiso   1.00
O196   O     0.84515   0.08101   0.27820   0.00000  Uiso   1.00
O197   O     0.81247   0.26136   0.26767   0.00000  Uiso   1.00
O198   O     0.74119   0.13251   0.23607   0.00000  Uiso   1.00
O199   O     0.93452   0.19179   0.21805   0.00000  Uiso   1.00
O200   O     0.73656   0.18960   0.27820   0.00000  Uiso   1.00
O201   O     0.92106   0.15277   0.26767   0.00000  Uiso   1.00
O202   O     0.80467   0.06903   0.23607   0.00000  Uiso   1.00
O203   O     0.87104   0.25527   0.21805   0.00000  Uiso   1.00
Zn204  Zn    0.85910   0.14090   0.28277   0.00000  Uiso   1.00
Zn205  Zn    0.80125   0.12378   0.22257   0.00000  Uiso   1.00
Zn206  Zn    0.87833   0.19664   0.21188   0.00000  Uiso   1.00
Zn207  Zn    0.79465   0.20535   0.28277   0.00000  Uiso   1.00
C208   C     0.05252   0.49324   0.25868   0.00000  Uiso   1.00
C209   C     0.20363   0.46822   0.45809   0.00000  Uiso   1.00
C210   C     0.22818   0.45192   0.47722   0.00000  Uiso   1.00
C211   C     0.28110   0.50692   0.24118   0.00000  Uiso   1.00
C212   C     0.21614   0.45516   0.01886   0.00000  Uiso   1.00
C213   C     0.17911   0.47496   0.04048   0.00000  Uiso   1.00
C214   C     0.23963   0.43849   0.03934   0.00000  Uiso   1.00
C215   C     0.22993   0.44461   0.08022   0.00000  Uiso   1.00
C216   C     0.17336   0.48698   0.08117   0.00000  Uiso   1.00
C217   C     0.32711   0.50961   0.23754   0.00000  Uiso   1.00
C218   C     0.00713   0.49078   0.26207   0.00000  Uiso   1.00
C219   C     0.08858   0.52859   0.41894   0.00000  Uiso   1.00
C220   C     0.18170   0.65607   0.23774   0.00000  Uiso   1.00
C221   C     0.15185   0.34537   0.26189   0.00000  Uiso   1.00
C222   C     0.15544   0.38951   0.25933   0.00000  Uiso   1.00
C223   C     0.17709   0.61114   0.24123   0.00000  Uiso   1.00
C224   C     0.18819   0.47874   0.14402   0.00000  Uiso   1.00
C225   C     0.14582   0.52128   0.35611   0.00000  Uiso   1.00
C226   C     0.13211   0.52470   0.39938   0.00000  Uiso   1.00
C227   C     0.19744   0.47009   0.10131   0.00000  Uiso   1.00
C228   C     0.07240   0.52320   0.45877   0.00000  Uiso   1.00
C229   C     0.22339   0.56583   0.42675   0.00000  Uiso   1.00
C230   C     0.16029   0.51805   0.42088   0.00000  Uiso   1.00
C231   C     0.14232   0.50528   0.45942   0.00000  Uiso   1.00
C232   C     0.09860   0.51060   0.47894   0.00000  Uiso   1.00
C233   C     0.16636   0.48724   0.47902   0.00000  Uiso   1.00
C234   C     0.15070   0.48483   0.02017   0.00000  Uiso   1.00
C235   C     0.10623   0.48855   0.03879   0.00000  Uiso   1.00
C236   C     0.08089   0.50164   0.01792   0.00000  Uiso   1.00
H237   H     0.04687   0.50410   0.03200   0.00000  Uiso   1.00
H238   H     0.15023   0.52791   0.12581   0.00000  Uiso   1.00
H239   H     0.24336   0.43083   0.12684   0.00000  Uiso   1.00
H240   H     0.28777   0.44181   0.46704   0.00000  Uiso   1.00
H241   H     0.21799   0.52959   0.37599   0.00000  Uiso   1.00
H242   H     0.20943   0.59373   0.42333   0.00000  Uiso   1.00
H243   H     0.25906   0.57089   0.41437   0.00000  Uiso   1.00
H244   H     0.21635   0.56206   0.45854   0.00000  Uiso   1.00
H245   H     0.05582   0.47862   0.08378   0.00000  Uiso   1.00
H246   H     0.26536   0.41971   0.02408   0.00000  Uiso   1.00
H247   H     0.01687   0.52695   0.21484   0.00000  Uiso   1.00
H248   H     0.31801   0.47339   0.28504   0.00000  Uiso   1.00
H249   H     0.12426   0.66491   0.28369   0.00000  Uiso   1.00
H250   H     0.03865   0.52655   0.47324   0.00000  Uiso   1.00
H251   H     0.06663   0.53450   0.40310   0.00000  Uiso   1.00
H252   H     0.21334   0.46402   0.42627   0.00000  Uiso   1.00
H253   H     0.23508   0.65453   0.19500   0.00000  Uiso   1.00
N254   N     0.20597   0.52907   0.40599   0.00000  Uiso   1.00
O255   O     0.16667   0.50000   0.25000   0.00000  Uiso   1.00
O256   O     0.15693   0.45726   0.16625   0.00000  Uiso   1.00
O257   O     0.12687   0.53979   0.33749   0.00000  Uiso   1.00
O258   O     0.21088   0.50826   0.15877   0.00000  Uiso   1.00
O259   O     0.17198   0.49468   0.33749   0.00000  Uiso   1.00
O260   O     0.21592   0.34217   0.21027   0.00000  Uiso   1.00
O261   O     0.14733   0.51819   0.09911   0.00000  Uiso   1.00
O262   O     0.25408   0.42608   0.09785   0.00000  Uiso   1.00
O263   O     0.26436   0.43443   0.45392   0.00000  Uiso   1.00
O264   O     0.08685   0.47435   0.07538   0.00000  Uiso   1.00
O265   O     0.17849   0.41434   0.27820   0.00000  Uiso   1.00
O266   O     0.14581   0.59469   0.26767   0.00000  Uiso   1.00
O267   O     0.07452   0.46584   0.23607   0.00000  Uiso   1.00
O268   O     0.26785   0.52512   0.21805   0.00000  Uiso   1.00
O269   O     0.06990   0.52293   0.27820   0.00000  Uiso   1.00
O270   O     0.25440   0.48610   0.26767   0.00000  Uiso   1.00
O271   O     0.13800   0.40236   0.23607   0.00000  Uiso   1.00
O272   O     0.20437   0.58860   0.21805   0.00000  Uiso   1.00
Zn273  Zn    0.19244   0.47423   0.28277   0.00000  Uiso   1.00
Zn274  Zn    0.13459   0.45711   0.22257   0.00000  Uiso   1.00
Zn275  Zn    0.21166   0.52997   0.21188   0.00000  Uiso   1.00
Zn276  Zn    0.12798   0.53868   0.28277   0.00000  Uiso   1.00
C277   C     0.38586   0.49324   0.25868   0.00000  Uiso   1.00
C278   C     0.53696   0.46822   0.45809   0.00000  Uiso   1.00
C279   C     0.56151   0.45192   0.47722   0.00000  Uiso   1.00
C280   C     0.61443   0.50692   0.24118   0.00000  Uiso   1.00
C281   C     0.54947   0.45516   0.01886   0.00000  Uiso   1.00
C282   C     0.51244   0.47496   0.04048   0.00000  Uiso   1.00
C283   C     0.57296   0.43849   0.03934   0.00000  Uiso   1.00
C284   C     0.56327   0.44461   0.08022   0.00000  Uiso   1.00
C285   C     0.50670   0.48698   0.08117   0.00000  Uiso   1.00
C286   C     0.66044   0.50961   0.23754   0.00000  Uiso   1.00
C287   C     0.34046   0.49078   0.26207   0.00000  Uiso   1.00
C288   C     0.42191   0.52859   0.41894   0.00000  Uiso   1.00
C289   C     0.51503   0.65607   0.23774   0.00000  Uiso   1.00
C290   C     0.48518   0.34537   0.26189   0.00000  Uiso   1.00
C291   C     0.48877   0.38951   0.25933   0.00000  Uiso   1.00
C292   C     0.51043   0.61114   0.24123   0.00000  Uiso   1.00
C293   C     0.52152   0.47874   0.14402   0.00000  Uiso   1.00
C294   C     0.47916   0.52128   0.35611   0.00000  Uiso   1.00
C295   C     0.46544   0.52470   0.39938   0.00000  Uiso   1.00
C296   C     0.53077   0.47009   0.10131   0.00000  Uiso   1.00
C297   C     0.40573   0.52320   0.45877   0.00000  Uiso   1.00
C298   C     0.55673   0.56583   0.42675   0.00000  Uiso   1.00
C299   C     0.49362   0.51805   0.42088   0.00000  Uiso   1.00
C300   C     0.47565   0.50528   0.45942   0.00000  Uiso   1.00
C301   C     0.43194   0.51060   0.47894   0.00000  Uiso   1.00
C302   C     0.49970   0.48724   0.47902   0.00000  Uiso   1.00
C303   C     0.48403   0.48483   0.02017   0.00000  Uiso   1.00
C304   C     0.43956   0.48855   0.03879   0.00000  Uiso   1.00
C305   C     0.41422   0.50164   0.01792   0.00000  Uiso   1.00
H306   H     0.38020   0.50410   0.03200   0.00000  Uiso   1.00
H307   H     0.48356   0.52791   0.12581   0.00000  Uiso   1.00
H308   H     0.57670   0.43083   0.12684   0.00000  Uiso   1.00
H309   H     0.62110   0.44181   0.46704   0.00000  Uiso   1.00
H310   H     0.55132   0.52959   0.37599   0.00000  Uiso   1.00
H311   H     0.54276   0.59373   0.42333   0.00000  Uiso   1.00
H312   H     0.59240   0.57089   0.41437   0.00000  Uiso   1.00
H313   H     0.54968   0.56206   0.45854   0.00000  Uiso   1.00
H314   H     0.38915   0.47862   0.08378   0.00000  Uiso   1.00
H315   H     0.59870   0.41971   0.02408   0.00000  Uiso   1.00
H316   H     0.35020   0.52695   0.21484   0.00000  Uiso   1.00
H317   H     0.65135   0.47339   0.28504   0.00000  Uiso   1.00
H318   H     0.45760   0.66491   0.28369   0.00000  Uiso   1.00
H319   H     0.37198   0.52655   0.47324   0.00000  Uiso   1.00
H320   H     0.39996   0.53450   0.40310   0.00000  Uiso   1.00
H321   H     0.54667   0.46402   0.42627   0.00000  Uiso   1.00
H322   H     0.56841   0.65453   0.19500   0.00000  Uiso   1.00
N323   N     0.53930   0.52907   0.40599   0.00000  Uiso   1.00
O324   O     0.50000   0.50000   0.25000   0.00000  Uiso   1.00
O325   O     0.49027   0.45726   0.16625   0.00000  Uiso   1.00
O326   O     0.46020   0.53979   0.33749   0.00000  Uiso   1.00
O327   O     0.54421   0.50826   0.15877   0.00000  Uiso   1.00
O328   O     0.50532   0.49468   0.33749   0.00000  Uiso   1.00
O329   O     0.54925   0.34217   0.21027   0.00000  Uiso   1.00
O330   O     0.48067   0.51819   0.09911   0.00000  Uiso   1.00
O331   O     0.58742   0.42608   0.09785   0.00000  Uiso   1.00
O332   O     0.59770   0.43443   0.45392   0.00000  Uiso   1.00
O333   O     0.42018   0.47435   0.07538   0.00000  Uiso   1.00
O334   O     0.51182   0.41434   0.27820   0.00000  Uiso   1.00
O335   O     0.47914   0.59469   0.26767   0.00000  Uiso   1.00
O336   O     0.40785   0.46584   0.23607   0.00000  Uiso   1.00
O337   O     0.60119   0.52512   0.21805   0.00000  Uiso   1.00
O338   O     0.40323   0.52293   0.27820   0.00000  Uiso   1.00
O339   O     0.58773   0.48610   0.26767   0.00000  Uiso   1.00
O340   O     0.47133   0.40236   0.23607   0.00000  Uiso   1.00
O341   O     0.53771   0.58860   0.21805   0.00000  Uiso   1.00
Zn342  Zn    0.52577   0.47423   0.28277   0.00000  Uiso   1.00
Zn343  Zn    0.46792   0.45711   0.22257   0.00000  Uiso   1.00
Zn344  Zn    0.54500   0.52997   0.21188   0.00000  Uiso   1.00
Zn345  Zn    0.46131   0.53868   0.28277   0.00000  Uiso   1.00
C346   C     0.71919   0.49324   0.25868   0.00000  Uiso   1.00
C347   C     0.87030   0.46822   0.45809   0.00000  Uiso   1.00
C348   C     0.89485   0.45192   0.47722   0.00000  Uiso   1.00
C349   C     0.94777   0.50692   0.24118   0.00000  Uiso   1.00
C350   C     0.88281   0.45516   0.01886   0.00000  Uiso   1.00
C351   C     0.84578   0.47496   0.04048   0.00000  Uiso   1.00
C352   C     0.90629   0.43849   0.03934   0.00000  Uiso   1.00
C353   C     0.89660   0.44461   0.08022   0.00000  Uiso   1.00
C354   C     0.84003   0.48698   0.08117   0.00000  Uiso   1.00
C355   C     0.99377   0.50961   0.23754   0.00000  Uiso   1.00
C356   C     0.67380   0.49078   0.26207   0.00000  Uiso   1.00
C357   C     0.75525   0.52859   0.41894   0.00000  Uiso   1.00
C358   C     0.84836   0.65607   0.23774   0.00000  Uiso   1.00
C359   C     0.81852   0.34537   0.26189   0.00000  Uiso   1.00
C360   C     0.82210   0.38951   0.25933   0.00000  Uiso   1.00
C361   C     0.84376   0.61114   0.24123   0.00000  Uiso   1.00
C362   C     0.85485   0.47874   0.14402   0.00000  Uiso   1.00
C363   C     0.81249   0.52128   0.35611   0.00000  Uiso   1.00
C364   C     0.79878   0.52470   0.39938   0.00000  Uiso   1.00
C365   C     0.86411   0.47009   0.10131   0.00000  Uiso   1.00
C366   C     0.73906   0.52320   0.45877   0.00000  Uiso   1.00
C367   C     0.89006   0.56583   0.42675   0.00000  Uiso   1.00
C368   C     0.82696   0.51805   0.42088   0.00000  Uiso   1.00
C369   C     0.80899   0.50528   0.45942   0.00000  Uiso   1.00
C370   C     0.76527   0.51060   0.47894   0.00000  Uiso   1.00
C371   C     0.83303   0.48724   0.47902   0.00000  Uiso   1.00
C372   C     0.81737   0.48483   0.02017   0.00000  Uiso   1.00
C373   C     0.77289   0.48855   0.03879   0.00000  Uiso   1.00
C374   C     0.74755   0.50164   0.01792   0.00000  Uiso   1.00
H375   H     0.71354   0.50410   0.03200   0.00000  Uiso   1.00
H376   H     0.81690   0.52791   0.12581   0.00000  Uiso   1.00
H377   H     0.91003   0.43083   0.12684   0.00000  Uiso   1.00
H378   H     0.95444   0.44181   0.46704   0.00000  Uiso   1.00
H379   H     0.88466   0.52959   0.37599   0.00000  Uiso   1.00
H380   H     0.87609   0.59373   0.42333   0.00000  Uiso   1.00
H381   H     0.92573   0.57089   0.41437   0.00000  Uiso   1.00
H382   H     0.88301   0.56206   0.45854   0.00000  Uiso   1.00
H383   H     0.72249   0.47862   0.08378   0.00000  Uiso   1.00
H384   H     0.93203   0.41971   0.02408   0.00000  Uiso   1.00
H385   H     0.68354   0.52695   0.21484   0.00000  Uiso   1.00
H386   H     0.98468   0.47339   0.28504   0.00000  Uiso   1.00
H387   H     0.79093   0.66491   0.28369   0.00000  Uiso   1.00
H388   H     0.70531   0.52655   0.47324   0.00000  Uiso   1.00
H389   H     0.73330   0.53450   0.40310   0.00000  Uiso   1.00
H390   H     0.88000   0.46402   0.42627   0.00000  Uiso   1.00
H391   H     0.90174   0.65453   0.19500   0.00000  Uiso   1.00
N392   N     0.87263   0.52907   0.40599   0.00000  Uiso   1.00
O393   O     0.83333   0.50000   0.25000   0.00000  Uiso   1.00
O394   O     0.82360   0.45726   0.16625   0.00000  Uiso   1.00
O395   O     0.79354   0.53979   0.33749   0.00000  Uiso   1.00
O396   O     0.87755   0.50826   0.15877   0.00000  Uiso   1.00
O397   O     0.83865   0.49468   0.33749   0.00000  Uiso   1.00
O398   O     0.88258   0.34217   0.21027   0.00000  Uiso   1.00
O399   O     0.81400   0.51819   0.09911   0.00000  Uiso   1.00
O400   O     0.92075   0.42608   0.09785   0.00000  Uiso   1.00
O401   O     0.93103   0.43443   0.45392   0.00000  Uiso   1.00
O402   O     0.75351   0.47435   0.07538   0.00000  Uiso   1.00
O403   O     0.84515   0.41434   0.27820   0.00000  Uiso   1.00
O404   O     0.81247   0.59469   0.26767   0.00000  Uiso   1.00
O405   O     0.74119   0.46584   0.23607   0.00000  Uiso   1.00
O406   O     0.93452   0.52512   0.21805   0.00000  Uiso   1.00
O407   O     0.73656   0.52293   0.27820   0.00000  Uiso   1.00
O408   O     0.92106   0.48610   0.26767   0.00000  Uiso   1.00
O409   O     0.80467   0.40236   0.23607   0.00000  Uiso   1.00
O410   O     0.87104   0.58860   0.21805   0.00000  Uiso   1.00
Zn411  Zn    0.85910   0.47423   0.28277   0.00000  Uiso   1.00
Zn412  Zn    0.80125   0.45711   0.22257   0.00000  Uiso   1.00
Zn413  Zn    0.87833   0.52997   0.21188   0.00000  Uiso   1.00
Zn414  Zn    0.79465   0.53868   0.28277   0.00000  Uiso   1.00
C415   C     0.05252   0.82658   0.25868   0.00000  Uiso   1.00
C416   C     0.20363   0.80156   0.45809   0.00000  Uiso   1.00
C417   C     0.22818   0.78526   0.47722   0.00000  Uiso   1.00
C418   C     0.28110   0.84025   0.24118   0.00000  Uiso   1.00
C419   C     0.21614   0.78849   0.01886   0.00000  Uiso   1.00
C420   C     0.17911   0.80829   0.04048   0.00000  Uiso   1.00
C421   C     0.23963   0.77183   0.03934   0.00000  Uiso   1.00
C422   C     0.22993   0.77794   0.08022   0.00000  Uiso   1.00
C423   C     0.17336   0.82032   0.08117   0.00000  Uiso   1.00
C424   C     0.32711   0.84294   0.23754   0.00000  Uiso   1.00
C425   C     0.00713   0.82411   0.26207   0.00000  Uiso   1.00
C426   C     0.08858   0.86193   0.41894   0.00000  Uiso   1.00
C427   C     0.18170   0.98940   0.23774   0.00000  Uiso   1.00
C428   C     0.15185   0.67870   0.26189   0.00000  Uiso   1.00
C429   C     0.15544   0.72285   0.25933   0.00000  Uiso   1.00
C430   C     0.17709   0.94447   0.24123   0.00000  Uiso   1.00
C431   C     0.18819   0.81207   0.14402   0.00000  Uiso   1.00
C432   C     0.14582   0.85462   0.35611   0.00000  Uiso   1.00
C433   C     0.13211   0.85803   0.39938   0.00000  Uiso   1.00
C434   C     0.19744   0.80343   0.10131   0.00000  Uiso   1.00
C435   C     0.07240   0.85654   0.45877   0.00000  Uiso   1.00
C436   C     0.22339   0.89917   0.42675   0.00000  Uiso   1.00
C437   C     0.16029   0.85138   0.42088   0.00000  Uiso   1.00
C438   C     0.14232   0.83862   0.45942   0.00000  Uiso   1.00
C439   C     0.09860   0.84393   0.47894   0.00000  Uiso   1.00
C440   C     0.16636   0.82057   0.47902   0.00000  Uiso   1.00
C441   C     0.15070   0.81816   0.02017   0.00000  Uiso   1.00
C442   C     0.10623   0.82188   0.03879   0.00000  Uiso   1.00
C443   C     0.08089   0.83497   0.01792   0.00000  Uiso   1.00
H444   H     0.04687   0.83743   0.03200   0.00000  Uiso   1.00
H445   H     0.15023   0.86125   0.12581   0.00000  Uiso   1.00
H446   H     0.24336   0.76416   0.12684   0.00000  Uiso   1.00
H447   H     0.28777   0.77514   0.46704   0.00000  Uiso   1.00
H448   H     0.21799   0.86293   0.37599   0.00000  Uiso   1.00
H449   H     0.20943   0.92707   0.42333   0.00000  Uiso   1.00
H450   H     0.25906   0.90422   0.41437   0.00000  Uiso   1.00
H451   H     0.21635   0.89539   0.45854   0.00000  Uiso   1.00
H452   H     0.05582   0.81196   0.08378   0.00000  Uiso   1.00
H453   H     0.26536   0.75304   0.02408   0.00000  Uiso   1.00
H454   H     0.01687   0.86028   0.21484   0.00000  Uiso   1.00
H455   H     0.31801   0.80672   0.28504   0.00000  Uiso   1.00
H456   H     0.12426   0.99824   0.28369   0.00000  Uiso   1.00
H457   H     0.03865   0.85988   0.47324   0.00000  Uiso   1.00
H458   H     0.06663   0.86783   0.40310   0.00000  Uiso   1.00
H459   H     0.21334   0.79735   0.42627   0.00000  Uiso   1.00
H460   H     0.23508   0.98787   0.19500   0.00000  Uiso   1.00
N461   N     0.20597   0.86240   0.40599   0.00000  Uiso   1.00
O462   O     0.16667   0.83333   0.25000   0.00000  Uiso   1.00
O463   O     0.15693   0.79060   0.16625   0.00000  Uiso   1.00
O464   O     0.12687   0.87313   0.33749   0.00000  Uiso   1.00
O465   O     0.21088   0.84159   0.15877   0.00000  Uiso   1.00
O466   O     0.17198   0.82802   0.33749   0.00000  Uiso   1.00
O467   O     0.21592   0.67550   0.21027   0.00000  Uiso   1.00
O468   O     0.14733   0.85153   0.09911   0.00000  Uiso   1.00
O469   O     0.25408   0.75942   0.09785   0.00000  Uiso   1.00
O470   O     0.26436   0.76776   0.45392   0.00000  Uiso   1.00
O471   O     0.08685   0.80768   0.07538   0.00000  Uiso   1.00
O472   O     0.17849   0.74768   0.27820   0.00000  Uiso   1.00
O473   O     0.14581   0.92803   0.26767   0.00000  Uiso   1.00
O474   O     0.07452   0.79917   0.23607   0.00000  Uiso   1.00
O475   O     0.26785   0.85845   0.21805   0.00000  Uiso   1.00
O476   O     0.06990   0.85627   0.27820   0.00000  Uiso   1.00
O477   O     0.25440   0.81944   0.26767   0.00000  Uiso   1.00
O478   O     0.13800   0.73570   0.23607   0.00000  Uiso   1.00
O479   O     0.20437   0.92193   0.21805   0.00000  Uiso   1.00
Zn480  Zn    0.19244   0.80756   0.28277   0.00000  Uiso   1.00
Zn481  Zn    0.13459   0.79044   0.22257   0.00000  Uiso   1.00
Zn482  Zn    0.21166   0.86331   0.21188   0.00000  Uiso   1.00
Zn483  Zn    0.12798   0.87202   0.28277   0.00000  Uiso   1.00
C484   C     0.38586   0.82658   0.25868   0.00000  Uiso   1.00
C485   C     0.53696   0.80156   0.45809   0.00000  Uiso   1.00
C486   C     0.56151   0.78526   0.47722   0.00000  Uiso   1.00
C487   C     0.61443   0.84025   0.24118   0.00000  Uiso   1.00
C488   C     0.54947   0.78849   0.01886   0.00000  Uiso   1.00
C489   C     0.51244   0.80829   0.04048   0.00000  Uiso   1.00
C490   C     0.57296   0.77183   0.03934   0.00000  Uiso   1.00
C491   C     0.56327   0.77794   0.08022   0.00000  Uiso   1.00
C492   C     0.50670   0.82032   0.08117   0.00000  Uiso   1.00
C493   C     0.66044   0.84294   0.23754   0.00000  Uiso   1.00
C494   C     0.34046   0.82411   0.26207   0.00000  Uiso   1.00
C495   C     0.42191   0.86193   0.41894   0.00000  Uiso   1.00
C496   C     0.51503   0.98940   0.23774   0.00000  Uiso   1.00
C497   C     0.48518   0.67870   0.26189   0.00000  Uiso   1.00
C498   C     0.48877   0.72285   0.25933   0.00000  Uiso   1.00
C499   C     0.51043   0.94447   0.24123   0.00000  Uiso   1.00
C500   C     0.52152   0.81207   0.14402   0.00000  Uiso   1.00
C501   C     0.47916   0.85462   0.35611   0.00000  Uiso   1.00
C502   C     0.46544   0.85803   0.39938   0.00000  Uiso   1.00
C503   C     0.53077   0.80343   0.10131   0.00000  Uiso   1.00
C504   C     0.40573   0.85654   0.45877   0.00000  Uiso   1.00
C505   C     0.55673   0.89917   0.42675   0.00000  Uiso   1.00
C506   C     0.49362   0.85138   0.42088   0.00000  Uiso   1.00
C507   C     0.47565   0.83862   0.45942   0.00000  Uiso   1.00
C508   C     0.43194   0.84393   0.47894   0.00000  Uiso   1.00
C509   C     0.49970   0.82057   0.47902   0.00000  Uiso   1.00
C510   C     0.48403   0.81816   0.02017   0.00000  Uiso   1.00
C511   C     0.43956   0.82188   0.03879   0.00000  Uiso   1.00
C512   C     0.41422   0.83497   0.01792   0.00000  Uiso   1.00
H513   H     0.38020   0.83743   0.03200   0.00000  Uiso   1.00
H514   H     0.48356   0.86125   0.12581   0.00000  Uiso   1.00
H515   H     0.57670   0.76416   0.12684   0.00000  Uiso   1.00
H516   H     0.62110   0.77514   0.46704   0.00000  Uiso   1.00
H517   H     0.55132   0.86293   0.37599   0.00000  Uiso   1.00
H518   H     0.54276   0.92707   0.42333   0.00000  Uiso   1.00
H519   H     0.59240   0.90422   0.41437   0.00000  Uiso   1.00
H520   H     0.54968   0.89539   0.45854   0.00000  Uiso   1.00
H521   H     0.38915   0.81196   0.08378   0.00000  Uiso   1.00
H522   H     0.59870   0.75304   0.02408   0.00000  Uiso   1.00
H523   H     0.35020   0.86028   0.21484   0.00000  Uiso   1.00
H524   H     0.65135   0.80672   0.28504   0.00000  Uiso   1.00
H525   H     0.45760   0.99824   0.28369   0.00000  Uiso   1.00
H526   H     0.37198   0.85988   0.47324   0.00000  Uiso   1.00
H527   H     0.39996   0.86783   0.40310   0.00000  Uiso   1.00
H528   H     0.54667   0.79735   0.42627   0.00000  Uiso   1.00
H529   H     0.56841   0.98787   0.19500   0.00000  Uiso   1.00
N530   N     0.53930   0.86240   0.40599   0.00000  Uiso   1.00
O531   O     0.50000   0.83333   0.25000   0.00000  Uiso   1.00
O532   O     0.49027   0.79060   0.16625   0.00000  Uiso   1.00
O533   O     0.46020   0.87313   0.33749   0.00000  Uiso   1.00
O534   O     0.54421   0.84159   0.15877   0.00000  Uiso   1.00
O535   O     0.50532   0.82802   0.33749   0.00000  Uiso   1.00
O536   O     0.54925   0.67550   0.21027   0.00000  Uiso   1.00
O537   O     0.48067   0.85153   0.09911   0.00000  Uiso   1.00
O538   O     0.58742   0.75942   0.09785   0.00000  Uiso   1.00
O539   O     0.59770   0.76776   0.45392   0.00000  Uiso   1.00
O540   O     0.42018   0.80768   0.07538   0.00000  Uiso   1.00
O541   O     0.51182   0.74768   0.27820   0.00000  Uiso   1.00
O542   O     0.47914   0.92803   0.26767   0.00000  Uiso   1.00
O543   O     0.40785   0.79917   0.23607   0.00000  Uiso   1.00
O544   O     0.60119   0.85845   0.21805   0.00000  Uiso   1.00
O545   O     0.40323   0.85627   0.27820   0.00000  Uiso   1.00
O546   O     0.58773   0.81944   0.26767   0.00000  Uiso   1.00
O547   O     0.47133   0.73570   0.23607   0.00000  Uiso   1.00
O548   O     0.53771   0.92193   0.21805   0.00000  Uiso   1.00
Zn549  Zn    0.52577   0.80756   0.28277   0.00000  Uiso   1.00
Zn550  Zn    0.46792   0.79044   0.22257   0.00000  Uiso   1.00
Zn551  Zn    0.54500   0.86331   0.21188   0.00000  Uiso   1.00
Zn552  Zn    0.46131   0.87202   0.28277   0.00000  Uiso   1.00
C553   C     0.71919   0.82658   0.25868   0.00000  Uiso   1.00
C554   C     0.87030   0.80156   0.45809   0.00000  Uiso   1.00
C555   C     0.89485   0.78526   0.47722   0.00000  Uiso   1.00
C556   C     0.94777   0.84025   0.24118   0.00000  Uiso   1.00
C557   C     0.88281   0.78849   0.01886   0.00000  Uiso   1.00
C558   C     0.84578   0.80829   0.04048   0.00000  Uiso   1.00
C559   C     0.90629   0.77183   0.03934   0.00000  Uiso   1.00
C560   C     0.89660   0.77794   0.08022   0.00000  Uiso   1.00
C561   C     0.84003   0.82032   0.08117   0.00000  Uiso   1.00
C562   C     0.99377   0.84294   0.23754   0.00000  Uiso   1.00
C563   C     0.67380   0.82411   0.26207   0.00000  Uiso   1.00
C564   C     0.75525   0.86193   0.41894   0.00000  Uiso   1.00
C565   C     0.84836   0.98940   0.23774   0.00000  Uiso   1.00
C566   C     0.81852   0.67870   0.26189   0.00000  Uiso   1.00
C567   C     0.82210   0.72285   0.25933   0.00000  Uiso   1.00
C568   C     0.84376   0.94447   0.24123   0.00000  Uiso   1.00
C569   C     0.85485   0.81207   0.14402   0.00000  Uiso   1.00
C570   C     0.81249   0.85462   0.35611   0.00000  Uiso   1.00
C571   C     0.79878   0.85803   0.39938   0.00000  Uiso   1.00
C572   C     0.86411   0.80343   0.10131   0.00000  Uiso   1.00
C573   C     0.73906   0.85654   0.45877   0.00000  Uiso   1.00
C574   C     0.89006   0.89917   0.42675   0.00000  Uiso   1.00
C575   C     0.82696   0.85138   0.42088   0.00000  Uiso   1.00
C576   C     0.80899   0.83862   0.45942   0.00000  Uiso   1.00
C577   C     0.76527   0.84393   0.47894   0.00000  Uiso   1.00
C578   C     0.83303   0.82057   0.47902   0.00000  Uiso   1.00
C579   C     0.81737   0.81816   0.02017   0.00000  Uiso   1.00
C580   C     0.77289   0.82188   0.03879   0.00000  Uiso   1.00
C581   C     0.74755   0.83497   0.01792   0.00000  Uiso   1.00
H582   H     0.71354   0.83743   0.03200   0.00000  Uiso   1.00
H583   H     0.81690   0.86125   0.12581   0.00000  Uiso   1.00
H584   H     0.91003   0.76416   0.12684   0.00000  Uiso   1.00
H585   H     0.95444   0.77514   0.46704   0.00000  Uiso   1.00
H586   H     0.88466   0.86293   0.37599   0.00000  Uiso   1.00
H587   H     0.87609   0.92707   0.42333   0.00000  Uiso   1.00
H588   H     0.92573   0.90422   0.41437   0.00000  Uiso   1.00
H589   H     0.88301   0.89539   0.45854   0.00000  Uiso   1.00
H590   H     0.72249   0.81196   0.08378   0.00000  Uiso   1.00
H591   H     0.93203   0.75304   0.02408   0.00000  Uiso   1.00
H592   H     0.68354   0.86028   0.21484   0.00000  Uiso   1.00
H593   H     0.98468   0.80672   0.28504   0.00000  Uiso   1.00
H594   H     0.79093   0.99824   0.28369   0.00000  Uiso   1.00
H595   H     0.70531   0.85988   0.47324   0.00000  Uiso   1.00
H596   H     0.73330   0.86783   0.40310   0.00000  Uiso   1.00
H597   H     0.88000   0.79735   0.42627   0.00000  Uiso   1.00
H598   H     0.90174   0.98787   0.19500   0.00000  Uiso   1.00
N599   N     0.87263   0.86240   0.40599   0.00000  Uiso   1.00
O600   O     0.83333   0.83333   0.25000   0.00000  Uiso   1.00
O601   O     0.82360   0.79060   0.16625   0.00000  Uiso   1.00
O602   O     0.79354   0.87313   0.33749   0.00000  Uiso   1.00
O603   O     0.87755   0.84159   0.15877   0.00000  Uiso   1.00
O604   O     0.83865   0.82802   0.33749   0.00000  Uiso   1.00
O605   O     0.88258   0.67550   0.21027   0.00000  Uiso   1.00
O606   O     0.81400   0.85153   0.09911   0.00000  Uiso   1.00
O607   O     0.92075   0.75942   0.09785   0.00000  Uiso   1.00
O608   O     0.93103   0.76776   0.45392   0.00000  Uiso   1.00
O609   O     0.75351   0.80768   0.07538   0.00000  Uiso   1.00
O610   O     0.84515   0.74768   0.27820   0.00000  Uiso   1.00
O611   O     0.81247   0.92803   0.26767   0.00000  Uiso   1.00
O612   O     0.74119   0.79917   0.23607   0.00000  Uiso   1.00
O613   O     0.93452   0.85845   0.21805   0.00000  Uiso   1.00
O614   O     0.73656   0.85627   0.27820   0.00000  Uiso   1.00
O615   O     0.92106   0.81944   0.26767   0.00000  Uiso   1.00
O616   O     0.80467   0.73570   0.23607   0.00000  Uiso   1.00
O617   O     0.87104   0.92193   0.21805   0.00000  Uiso   1.00
Zn618  Zn    0.85910   0.80756   0.28277   0.00000  Uiso   1.00
Zn619  Zn    0.80125   0.79044   0.22257   0.00000  Uiso   1.00
Zn620  Zn    0.87833   0.86331   0.21188   0.00000  Uiso   1.00
Zn621  Zn    0.79465   0.87202   0.28277   0.00000  Uiso   1.00
C622   C     0.05252   0.15991   0.75868   0.00000  Uiso   1.00
C623   C     0.20363   0.13489   0.95809   0.00000  Uiso   1.00
C624   C     0.22818   0.11859   0.97722   0.00000  Uiso   1.00
C625   C     0.28110   0.17359   0.74118   0.00000  Uiso   1.00
C626   C     0.21614   0.12182   0.51886   0.00000  Uiso   1.00
C627   C     0.17911   0.14162   0.54048   0.00000  Uiso   1.00
C628   C     0.23963   0.10516   0.53934   0.00000  Uiso   1.00
C629   C     0.22993   0.11128   0.58022   0.00000  Uiso   1.00
C630   C     0.17336   0.15365   0.58117   0.00000  Uiso   1.00
C631   C     0.32711   0.17628   0.73754   0.00000  Uiso   1.00
C632   C     0.00713   0.15744   0.76207   0.00000  Uiso   1.00
C633   C     0.08858   0.19526   0.91894   0.00000  Uiso   1.00
C634   C     0.18170   0.32274   0.73774   0.00000  Uiso   1.00
C635   C     0.15185   0.01203   0.76189   0.00000  Uiso   1.00
C636   C     0.15544   0.05618   0.75933   0.00000  Uiso   1.00
C637   C     0.17709   0.27780   0.74123   0.00000  Uiso   1.00
C638   C     0.18819   0.14540   0.64402   0.00000  Uiso   1.00
C639   C     0.14582   0.18795   0.85611   0.00000  Uiso   1.00
C640   C     0.13211   0.19136   0.89938   0.00000  Uiso   1.00
C641   C     0.19744   0.13676   0.60131   0.00000  Uiso   1.00
C642   C     0.07240   0.18987   0.95877   0.00000  Uiso   1.00
C643   C     0.22339   0.23250   0.92675   0.00000  Uiso   1.00
C644   C     0.16029   0.18472   0.92088   0.00000  Uiso   1.00
C645   C     0.14232   0.17195   0.95942   0.00000  Uiso   1.00
C646   C     0.09860   0.17727   0.97894   0.00000  Uiso   1.00
C647   C     0.16636   0.15390   0.97902   0.00000  Uiso   1.00
C648   C     0.15070   0.15150   0.52017   0.00000  Uiso   1.00
C649   C     0.10623   0.15521   0.53879   0.00000  Uiso   1.00
C650   C     0.08089   0.16830   0.51792   0.00000  Uiso   1.00
H651   H     0.04687   0.17076   0.53200   0.00000  Uiso   1.00
H652   H     0.15023   0.19458   0.62581   0.00000  Uiso   1.00
H653   H     0.24336   0.09749   0.62684   0.00000  Uiso   1.00
H654   H     0.28777   0.10848   0.96704   0.00000  Uiso   1.00
H655   H     0.21799   0.19626   0.87599   0.00000  Uiso   1.00
H656   H     0.20943   0.26040   0.92333   0.00000  Uiso   1.00
H657   H     0.25906   0.23755   0.91437   0.00000  Uiso   1.00
H658   H     0.21635   0.22872   0.95854   0.00000  Uiso   1.00
H659   H     0.05582   0.14529   0.58378   0.00000  Uiso   1.00
H660   H     0.26536   0.08637   0.52408   0.00000  Uiso   1.00
H661   H     0.01687   0.19362   0.71484   0.00000  Uiso   1.00
H662   H     0.31801   0.14006   0.78504   0.00000  Uiso   1.00
H663   H     0.12426   0.33158   0.78369   0.00000  Uiso   1.00
H664   H     0.03865   0.19321   0.97324   0.00000  Uiso   1.00
H665   H     0.06663   0.20116   0.90310   0.00000  Uiso   1.00
H666   H     0.21334   0.13068   0.92627   0.00000  Uiso   1.00
H667   H     0.23508   0.32120   0.69500   0.00000  Uiso   1.00
N668   N     0.20597   0.19573   0.90599   0.00000  Uiso   1.00
O669   O     0.16667   0.16667   0.75000   0.00000  Uiso   1.00
O670   O     0.15693   0.12393   0.66625   0.00000  Uiso   1.00
O671   O     0.12687   0.20646   0.83749   0.00000  Uiso   1.00
O672   O     0.21088   0.17493   0.65877   0.00000  Uiso   1.00
O673   O     0.17198   0.16135   0.83749   0.00000  Uiso   1.00
O674   O     0.21592   0.00883   0.71027   0.00000  Uiso   1.00
O675   O     0.14733   0.18486   0.59911   0.00000  Uiso   1.00
O676   O     0.25408   0.09275   0.59785   0.00000  Uiso   1.00
O677   O     0.26436   0.10109   0.95392   0.00000  Uiso   1.00
O678   O     0.08685   0.14102   0.57538   0.00000  Uiso   1.00
O679   O     0.17849   0.08101   0.77820   0.00000  Uiso   1.00
O680   O     0.14581   0.26136   0.76767   0.00000  Uiso   1.00
O681   O     0.07452   0.13251   0.73607   0.00000  Uiso   1.00
O682   O     0.26785   0.19179   0.71805   0.00000  Uiso   1.00
O683   O     0.06990   0.18960   0.77820   0.00000  Uiso   1.00
O684   O     0.25440   0.15277   0.76767   0.00000  Uiso   1.00
O685   O     0.13800   0.06903   0.73607   0.00000  Uiso   1.00
O686   O     0.20437   0.25527   0.71805   0.00000  Uiso   1.00
Zn687  Zn    0.19244   0.14090   0.78277   0.00000  Uiso   1.00
Zn688  Zn    0.13459   0.12378   0.72257   0.00000  Uiso   1.00
Zn689  Zn    0.21166   0.19664   0.71188   0.00000  Uiso   1.00
Zn690  Zn    0.12798   0.20535   0.78277   0.00000  Uiso   1.00
C691   C     0.38586   0.15991   0.75868   0.00000  Uiso   1.00
C692   C     0.53696   0.13489   0.95809   0.00000  Uiso   1.00
C693   C     0.56151   0.11859   0.97722   0.00000  Uiso   1.00
C694   C     0.61443   0.17359   0.74118   0.00000  Uiso   1.00
C695   C     0.54947   0.12182   0.51886   0.00000  Uiso   1.00
C696   C     0.51244   0.14162   0.54048   0.00000  Uiso   1.00
C697   C     0.57296   0.10516   0.53934   0.00000  Uiso   1.00
C698   C     0.56327   0.11128   0.58022   0.00000  Uiso   1.00
C699   C     0.50670   0.15365   0.58117   0.00000  Uiso   1.00
C700   C     0.66044   0.17628   0.73754   0.00000  Uiso   1.00
C701   C     0.34046   0.15744   0.76207   0.00000  Uiso   1.00
C702   C     0.42191   0.19526   0.91894   0.00000  Uiso   1.00
C703   C     0.51503   0.32274   0.73774   0.00000  Uiso   1.00
C704   C     0.48518   0.01203   0.76189   0.00000  Uiso   1.00
C705   C     0.48877   0.05618   0.75933   0.00000  Uiso   1.00
C706   C     0.51043   0.27780   0.74123   0.00000  Uiso   1.00
C707   C     0.52152   0.14540   0.64402   0.00000  Uiso   1.00
C708   C     0.47916   0.18795   0.85611   0.00000  Uiso   1.00
C709   C     0.46544   0.19136   0.89938   0.00000  Uiso   1.00
C710   C     0.53077   0.13676   0.60131   0.00000  Uiso   1.00
C711   C     0.40573   0.18987   0.95877   0.00000  Uiso   1.00
C712   C     0.55673   0.23250   0.92675   0.00000  Uiso   1.00
C713   C     0.49362   0.18472   0.92088   0.00000  Uiso   1.00
C714   C     0.47565   0.17195   0.95942   0.00000  Uiso   1.00
C715   C     0.43194   0.17727   0.97894   0.00000  Uiso   1.00
C716   C     0.49970   0.15390   0.97902   0.00000  Uiso   1.00
C717   C     0.48403   0.15150   0.52017   0.00000  Uiso   1.00
C718   C     0.43956   0.15521   0.53879   0.00000  Uiso   1.00
C719   C     0.41422   0.16830   0.51792   0.00000  Uiso   1.00
H720   H     0.38020   0.17076   0.53200   0.00000  Uiso   1.00
H721   H     0.48356   0.19458   0.62581   0.00000  Uiso   1.00
H722   H     0.57670   0.09749   0.62684   0.00000  Uiso   1.00
H723   H     0.62110   0.10848   0.96704   0.00000  Uiso   1.00
H724   H     0.55132   0.19626   0.87599   0.00000  Uiso   1.00
H725   H     0.54276   0.26040   0.92333   0.00000  Uiso   1.00
H726   H     0.59240   0.23755   0.91437   0.00000  Uiso   1.00
H727   H     0.54968   0.22872   0.95854   0.00000  Uiso   1.00
H728   H     0.38915   0.14529   0.58378   0.00000  Uiso   1.00
H729   H     0.59870   0.08637   0.52408   0.00000  Uiso   1.00
H730   H     0.35020   0.19362   0.71484   0.00000  Uiso   1.00
H731   H     0.65135   0.14006   0.78504   0.00000  Uiso   1.00
H732   H     0.45760   0.33158   0.78369   0.00000  Uiso   1.00
H733   H     0.37198   0.19321   0.97324   0.00000  Uiso   1.00
H734   H     0.39996   0.20116   0.90310   0.00000  Uiso   1.00
H735   H     0.54667   0.13068   0.92627   0.00000  Uiso   1.00
H736   H     0.56841   0.32120   0.69500   0.00000  Uiso   1.00
N737   N     0.53930   0.19573   0.90599   0.00000  Uiso   1.00
O738   O     0.50000   0.16667   0.75000   0.00000  Uiso   1.00
O739   O     0.49027   0.12393   0.66625   0.00000  Uiso   1.00
O740   O     0.46020   0.20646   0.83749   0.00000  Uiso   1.00
O741   O     0.54421   0.17493   0.65877   0.00000  Uiso   1.00
O742   O     0.50532   0.16135   0.83749   0.00000  Uiso   1.00
O743   O     0.54925   0.00883   0.71027   0.00000  Uiso   1.00
O744   O     0.48067   0.18486   0.59911   0.00000  Uiso   1.00
O745   O     0.58742   0.09275   0.59785   0.00000  Uiso   1.00
O746   O     0.59770   0.10109   0.95392   0.00000  Uiso   1.00
O747   O     0.42018   0.14102   0.57538   0.00000  Uiso   1.00
O748   O     0.51182   0.08101   0.77820   0.00000  Uiso   1.00
O749   O     0.47914   0.26136   0.76767   0.00000  Uiso   1.00
O750   O     0.40785   0.13251   0.73607   0.00000  Uiso   1.00
O751   O     0.60119   0.19179   0.71805   0.00000  Uiso   1.00
O752   O     0.40323   0.18960   0.77820   0.00000  Uiso   1.00
O753   O     0.58773   0.15277   0.76767   0.00000  Uiso   1.00
O754   O     0.47133   0.06903   0.73607   0.00000  Uiso   1.00
O755   O     0.53771   0.25527   0.71805   0.00000  Uiso   1.00
Zn756  Zn    0.52577   0.14090   0.78277   0.00000  Uiso   1.00
Zn757  Zn    0.46792   0.12378   0.72257   0.00000  Uiso   1.00
Zn758  Zn    0.54500   0.19664   0.71188   0.00000  Uiso   1.00
Zn759  Zn    0.46131   0.20535   0.78277   0.00000  Uiso   1.00
C760   C     0.71919   0.15991   0.75868   0.00000  Uiso   1.00
C761   C     0.87030   0.13489   0.95809   0.00000  Uiso   1.00
C762   C     0.89485   0.11859   0.97722   0.00000  Uiso   1.00
C763   C     0.94777   0.17359   0.74118   0.00000  Uiso   1.00
C764   C     0.88281   0.12182   0.51886   0.00000  Uiso   1.00
C765   C     0.84578   0.14162   0.54048   0.00000  Uiso   1.00
C766   C     0.90629   0.10516   0.53934   0.00000  Uiso   1.00
C767   C     0.89660   0.11128   0.58022   0.00000  Uiso   1.00
C768   C     0.84003   0.15365   0.58117   0.00000  Uiso   1.00
C769   C     0.99377   0.17628   0.73754   0.00000  Uiso   1.00
C770   C     0.67380   0.15744   0.76207   0.00000  Uiso   1.00
C771   C     0.75525   0.19526   0.91894   0.00000  Uiso   1.00
C772   C     0.84836   0.32274   0.73774   0.00000  Uiso   1.00
C773   C     0.81852   0.01203   0.76189   0.00000  Uiso   1.00
C774   C     0.82210   0.05618   0.75933   0.00000  Uiso   1.00
C775   C     0.84376   0.27780   0.74123   0.00000  Uiso   1.00
C776   C     0.85485   0.14540   0.64402   0.00000  Uiso   1.00
C777   C     0.81249   0.18795   0.85611   0.00000  Uiso   1.00
C778   C     0.79878   0.19136   0.89938   0.00000  Uiso   1.00
C779   C     0.86411   0.13676   0.60131   0.00000  Uiso   1.00
C780   C     0.73906   0.18987   0.95877   0.00000  Uiso   1.00
C781   C     0.89006   0.23250   0.92675   0.00000  Uiso   1.00
C782   C     0.82696   0.18472   0.92088   0.00000  Uiso   1.00
C783   C     0.80899   0.17195   0.95942   0.00000  Uiso   1.00
C784   C     0.76527   0.17727   0.97894   0.00000  Uiso   1.00
C785   C     0.83303   0.15390   0.97902   0.00000  Uiso   1.00
C786   C     0.81737   0.15150   0.52017   0.00000  Uiso   1.00
C787   C     0.77289   0.15521   0.53879   0.00000  Uiso   1.00
C788   C     0.74755   0.16830   0.51792   0.00000  Uiso   1.00
H789   H     0.71354   0.17076   0.53200   0.00000  Uiso   1.00
H790   H     0.81690   0.19458   0.62581   0.00000  Uiso   1.00
H791   H     0.91003   0.09749   0.62684   0.00000  Uiso   1.00
H792   H     0.95444   0.10848   0.96704   0.00000  Uiso   1.00
H793   H     0.88466   0.19626   0.87599   0.00000  Uiso   1.00
H794   H     0.87609   0.26040   0.92333   0.00000  Uiso   1.00
H795   H     0.92573   0.23755   0.91437   0.00000  Uiso   1.00
H796   H     0.88301   0.22872   0.95854   0.00000  Uiso   1.00
H797   H     0.72249   0.14529   0.58378   0.00000  Uiso   1.00
H798   H     0.93203   0.08637   0.52408   0.00000  Uiso   1.00
H799   H     0.68354   0.19362   0.71484   0.00000  Uiso   1.00
H800   H     0.98468   0.14006   0.78504   0.00000  Uiso   1.00
H801   H     0.79093   0.33158   0.78369   0.00000  Uiso   1.00
H802   H     0.70531   0.19321   0.97324   0.00000  Uiso   1.00
H803   H     0.73330   0.20116   0.90310   0.00000  Uiso   1.00
H804   H     0.88000   0.13068   0.92627   0.00000  Uiso   1.00
H805   H     0.90174   0.32120   0.69500   0.00000  Uiso   1.00
N806   N     0.87263   0.19573   0.90599   0.00000  Uiso   1.00
O807   O     0.83333   0.16667   0.75000   0.00000  Uiso   1.00
O808   O     0.82360   0.12393   0.66625   0.00000  Uiso   1.00
O809   O     0.79354   0.20646   0.83749   0.00000  Uiso   1.00
O810   O     0.87755   0.17493   0.65877   0.00000  Uiso   1.00
O811   O     0.83865   0.16135   0.83749   0.00000  Uiso   1.00
O812   O     0.88258   0.00883   0.71027   0.00000  Uiso   1.00
O813   O     0.81400   0.18486   0.59911   0.00000  Uiso   1.00
O814   O     0.92075   0.09275   0.59785   0.00000  Uiso   1.00
O815   O     0.93103   0.10109   0.95392   0.00000  Uiso   1.00
O816   O     0.75351   0.14102   0.57538   0.00000  Uiso   1.00
O817   O     0.84515   0.08101   0.77820   0.00000  Uiso   1.00
O818   O     0.81247   0.26136   0.76767   0.00000  Uiso   1.00
O819   O     0.74119   0.13251   0.73607   0.00000  Uiso   1.00
O820   O     0.93452   0.19179   0.71805   0.00000  Uiso   1.00
O821   O     0.73656   0.18960   0.77820   0.00000  Uiso   1.00
O822   O     0.92106   0.15277   0.76767   0.00000  Uiso   1.00
O823   O     0.80467   0.06903   0.73607   0.00000  Uiso   1.00
O824   O     0.87104   0.25527   0.71805   0.00000  Uiso   1.00
Zn825  Zn    0.85910   0.14090   0.78277   0.00000  Uiso   1.00
Zn826  Zn    0.80125   0.12378   0.72257   0.00000  Uiso   1.00
Zn827  Zn    0.87833   0.19664   0.71188   0.00000  Uiso   1.00
Zn828  Zn    0.79465   0.20535   0.78277   0.00000  Uiso   1.00
C829   C     0.05252   0.49324   0.75868   0.00000  Uiso   1.00
C830   C     0.20363   0.46822   0.95809   0.00000  Uiso   1.00
C831   C     0.22818   0.45192   0.97722   0.00000  Uiso   1.00
C832   C     0.28110   0.50692   0.74118   0.00000  Uiso   1.00
C833   C     0.21614   0.45516   0.51886   0.00000  Uiso   1.00
C834   C     0.17911   0.47496   0.54048   0.00000  Uiso   1.00
C835   C     0.23963   0.43849   0.53934   0.00000  Uiso   1.00
C836   C     0.22993   0.44461   0.58022   0.00000  Uiso   1.00
C837   C     0.17336   0.48698   0.58117   0.00000  Uiso   1.00
C838   C     0.32711   0.50961   0.73754   0.00000  Uiso   1.00
C839   C     0.00713   0.49078   0.76207   0.00000  Uiso   1.00
C840   C     0.08858   0.52859   0.91894   0.00000  Uiso   1.00
C841   C     0.18170   0.65607   0.73774   0.00000  Uiso   1.00
C842   C     0.15185   0.34537   0.76189   0.00000  Uiso   1.00
C843   C     0.15544   0.38951   0.75933   0.00000  Uiso   1.00
C844   C     0.17709   0.61114   0.74123   0.00000  Uiso   1.00
C845   C     0.18819   0.47874   0.64402   0.00000  Uiso   1.00
C846   C     0.14582   0.52128   0.85611   0.00000  Uiso   1.00
C847   C     0.13211   0.52470   0.89938   0.00000  Uiso   1.00
C848   C     0.19744   0.47009   0.60131   0.00000  Uiso   1.00
C849   C     0.07240   0.52320   0.95877   0.00000  Uiso   1.00
C850   C     0.22339   0.56583   0.92675   0.00000  Uiso   1.00
C851   C     0.16029   0.51805   0.92088   0.00000  Uiso   1.00
C852   C     0.14232   0.50528   0.95942   0.00000  Uiso   1.00
C853   C     0.09860   0.51060   0.97894   0.00000  Uiso   1.00
C854   C     0.16636   0.48724   0.97902   0.00000  Uiso   1.00
C855   C     0.15070   0.48483   0.52017   0.00000  Uiso   1.00
C856   C     0.10623   0.48855   0.53879   0.00000  Uiso   1.00
C857   C     0.08089   0.50164   0.51792   0.00000  Uiso   1.00
H858   H     0.04687   0.50410   0.53200   0.00000  Uiso   1.00
H859   H     0.15023   0.52791   0.62581   0.00000  Uiso   1.00
H860   H     0.24336   0.43083   0.62684   0.00000  Uiso   1.00
H861   H     0.28777   0.44181   0.96704   0.00000  Uiso   1.00
H862   H     0.21799   0.52959   0.87599   0.00000  Uiso   1.00
H863   H     0.20943   0.59373   0.92333   0.00000  Uiso   1.00
H864   H     0.25906   0.57089   0.91437   0.00000  Uiso   1.00
H865   H     0.21635   0.56206   0.95854   0.00000  Uiso   1.00
H866   H     0.05582   0.47862   0.58378   0.00000  Uiso   1.00
H867   H     0.26536   0.41971   0.52408   0.00000  Uiso   1.00
H868   H     0.01687   0.52695   0.71484   0.00000  Uiso   1.00
H869   H     0.31801   0.47339   0.78504   0.00000  Uiso   1.00
H870   H     0.12426   0.66491   0.78369   0.00000  Uiso   1.00
H871   H     0.03865   0.52655   0.97324   0.00000  Uiso   1.00
H872   H     0.06663   0.53450   0.90310   0.00000  Uiso   1.00
H873   H     0.21334   0.46402   0.92627   0.00000  Uiso   1.00
H874   H     0.23508   0.65453   0.69500   0.00000  Uiso   1.00
N875   N     0.20597   0.52907   0.90599   0.00000  Uiso   1.00
O876   O     0.16667   0.50000   0.75000   0.00000  Uiso   1.00
O877   O     0.15693   0.45726   0.66625   0.00000  Uiso   1.00
O878   O     0.12687   0.53979   0.83749   0.00000  Uiso   1.00
O879   O     0.21088   0.50826   0.65877   0.00000  Uiso   1.00
O880   O     0.17198   0.49468   0.83749   0.00000  Uiso   1.00
O881   O     0.21592   0.34217   0.71027   0.00000  Uiso   1.00
O882   O     0.14733   0.51819   0.59911   0.00000  Uiso   1.00
O883   O     0.25408   0.42608   0.59785   0.00000  Uiso   1.00
O884   O     0.26436   0.43443   0.95392   0.00000  Uiso   1.00
O885   O     0.08685   0.47435   0.57538   0.00000  Uiso   1.00
O886   O     0.17849   0.41434   0.77820   0.00000  Uiso   1.00
O887   O     0.14581   0.59469   0.76767   0.00000  Uiso   1.00
O888   O     0.07452   0.46584   0.73607   0.00000  Uiso   1.00
O889   O     0.26785   0.52512   0.71805   0.00000  Uiso   1.00
O890   O     0.06990   0.52293   0.77820   0.00000  Uiso   1.00
O891   O     0.25440   0.48610   0.76767   0.00000  Uiso   1.00
O892   O     0.13800   0.40236   0.73607   0.00000  Uiso   1.00
O893   O     0.20437   0.58860   0.71805   0.00000  Uiso   1.00
Zn894  Zn    0.19244   0.47423   0.78277   0.00000  Uiso   1.00
Zn895  Zn    0.13459   0.45711   0.72257   0.00000  Uiso   1.00
Zn896  Zn    0.21166   0.52997   0.71188   0.00000  Uiso   1.00
Zn897  Zn    0.12798   0.53868   0.78277   0.00000  Uiso   1.00
C898   C     0.38586   0.49324   0.75868   0.00000  Uiso   1.00
C899   C     0.53696   0.46822   0.95809   0.00000  Uiso   1.00
C900   C     0.56151   0.45192   0.97722   0.00000  Uiso   1.00
C901   C     0.61443   0.50692   0.74118   0.00000  Uiso   1.00
C902   C     0.54947   0.45516   0.51886   0.00000  Uiso   1.00
C903   C     0.51244   0.47496   0.54048   0.00000  Uiso   1.00
C904   C     0.57296   0.43849   0.53934   0.00000  Uiso   1.00
C905   C     0.56327   0.44461   0.58022   0.00000  Uiso   1.00
C906   C     0.50670   0.48698   0.58117   0.00000  Uiso   1.00
C907   C     0.66044   0.50961   0.73754   0.00000  Uiso   1.00
C908   C     0.34046   0.49078   0.76207   0.00000  Uiso   1.00
C909   C     0.42191   0.52859   0.91894   0.00000  Uiso   1.00
C910   C     0.51503   0.65607   0.73774   0.00000  Uiso   1.00
C911   C     0.48518   0.34537   0.76189   0.00000  Uiso   1.00
C912   C     0.48877   0.38951   0.75933   0.00000  Uiso   1.00
C913   C     0.51043   0.61114   0.74123   0.00000  Uiso   1.00
C914   C     0.52152   0.47874   0.64402   0.00000  Uiso   1.00
C915   C     0.47916   0.52128   0.85611   0.00000  Uiso   1.00
C916   C     0.46544   0.52470   0.89938   0.00000  Uiso   1.00
C917   C     0.53077   0.47009   0.60131   0.00000  Uiso   1.00
C918   C     0.40573   0.52320   0.95877   0.00000  Uiso   1.00
C919   C     0.55673   0.56583   0.92675   0.00000  Uiso   1.00
C920   C     0.49362   0.51805   0.92088   0.00000  Uiso   1.00
C921   C     0.47565   0.50528   0.95942   0.00000  Uiso   1.00
C922   C     0.43194   0.51060   0.97894   0.00000  Uiso   1.00
C923   C     0.49970   0.48724   0.97902   0.00000  Uiso   1.00
C924   C     0.48403   0.48483   0.52017   0.00000  Uiso   1.00
C925   C     0.43956   0.48855   0.53879   0.00000  Uiso   1.00
C926   C     0.41422   0.50164   0.51792   0.00000  Uiso   1.00
H927   H     0.38020   0.50410   0.53200   0.00000  Uiso   1.00
H928   H     0.48356   0.52791   0.62581   0.00000  Uiso   1.00
H929   H     0.57670   0.43083   0.62684   0.00000  Uiso   1.00
H930   H     0.62110   0.44181   0.96704   0.00000  Uiso   1.00
H931   H     0.55132   0.52959   0.87599   0.00000  Uiso   1.00
H932   H     0.54276   0.59373   0.92333   0.00000  Uiso   1.00
H933   H     0.59240   0.57089   0.91437   0.00000  Uiso   1.00
H934   H     0.54968   0.56206   0.95854   0.00000  Uiso   1.00
H935   H     0.38915   0.47862   0.58378   0.00000  Uiso   1.00
H936   H     0.59870   0.41971   0.52408   0.00000  Uiso   1.00
H937   H     0.35020   0.52695   0.71484   0.00000  Uiso   1.00
H938   H     0.65135   0.47339   0.78504   0.00000  Uiso   1.00
H939   H     0.45760   0.66491   0.78369   0.00000  Uiso   1.00
H940   H     0.37198   0.52655   0.97324   0.00000  Uiso   1.00
H941   H     0.39996   0.53450   0.90310   0.00000  Uiso   1.00
H942   H     0.54667   0.46402   0.92627   0.00000  Uiso   1.00
H943   H     0.56841   0.65453   0.69500   0.00000  Uiso   1.00
N944   N     0.53930   0.52907   0.90599   0.00000  Uiso   1.00
O945   O     0.50000   0.50000   0.75000   0.00000  Uiso   1.00
O946   O     0.49027   0.45726   0.66625   0.00000  Uiso   1.00
O947   O     0.46020   0.53979   0.83749   0.00000  Uiso   1.00
O948   O     0.54421   0.50826   0.65877   0.00000  Uiso   1.00
O949   O     0.50532   0.49468   0.83749   0.00000  Uiso   1.00
O950   O     0.54925   0.34217   0.71027   0.00000  Uiso   1.00
O951   O     0.48067   0.51819   0.59911   0.00000  Uiso   1.00
O952   O     0.58742   0.42608   0.59785   0.00000  Uiso   1.00
O953   O     0.59770   0.43443   0.95392   0.00000  Uiso   1.00
O954   O     0.42018   0.47435   0.57538   0.00000  Uiso   1.00
O955   O     0.51182   0.41434   0.77820   0.00000  Uiso   1.00
O956   O     0.47914   0.59469   0.76767   0.00000  Uiso   1.00
O957   O     0.40785   0.46584   0.73607   0.00000  Uiso   1.00
O958   O     0.60119   0.52512   0.71805   0.00000  Uiso   1.00
O959   O     0.40323   0.52293   0.77820   0.00000  Uiso   1.00
O960   O     0.58773   0.48610   0.76767   0.00000  Uiso   1.00
O961   O     0.47133   0.40236   0.73607   0.00000  Uiso   1.00
O962   O     0.53771   0.58860   0.71805   0.00000  Uiso   1.00
Zn963  Zn    0.52577   0.47423   0.78277   0.00000  Uiso   1.00
Zn964  Zn    0.46792   0.45711   0.72257   0.00000  Uiso   1.00
Zn965  Zn    0.54500   0.52997   0.71188   0.00000  Uiso   1.00
Zn966  Zn    0.46131   0.53868   0.78277   0.00000  Uiso   1.00
C967   C     0.71919   0.49324   0.75868   0.00000  Uiso   1.00
C968   C     0.87030   0.46822   0.95809   0.00000  Uiso   1.00
C969   C     0.89485   0.45192   0.97722   0.00000  Uiso   1.00
C970   C     0.94777   0.50692   0.74118   0.00000  Uiso   1.00
C971   C     0.88281   0.45516   0.51886   0.00000  Uiso   1.00
C972   C     0.84578   0.47496   0.54048   0.00000  Uiso   1.00
C973   C     0.90629   0.43849   0.53934   0.00000  Uiso   1.00
C974   C     0.89660   0.44461   0.58022   0.00000  Uiso   1.00
C975   C     0.84003   0.48698   0.58117   0.00000  Uiso   1.00
C976   C     0.99377   0.50961   0.73754   0.00000  Uiso   1.00
C977   C     0.67380   0.49078   0.76207   0.00000  Uiso   1.00
C978   C     0.75525   0.52859   0.91894   0.00000  Uiso   1.00
C979   C     0.84836   0.65607   0.73774   0.00000  Uiso   1.00
C980   C     0.81852   0.34537   0.76189   0.00000  Uiso   1.00
C981   C     0.82210   0.38951   0.75933   0.00000  Uiso   1.00
C982   C     0.84376   0.61114   0.74123   0.00000  Uiso   1.00
C983   C     0.85485   0.47874   0.64402   0.00000  Uiso   1.00
C984   C     0.81249   0.52128   0.85611   0.00000  Uiso   1.00
C985   C     0.79878   0.52470   0.89938   0.00000  Uiso   1.00
C986   C     0.86411   0.47009   0.60131   0.00000  Uiso   1.00
C987   C     0.73906   0.52320   0.95877   0.00000  Uiso   1.00
C988   C     0.89006   0.56583   0.92675   0.00000  Uiso   1.00
C989   C     0.82696   0.51805   0.92088   0.00000  Uiso   1.00
C990   C     0.80899   0.50528   0.95942   0.00000  Uiso   1.00
C991   C     0.76527   0.51060   0.97894   0.00000  Uiso   1.00
C992   C     0.83303   0.48724   0.97902   0.00000  Uiso   1.00
C993   C     0.81737   0.48483   0.52017   0.00000  Uiso   1.00
C994   C     0.77289   0.48855   0.53879   0.00000  Uiso   1.00
C995   C     0.74755   0.50164   0.51792   0.00000  Uiso   1.00
H996   H     0.71354   0.50410   0.53200   0.00000  Uiso   1.00
H997   H     0.81690   0.52791   0.62581   0.00000  Uiso   1.00
H998   H     0.91003   0.43083   0.62684   0.00000  Uiso   1.00
H999   H     0.95444   0.44181   0.96704   0.00000  Uiso   1.00
H1000  H     0.88466   0.52959   0.87599   0.00000  Uiso   1.00
H1001  H     0.87609   0.59373   0.92333   0.00000  Uiso   1.00
H1002  H     0.92573   0.57089   0.91437   0.00000  Uiso   1.00
H1003  H     0.88301   0.56206   0.95854   0.00000  Uiso   1.00
H1004  H     0.72249   0.47862   0.58378   0.00000  Uiso   1.00
H1005  H     0.93203   0.41971   0.52408   0.00000  Uiso   1.00
H1006  H     0.68354   0.52695   0.71484   0.00000  Uiso   1.00
H1007  H     0.98468   0.47339   0.78504   0.00000  Uiso   1.00
H1008  H     0.79093   0.66491   0.78369   0.00000  Uiso   1.00
H1009  H     0.70531   0.52655   0.97324   0.00000  Uiso   1.00
H1010  H     0.73330   0.53450   0.90310   0.00000  Uiso   1.00
H1011  H     0.88000   0.46402   0.92627   0.00000  Uiso   1.00
H1012  H     0.90174   0.65453   0.69500   0.00000  Uiso   1.00
N1013  N     0.87263   0.52907   0.90599   0.00000  Uiso   1.00
O1014  O     0.83333   0.50000   0.75000   0.00000  Uiso   1.00
O1015  O     0.82360   0.45726   0.66625   0.00000  Uiso   1.00
O1016  O     0.79354   0.53979   0.83749   0.00000  Uiso   1.00
O1017  O     0.87755   0.50826   0.65877   0.00000  Uiso   1.00
O1018  O     0.83865   0.49468   0.83749   0.00000  Uiso   1.00
O1019  O     0.88258   0.34217   0.71027   0.00000  Uiso   1.00
O1020  O     0.81400   0.51819   0.59911   0.00000  Uiso   1.00
O1021  O     0.92075   0.42608   0.59785   0.00000  Uiso   1.00
O1022  O     0.93103   0.43443   0.95392   0.00000  Uiso   1.00
O1023  O     0.75351   0.47435   0.57538   0.00000  Uiso   1.00
O1024  O     0.84515   0.41434   0.77820   0.00000  Uiso   1.00
O1025  O     0.81247   0.59469   0.76767   0.00000  Uiso   1.00
O1026  O     0.74119   0.46584   0.73607   0.00000  Uiso   1.00
O1027  O     0.93452   0.52512   0.71805   0.00000  Uiso   1.00
O1028  O     0.73656   0.52293   0.77820   0.00000  Uiso   1.00
O1029  O     0.92106   0.48610   0.76767   0.00000  Uiso   1.00
O1030  O     0.80467   0.40236   0.73607   0.00000  Uiso   1.00
O1031  O     0.87104   0.58860   0.71805   0.00000  Uiso   1.00
Zn1032 Zn    0.85910   0.47423   0.78277   0.00000  Uiso   1.00
Zn1033 Zn    0.80125   0.45711   0.72257   0.00000  Uiso   1.00
Zn1034 Zn    0.87833   0.52997   0.71188   0.00000  Uiso   1.00
Zn1035 Zn    0.79465   0.53868   0.78277   0.00000  Uiso   1.00
C1036  C     0.05252   0.82658   0.75868   0.00000  Uiso   1.00
C1037  C     0.20363   0.80156   0.95809   0.00000  Uiso   1.00
C1038  C     0.22818   0.78526   0.97722   0.00000  Uiso   1.00
C1039  C     0.28110   0.84025   0.74118   0.00000  Uiso   1.00
C1040  C     0.21614   0.78849   0.51886   0.00000  Uiso   1.00
C1041  C     0.17911   0.80829   0.54048   0.00000  Uiso   1.00
C1042  C     0.23963   0.77183   0.53934   0.00000  Uiso   1.00
C1043  C     0.22993   0.77794   0.58022   0.00000  Uiso   1.00
C1044  C     0.17336   0.82032   0.58117   0.00000  Uiso   1.00
C1045  C     0.32711   0.84294   0.73754   0.00000  Uiso   1.00
C1046  C     0.00713   0.82411   0.76207   0.00000  Uiso   1.00
C1047  C     0.08858   0.86193   0.91894   0.00000  Uiso   1.00
C1048  C     0.18170   0.98940   0.73774   0.00000  Uiso   1.00
C1049  C     0.15185   0.67870   0.76189   0.00000  Uiso   1.00
C1050  C     0.15544   0.72285   0.75933   0.00000  Uiso   1.00
C1051  C     0.17709   0.94447   0.74123   0.00000  Uiso   1.00
C1052  C     0.18819   0.81207   0.64402   0.00000  Uiso   1.00
C1053  C     0.14582   0.85462   0.85611   0.00000  Uiso   1.00
C1054  C     0.13211   0.85803   0.89938   0.00000  Uiso   1.00
C1055  C     0.19744   0.80343   0.60131   0.00000  Uiso   1.00
C1056  C     0.07240   0.85654   0.95877   0.00000  Uiso   1.00
C1057  C     0.22339   0.89917   0.92675   0.00000  Uiso   1.00
C1058  C     0.16029   0.85138   0.92088   0.00000  Uiso   1.00
C1059  C     0.14232   0.83862   0.95942   0.00000  Uiso   1.00
C1060  C     0.09860   0.84393   0.97894   0.00000  Uiso   1.00
C1061  C     0.16636   0.82057   0.97902   0.00000  Uiso   1.00
C1062  C     0.15070   0.81816   0.52017   0.00000  Uiso   1.00
C1063  C     0.10623   0.82188   0.53879   0.00000  Uiso   1.00
C1064  C     0.08089   0.83497   0.51792   0.00000  Uiso   1.00
H1065  H     0.04687   0.83743   0.53200   0.00000  Uiso   1.00
H1066  H     0.15023   0.86125   0.62581   0.00000  Uiso   1.00
H1067  H     0.24336   0.76416   0.62684   0.00000  Uiso   1.00
H1068  H     0.28777   0.77514   0.96704   0.00000  Uiso   1.00
H1069  H     0.21799   0.86293   0.87599   0.00000  Uiso   1.00
H1070  H     0.20943   0.92707   0.92333   0.00000  Uiso   1.00
H1071  H     0.25906   0.90422   0.91437   0.00000  Uiso   1.00
H1072  H     0.21635   0.89539   0.95854   0.00000  Uiso   1.00
H1073  H     0.05582   0.81196   0.58378   0.00000  Uiso   1.00
H1074  H     0.26536   0.75304   0.52408   0.00000  Uiso   1.00
H1075  H     0.01687   0.86028   0.71484   0.00000  Uiso   1.00
H1076  H     0.31801   0.80672   0.78504   0.00000  Uiso   1.00
H1077  H     0.12426   0.99824   0.78369   0.00000  Uiso   1.00
H1078  H     0.03865   0.85988   0.97324   0.00000  Uiso   1.00
H1079  H     0.06663   0.86783   0.90310   0.00000  Uiso   1.00
H1080  H     0.21334   0.79735   0.92627   0.00000  Uiso   1.00
H1081  H     0.23508   0.98787   0.69500   0.00000  Uiso   1.00
N1082  N     0.20597   0.86240   0.90599   0.00000  Uiso   1.00
O1083  O     0.16667   0.83333   0.75000   0.00000  Uiso   1.00
O1084  O     0.15693   0.79060   0.66625   0.00000  Uiso   1.00
O1085  O     0.12687   0.87313   0.83749   0.00000  Uiso   1.00
O1086  O     0.21088   0.84159   0.65877   0.00000  Uiso   1.00
O1087  O     0.17198   0.82802   0.83749   0.00000  Uiso   1.00
O1088  O     0.21592   0.67550   0.71027   0.00000  Uiso   1.00
O1089  O     0.14733   0.85153   0.59911   0.00000  Uiso   1.00
O1090  O     0.25408   0.75942   0.59785   0.00000  Uiso   1.00
O1091  O     0.26436   0.76776   0.95392   0.00000  Uiso   1.00
O1092  O     0.08685   0.80768   0.57538   0.00000  Uiso   1.00
O1093  O     0.17849   0.74768   0.77820   0.00000  Uiso   1.00
O1094  O     0.14581   0.92803   0.76767   0.00000  Uiso   1.00
O1095  O     0.07452   0.79917   0.73607   0.00000  Uiso   1.00
O1096  O     0.26785   0.85845   0.71805   0.00000  Uiso   1.00
O1097  O     0.06990   0.85627   0.77820   0.00000  Uiso   1.00
O1098  O     0.25440   0.81944   0.76767   0.00000  Uiso   1.00
O1099  O     0.13800   0.73570   0.73607   0.00000  Uiso   1.00
O1100  O     0.20437   0.92193   0.71805   0.00000  Uiso   1.00
Zn1101 Zn    0.19244   0.80756   0.78277   0.00000  Uiso   1.00
Zn1102 Zn    0.13459   0.79044   0.72257   0.00000  Uiso   1.00
Zn1103 Zn    0.21166   0.86331   0.71188   0.00000  Uiso   1.00
Zn1104 Zn    0.12798   0.87202   0.78277   0.00000  Uiso   1.00
C1105  C     0.38586   0.82658   0.75868   0.00000  Uiso   1.00
C1106  C     0.53696   0.80156   0.95809   0.00000  Uiso   1.00
C1107  C     0.56151   0.78526   0.97722   0.00000  Uiso   1.00
C1108  C     0.61443   0.84025   0.74118   0.00000  Uiso   1.00
C1109  C     0.54947   0.78849   0.51886   0.00000  Uiso   1.00
C1110  C     0.51244   0.80829   0.54048   0.00000  Uiso   1.00
C1111  C     0.57296   0.77183   0.53934   0.00000  Uiso   1.00
C1112  C     0.56327   0.77794   0.58022   0.00000  Uiso   1.00
C1113  C     0.50670   0.82032   0.58117   0.00000  Uiso   1.00
C1114  C     0.66044   0.84294   0.73754   0.00000  Uiso   1.00
C1115  C     0.34046   0.82411   0.76207   0.00000  Uiso   1.00
C1116  C     0.42191   0.86193   0.91894   0.00000  Uiso   1.00
C1117  C     0.51503   0.98940   0.73774   0.00000  Uiso   1.00
C1118  C     0.48518   0.67870   0.76189   0.00000  Uiso   1.00
C1119  C     0.48877   0.72285   0.75933   0.00000  Uiso   1.00
C1120  C     0.51043   0.94447   0.74123   0.00000  Uiso   1.00
C1121  C     0.52152   0.81207   0.64402   0.00000  Uiso   1.00
C1122  C     0.47916   0.85462   0.85611   0.00000  Uiso   1.00
C1123  C     0.46544   0.85803   0.89938   0.00000  Uiso   1.00
C1124  C     0.53077   0.80343   0.60131   0.00000  Uiso   1.00
C1125  C     0.40573   0.85654   0.95877   0.00000  Uiso   1.00
C1126  C     0.55673   0.89917   0.92675   0.00000  Uiso   1.00
C1127  C     0.49362   0.85138   0.92088   0.00000  Uiso   1.00
C1128  C     0.47565   0.83862   0.95942   0.00000  Uiso   1.00
C1129  C     0.43194   0.84393   0.97894   0.00000  Uiso   1.00
C1130  C     0.49970   0.82057   0.97902   0.00000  Uiso   1.00
C1131  C     0.48403   0.81816   0.52017   0.00000  Uiso   1.00
C1132  C     0.43956   0.82188   0.53879   0.00000  Uiso   1.00
C1133  C     0.41422   0.83497   0.51792   0.00000  Uiso   1.00
H1134  H     0.38020   0.83743   0.53200   0.00000  Uiso   1.00
H1135  H     0.48356   0.86125   0.62581   0.00000  Uiso   1.00
H1136  H     0.57670   0.76416   0.62684   0.00000  Uiso   1.00
H1137  H     0.62110   0.77514   0.96704   0.00000  Uiso   1.00
H1138  H     0.55132   0.86293   0.87599   0.00000  Uiso   1.00
H1139  H     0.54276   0.92707   0.92333   0.00000  Uiso   1.00
H1140  H     0.59240   0.90422   0.91437   0.00000  Uiso   1.00
H1141  H     0.54968   0.89539   0.95854   0.00000  Uiso   1.00
H1142  H     0.38915   0.81196   0.58378   0.00000  Uiso   1.00
H1143  H     0.59870   0.75304   0.52408   0.00000  Uiso   1.00
H1144  H     0.35020   0.86028   0.71484   0.00000  Uiso   1.00
H1145  H     0.65135   0.80672   0.78504   0.00000  Uiso   1.00
H1146  H     0.45760   0.99824   0.78369   0.00000  Uiso   1.00
H1147  H     0.37198   0.85988   0.97324   0.00000  Uiso   1.00
H1148  H     0.39996   0.86783   0.90310   0.00000  Uiso   1.00
H1149  H     0.54667   0.79735   0.92627   0.00000  Uiso   1.00
H1150  H     0.56841   0.98787   0.69500   0.00000  Uiso   1.00
N1151  N     0.53930   0.86240   0.90599   0.00000  Uiso   1.00
O1152  O     0.50000   0.83333   0.75000   0.00000  Uiso   1.00
O1153  O     0.49027   0.79060   0.66625   0.00000  Uiso   1.00
O1154  O     0.46020   0.87313   0.83749   0.00000  Uiso   1.00
O1155  O     0.54421   0.84159   0.65877   0.00000  Uiso   1.00
O1156  O     0.50532   0.82802   0.83749   0.00000  Uiso   1.00
O1157  O     0.54925   0.67550   0.71027   0.00000  Uiso   1.00
O1158  O     0.48067   0.85153   0.59911   0.00000  Uiso   1.00
O1159  O     0.58742   0.75942   0.59785   0.00000  Uiso   1.00
O1160  O     0.59770   0.76776   0.95392   0.00000  Uiso   1.00
O1161  O     0.42018   0.80768   0.57538   0.00000  Uiso   1.00
O1162  O     0.51182   0.74768   0.77820   0.00000  Uiso   1.00
O1163  O     0.47914   0.92803   0.76767   0.00000  Uiso   1.00
O1164  O     0.40785   0.79917   0.73607   0.00000  Uiso   1.00
O1165  O     0.60119   0.85845   0.71805   0.00000  Uiso   1.00
O1166  O     0.40323   0.85627   0.77820   0.00000  Uiso   1.00
O1167  O     0.58773   0.81944   0.76767   0.00000  Uiso   1.00
O1168  O     0.47133   0.73570   0.73607   0.00000  Uiso   1.00
O1169  O     0.53771   0.92193   0.71805   0.00000  Uiso   1.00
Zn1170 Zn    0.52577   0.80756   0.78277   0.00000  Uiso   1.00
Zn1171 Zn    0.46792   0.79044   0.72257   0.00000  Uiso   1.00
Zn1172 Zn    0.54500   0.86331   0.71188   0.00000  Uiso   1.00
Zn1173 Zn    0.46131   0.87202   0.78277   0.00000  Uiso   1.00
C1174  C     0.71919   0.82658   0.75868   0.00000  Uiso   1.00
C1175  C     0.87030   0.80156   0.95809   0.00000  Uiso   1.00
C1176  C     0.89485   0.78526   0.97722   0.00000  Uiso   1.00
C1177  C     0.94777   0.84025   0.74118   0.00000  Uiso   1.00
C1178  C     0.88281   0.78849   0.51886   0.00000  Uiso   1.00
C1179  C     0.84578   0.80829   0.54048   0.00000  Uiso   1.00
C1180  C     0.90629   0.77183   0.53934   0.00000  Uiso   1.00
C1181  C     0.89660   0.77794   0.58022   0.00000  Uiso   1.00
C1182  C     0.84003   0.82032   0.58117   0.00000  Uiso   1.00
C1183  C     0.99377   0.84294   0.73754   0.00000  Uiso   1.00
C1184  C     0.67380   0.82411   0.76207   0.00000  Uiso   1.00
C1185  C     0.75525   0.86193   0.91894   0.00000  Uiso   1.00
C1186  C     0.84836   0.98940   0.73774   0.00000  Uiso   1.00
C1187  C     0.81852   0.67870   0.76189   0.00000  Uiso   1.00
C1188  C     0.82210   0.72285   0.75933   0.00000  Uiso   1.00
C1189  C     0.84376   0.94447   0.74123   0.00000  Uiso   1.00
C1190  C     0.85485   0.81207   0.64402   0.00000  Uiso   1.00
C1191  C     0.81249   0.85462   0.85611   0.00000  Uiso   1.00
C1192  C     0.79878   0.85803   0.89938   0.00000  Uiso   1.00
C1193  C     0.86411   0.80343   0.60131   0.00000  Uiso   1.00
C1194  C     0.73906   0.85654   0.95877   0.00000  Uiso   1.00
C1195  C     0.89006   0.89917   0.92675   0.00000  Uiso   1.00
C1196  C     0.82696   0.85138   0.92088   0.00000  Uiso   1.00
C1197  C     0.80899   0.83862   0.95942   0.00000  Uiso   1.00
C1198  C     0.76527   0.84393   0.97894   0.00000  Uiso   1.00
C1199  C     0.83303   0.82057   0.97902   0.00000  Uiso   1.00
C1200  C     0.81737   0.81816   0.52017   0.00000  Uiso   1.00
C1201  C     0.77289   0.82188   0.53879   0.00000  Uiso   1.00
C1202  C     0.74755   0.83497   0.51792   0.00000  Uiso   1.00
H1203  H     0.71354   0.83743   0.53200   0.00000  Uiso   1.00
H1204  H     0.81690   0.86125   0.62581   0.00000  Uiso   1.00
H1205  H     0.91003   0.76416   0.62684   0.00000  Uiso   1.00
H1206  H     0.95444   0.77514   0.96704   0.00000  Uiso   1.00
H1207  H     0.88466   0.86293   0.87599   0.00000  Uiso   1.00
H1208  H     0.87609   0.92707   0.92333   0.00000  Uiso   1.00
H1209  H     0.92573   0.90422   0.91437   0.00000  Uiso   1.00
H1210  H     0.88301   0.89539   0.95854   0.00000  Uiso   1.00
H1211  H     0.72249   0.81196   0.58378   0.00000  Uiso   1.00
H1212  H     0.93203   0.75304   0.52408   0.00000  Uiso   1.00
H1213  H     0.68354   0.86028   0.71484   0.00000  Uiso   1.00
H1214  H     0.98468   0.80672   0.78504   0.00000  Uiso   1.00
H1215  H     0.79093   0.99824   0.78369   0.00000  Uiso   1.00
H1216  H     0.70531   0.85988   0.97324   0.00000  Uiso   1.00
H1217  H     0.73330   0.86783   0.90310   0.00000  Uiso   1.00
H1218  H     0.88000   0.79735   0.92627   0.00000  Uiso   1.00
H1219  H     0.90174   0.98787   0.69500   0.00000  Uiso   1.00
N1220  N     0.87263   0.86240   0.90599   0.00000  Uiso   1.00
O1221  O     0.83333   0.83333   0.75000   0.00000  Uiso   1.00
O1222  O     0.82360   0.79060   0.66625   0.00000  Uiso   1.00
O1223  O     0.79354   0.87313   0.83749   0.00000  Uiso   1.00
O1224  O     0.87755   0.84159   0.65877   0.00000  Uiso   1.00
O1225  O     0.83865   0.82802   0.83749   0.00000  Uiso   1.00
O1226  O     0.88258   0.67550   0.71027   0.00000  Uiso   1.00
O1227  O     0.81400   0.85153   0.59911   0.00000  Uiso   1.00
O1228  O     0.92075   0.75942   0.59785   0.00000  Uiso   1.00
O1229  O     0.93103   0.76776   0.95392   0.00000  Uiso   1.00
O1230  O     0.75351   0.80768   0.57538   0.00000  Uiso   1.00
O1231  O     0.84515   0.74768   0.77820   0.00000  Uiso   1.00
O1232  O     0.81247   0.92803   0.76767   0.00000  Uiso   1.00
O1233  O     0.74119   0.79917   0.73607   0.00000  Uiso   1.00
O1234  O     0.93452   0.85845   0.71805   0.00000  Uiso   1.00
O1235  O     0.73656   0.85627   0.77820   0.00000  Uiso   1.00
O1236  O     0.92106   0.81944   0.76767   0.00000  Uiso   1.00
O1237  O     0.80467   0.73570   0.73607   0.00000  Uiso   1.00
O1238  O     0.87104   0.92193   0.71805   0.00000  Uiso   1.00
Zn1239 Zn    0.85910   0.80756   0.78277   0.00000  Uiso   1.00
Zn1240 Zn    0.80125   0.79044   0.72257   0.00000  Uiso   1.00
Zn1241 Zn    0.87833   0.86331   0.71188   0.00000  Uiso   1.00
Zn1242 Zn    0.79465   0.87202   0.78277   0.00000  Uiso   1.00
loop_
_geom_bond_atom_site_label_1
_geom_bond_atom_site_label_2
_geom_bond_distance
_geom_bond_site_symmetry_2
_ccdc_geom_bond_type
C1     C11     1.438   .     S
C1     O62     1.271   .     A
C1     O60     1.272   .     A
C2     C3      1.390   .     A
C2     C26     1.408   .     A
C2     H45     1.081   .     S
C3     O56     1.380   .     S
C3     C626    1.414   .     S
C4     O61     1.280   .     A
C4     O63     1.276   .     A
C4     C10     1.455   .     S
C5     C6      1.421   .     A
C5     C7      1.405   .     A
C5     C624    1.414   1_554 S
C6     C27     1.425   .     A
C6     C9      1.415   .     A
C7     C8      1.391   .     A
C7     H39     1.081   .     S
C8     C20     1.415   .     A
C8     O55     1.384   .     S
C9     O54     1.387   .     S
C9     C20     1.415   .     A
C10    C80     1.335   .     S
C10    H109    1.088   .     S
C11    C148    1.335   1_455 S
C11    H179    1.086   1_455 S
C12    C19     1.401   .     A
C12    H44     1.083   .     S
C12    C21     1.390   .     A
C13    C16     1.467   .     S
C13    C221    1.335   .     S
C13    O260    1.386   .     S
C14    C15     1.438   .     S
C14    C427    1.335   1_545 S
C14    H456    1.086   1_545 S
C15    O64     1.276   .     A
C15    O58     1.277   .     A
C16    O65     1.270   .     A
C16    O59     1.276   .     A
C17    O51     1.272   .     A
C17    C20     1.460   .     S
C17    O49     1.273   .     A
C18    O52     1.285   .     A
C18    O50     1.284   .     A
C18    C19     1.470   .     S
C19    C23     1.412   .     A
C21    H43     1.084   .     S
C21    C25     1.400   .     A
C22    H36     1.111   .     S
C22    H35     1.111   .     S
C22    N47     1.448   .     S
C22    H37     1.110   .     S
C23    C24     1.422   .     A
C23    N47     1.432   .     S
C24    C25     1.415   .     A
C24    C26     1.421   .     A
C25    C650    1.395   .     S
C26    C648    1.416   .     S
C27    C28     1.422   .     A
C27    C647    1.416   1_554 S
C28    C29     1.403   .     A
C28    O57     1.383   .     S
C29    H30     1.085   .     S
C29    C646    1.395   1_554 S
H31    O54     0.988   .     S
H32    O55     0.988   .     S
H33    O56     0.989   .     S
H34    N47     1.028   .     S
H38    O57     0.992   .     S
H40    C148    1.088   1_455 S
H41    C80     1.086   .     S
H42    C221    1.086   .     S
H46    O260    0.990   .     S
O48    Zn69    1.937   .     S
O48    Zn68    1.929   .     S
O48    Zn67    1.942   .     S
O48    Zn66    1.958   .     S
O49    Zn67    1.928   .     S
O50    Zn69    1.937   .     S
O51    Zn68    1.934   .     S
O52    Zn66    1.927   .     S
O53    C427    1.386   1_545 S
O53    H460    0.990   1_545 S
O58    Zn66    1.929   .     S
O59    Zn69    1.929   .     S
O60    Zn67    1.928   .     S
O61    Zn68    1.937   .     S
O62    Zn69    1.930   .     S
O63    Zn66    1.922   .     S
O64    Zn67    1.937   .     S
O65    Zn68    1.934   .     S
C70    C80     1.438   .     S
C70    O131    1.271   .     A
C70    O129    1.272   .     A
C71    C72     1.390   .     A
C71    C95     1.408   .     A
C71    H114    1.081   .     S
C72    O125    1.380   .     S
C72    C695    1.414   .     S
C73    O130    1.280   .     A
C73    O132    1.276   .     A
C73    C79     1.455   .     S
C74    C75     1.421   .     A
C74    C76     1.405   .     A
C74    C693    1.414   1_554 S
C75    C96     1.425   .     A
C75    C78     1.415   .     A
C76    C77     1.391   .     A
C76    H108    1.081   .     S
C77    C89     1.415   .     A
C77    O124    1.384   .     S
C78    O123    1.387   .     S
C78    C89     1.415   .     A
C79    C149    1.335   .     S
C79    H178    1.088   .     S
C81    C88     1.401   .     A
C81    H113    1.083   .     S
C81    C90     1.390   .     A
C82    C85     1.467   .     S
C82    C290    1.335   .     S
C82    O329    1.386   .     S
C83    C84     1.438   .     S
C83    C496    1.335   1_545 S
C83    H525    1.086   1_545 S
C84    O133    1.276   .     A
C84    O127    1.277   .     A
C85    O134    1.270   .     A
C85    O128    1.276   .     A
C86    O120    1.272   .     A
C86    C89     1.460   .     S
C86    O118    1.273   .     A
C87    O121    1.285   .     A
C87    O119    1.284   .     A
C87    C88     1.470   .     S
C88    C92     1.412   .     A
C90    H112    1.084   .     S
C90    C94     1.400   .     A
C91    H105    1.111   .     S
C91    H104    1.111   .     S
C91    N116    1.448   .     S
C91    H106    1.110   .     S
C92    C93     1.422   .     A
C92    N116    1.432   .     S
C93    C94     1.415   .     A
C93    C95     1.421   .     A
C94    C719    1.395   .     S
C95    C717    1.416   .     S
C96    C97     1.422   .     A
C96    C716    1.416   1_554 S
C97    C98     1.403   .     A
C97    O126    1.383   .     S
C98    H99     1.085   .     S
C98    C715    1.395   1_554 S
H100   O123    0.988   .     S
H101   O124    0.988   .     S
H102   O125    0.989   .     S
H103   N116    1.028   .     S
H107   O126    0.992   .     S
H110   C149    1.086   .     S
H111   C290    1.086   .     S
H115   O329    0.990   .     S
O117   Zn138   1.937   .     S
O117   Zn137   1.929   .     S
O117   Zn136   1.942   .     S
O117   Zn135   1.958   .     S
O118   Zn136   1.928   .     S
O119   Zn138   1.937   .     S
O120   Zn137   1.934   .     S
O121   Zn135   1.927   .     S
O122   C496    1.386   1_545 S
O122   H529    0.990   1_545 S
O127   Zn135   1.929   .     S
O128   Zn138   1.929   .     S
O129   Zn136   1.928   .     S
O130   Zn137   1.937   .     S
O131   Zn138   1.930   .     S
O132   Zn135   1.922   .     S
O133   Zn136   1.937   .     S
O134   Zn137   1.934   .     S
C139   C149    1.438   .     S
C139   O200    1.271   .     A
C139   O198    1.272   .     A
C140   C141    1.390   .     A
C140   C164    1.408   .     A
C140   H183    1.081   .     S
C141   O194    1.380   .     S
C141   C764    1.414   .     S
C142   O199    1.280   .     A
C142   O201    1.276   .     A
C142   C148    1.455   .     S
C143   C144    1.421   .     A
C143   C145    1.405   .     A
C143   C762    1.414   1_554 S
C144   C165    1.425   .     A
C144   C147    1.415   .     A
C145   C146    1.391   .     A
C145   H177    1.081   .     S
C146   C158    1.415   .     A
C146   O193    1.384   .     S
C147   O192    1.387   .     S
C147   C158    1.415   .     A
C148   C11     1.335   1_655 S
C148   H40     1.088   1_655 S
C150   C157    1.401   .     A
C150   H182    1.083   .     S
C150   C159    1.390   .     A
C151   C154    1.467   .     S
C151   C359    1.335   .     S
C151   O398    1.386   .     S
C152   C153    1.438   .     S
C152   C565    1.335   1_545 S
C152   H594    1.086   1_545 S
C153   O202    1.276   .     A
C153   O196    1.277   .     A
C154   O203    1.270   .     A
C154   O197    1.276   .     A
C155   O189    1.272   .     A
C155   C158    1.460   .     S
C155   O187    1.273   .     A
C156   O190    1.285   .     A
C156   O188    1.284   .     A
C156   C157    1.470   .     S
C157   C161    1.412   .     A
C159   H181    1.084   .     S
C159   C163    1.400   .     A
C160   H174    1.111   .     S
C160   H173    1.111   .     S
C160   N185    1.448   .     S
C160   H175    1.110   .     S
C161   C162    1.422   .     A
C161   N185    1.432   .     S
C162   C163    1.415   .     A
C162   C164    1.421   .     A
C163   C788    1.395   .     S
C164   C786    1.416   .     S
C165   C166    1.422   .     A
C165   C785    1.416   1_554 S
C166   C167    1.403   .     A
C166   O195    1.383   .     S
C167   H168    1.085   .     S
C167   C784    1.395   1_554 S
H169   O192    0.988   .     S
H170   O193    0.988   .     S
H171   O194    0.989   .     S
H172   N185    1.028   .     S
H176   O195    0.992   .     S
H179   C11     1.086   1_655 S
H180   C359    1.086   .     S
H184   O398    0.990   .     S
O186   Zn207   1.937   .     S
O186   Zn206   1.929   .     S
O186   Zn205   1.942   .     S
O186   Zn204   1.958   .     S
O187   Zn205   1.928   .     S
O188   Zn207   1.937   .     S
O189   Zn206   1.934   .     S
O190   Zn204   1.927   .     S
O191   C565    1.386   1_545 S
O191   H598    0.990   1_545 S
O196   Zn204   1.929   .     S
O197   Zn207   1.929   .     S
O198   Zn205   1.928   .     S
O199   Zn206   1.937   .     S
O200   Zn207   1.930   .     S
O201   Zn204   1.922   .     S
O202   Zn205   1.937   .     S
O203   Zn206   1.934   .     S
C208   C218    1.438   .     S
C208   O269    1.271   .     A
C208   O267    1.272   .     A
C209   C210    1.390   .     A
C209   C233    1.408   .     A
C209   H252    1.081   .     S
C210   O263    1.380   .     S
C210   C833    1.414   .     S
C211   O268    1.280   .     A
C211   O270    1.276   .     A
C211   C217    1.455   .     S
C212   C213    1.421   .     A
C212   C214    1.405   .     A
C212   C831    1.414   1_554 S
C213   C234    1.425   .     A
C213   C216    1.415   .     A
C214   C215    1.391   .     A
C214   H246    1.081   .     S
C215   C227    1.415   .     A
C215   O262    1.384   .     S
C216   O261    1.387   .     S
C216   C227    1.415   .     A
C217   C287    1.335   .     S
C217   H316    1.088   .     S
C218   C355    1.335   1_455 S
C218   H386    1.086   1_455 S
C219   C226    1.401   .     A
C219   H251    1.083   .     S
C219   C228    1.390   .     A
C220   C223    1.467   .     S
C220   C428    1.335   .     S
C220   O467    1.386   .     S
C221   C222    1.438   .     S
C222   O271    1.276   .     A
C222   O265    1.277   .     A
C223   O272    1.270   .     A
C223   O266    1.276   .     A
C224   O258    1.272   .     A
C224   C227    1.460   .     S
C224   O256    1.273   .     A
C225   O259    1.285   .     A
C225   O257    1.284   .     A
C225   C226    1.470   .     S
C226   C230    1.412   .     A
C228   H250    1.084   .     S
C228   C232    1.400   .     A
C229   H243    1.111   .     S
C229   H242    1.111   .     S
C229   N254    1.448   .     S
C229   H244    1.110   .     S
C230   C231    1.422   .     A
C230   N254    1.432   .     S
C231   C232    1.415   .     A
C231   C233    1.421   .     A
C232   C857    1.395   .     S
C233   C855    1.416   .     S
C234   C235    1.422   .     A
C234   C854    1.416   1_554 S
C235   C236    1.403   .     A
C235   O264    1.383   .     S
C236   H237    1.085   .     S
C236   C853    1.395   1_554 S
H238   O261    0.988   .     S
H239   O262    0.988   .     S
H240   O263    0.989   .     S
H241   N254    1.028   .     S
H245   O264    0.992   .     S
H247   C355    1.088   1_455 S
H248   C287    1.086   .     S
H249   C428    1.086   .     S
H253   O467    0.990   .     S
O255   Zn276   1.937   .     S
O255   Zn275   1.929   .     S
O255   Zn274   1.942   .     S
O255   Zn273   1.958   .     S
O256   Zn274   1.928   .     S
O257   Zn276   1.937   .     S
O258   Zn275   1.934   .     S
O259   Zn273   1.927   .     S
O265   Zn273   1.929   .     S
O266   Zn276   1.929   .     S
O267   Zn274   1.928   .     S
O268   Zn275   1.937   .     S
O269   Zn276   1.930   .     S
O270   Zn273   1.922   .     S
O271   Zn274   1.937   .     S
O272   Zn275   1.934   .     S
C277   C287    1.438   .     S
C277   O338    1.271   .     A
C277   O336    1.272   .     A
C278   C279    1.390   .     A
C278   C302    1.408   .     A
C278   H321    1.081   .     S
C279   O332    1.380   .     S
C279   C902    1.414   .     S
C280   O337    1.280   .     A
C280   O339    1.276   .     A
C280   C286    1.455   .     S
C281   C282    1.421   .     A
C281   C283    1.405   .     A
C281   C900    1.414   1_554 S
C282   C303    1.425   .     A
C282   C285    1.415   .     A
C283   C284    1.391   .     A
C283   H315    1.081   .     S
C284   C296    1.415   .     A
C284   O331    1.384   .     S
C285   O330    1.387   .     S
C285   C296    1.415   .     A
C286   C356    1.335   .     S
C286   H385    1.088   .     S
C288   C295    1.401   .     A
C288   H320    1.083   .     S
C288   C297    1.390   .     A
C289   C292    1.467   .     S
C289   C497    1.335   .     S
C289   O536    1.386   .     S
C290   C291    1.438   .     S
C291   O340    1.276   .     A
C291   O334    1.277   .     A
C292   O341    1.270   .     A
C292   O335    1.276   .     A
C293   O327    1.272   .     A
C293   C296    1.460   .     S
C293   O325    1.273   .     A
C294   O328    1.285   .     A
C294   O326    1.284   .     A
C294   C295    1.470   .     S
C295   C299    1.412   .     A
C297   H319    1.084   .     S
C297   C301    1.400   .     A
C298   H312    1.111   .     S
C298   H311    1.111   .     S
C298   N323    1.448   .     S
C298   H313    1.110   .     S
C299   C300    1.422   .     A
C299   N323    1.432   .     S
C300   C301    1.415   .     A
C300   C302    1.421   .     A
C301   C926    1.395   .     S
C302   C924    1.416   .     S
C303   C304    1.422   .     A
C303   C923    1.416   1_554 S
C304   C305    1.403   .     A
C304   O333    1.383   .     S
C305   H306    1.085   .     S
C305   C922    1.395   1_554 S
H307   O330    0.988   .     S
H308   O331    0.988   .     S
H309   O332    0.989   .     S
H310   N323    1.028   .     S
H314   O333    0.992   .     S
H317   C356    1.086   .     S
H318   C497    1.086   .     S
H322   O536    0.990   .     S
O324   Zn345   1.937   .     S
O324   Zn344   1.929   .     S
O324   Zn343   1.942   .     S
O324   Zn342   1.958   .     S
O325   Zn343   1.928   .     S
O326   Zn345   1.937   .     S
O327   Zn344   1.934   .     S
O328   Zn342   1.927   .     S
O334   Zn342   1.929   .     S
O335   Zn345   1.929   .     S
O336   Zn343   1.928   .     S
O337   Zn344   1.937   .     S
O338   Zn345   1.930   .     S
O339   Zn342   1.922   .     S
O340   Zn343   1.937   .     S
O341   Zn344   1.934   .     S
C346   C356    1.438   .     S
C346   O407    1.271   .     A
C346   O405    1.272   .     A
C347   C348    1.390   .     A
C347   C371    1.408   .     A
C347   H390    1.081   .     S
C348   O401    1.380   .     S
C348   C971    1.414   .     S
C349   O406    1.280   .     A
C349   O408    1.276   .     A
C349   C355    1.455   .     S
C350   C351    1.421   .     A
C350   C352    1.405   .     A
C350   C969    1.414   1_554 S
C351   C372    1.425   .     A
C351   C354    1.415   .     A
C352   C353    1.391   .     A
C352   H384    1.081   .     S
C353   C365    1.415   .     A
C353   O400    1.384   .     S
C354   O399    1.387   .     S
C354   C365    1.415   .     A
C355   C218    1.335   1_655 S
C355   H247    1.088   1_655 S
C357   C364    1.401   .     A
C357   H389    1.083   .     S
C357   C366    1.390   .     A
C358   C361    1.467   .     S
C358   C566    1.335   .     S
C358   O605    1.386   .     S
C359   C360    1.438   .     S
C360   O409    1.276   .     A
C360   O403    1.277   .     A
C361   O410    1.270   .     A
C361   O404    1.276   .     A
C362   O396    1.272   .     A
C362   C365    1.460   .     S
C362   O394    1.273   .     A
C363   O397    1.285   .     A
C363   O395    1.284   .     A
C363   C364    1.470   .     S
C364   C368    1.412   .     A
C366   H388    1.084   .     S
C366   C370    1.400   .     A
C367   H381    1.111   .     S
C367   H380    1.111   .     S
C367   N392    1.448   .     S
C367   H382    1.110   .     S
C368   C369    1.422   .     A
C368   N392    1.432   .     S
C369   C370    1.415   .     A
C369   C371    1.421   .     A
C370   C995    1.395   .     S
C371   C993    1.416   .     S
C372   C373    1.422   .     A
C372   C992    1.416   1_554 S
C373   C374    1.403   .     A
C373   O402    1.383   .     S
C374   H375    1.085   .     S
C374   C991    1.395   1_554 S
H376   O399    0.988   .     S
H377   O400    0.988   .     S
H378   O401    0.989   .     S
H379   N392    1.028   .     S
H383   O402    0.992   .     S
H386   C218    1.086   1_655 S
H387   C566    1.086   .     S
H391   O605    0.990   .     S
O393   Zn414   1.937   .     S
O393   Zn413   1.929   .     S
O393   Zn412   1.942   .     S
O393   Zn411   1.958   .     S
O394   Zn412   1.928   .     S
O395   Zn414   1.937   .     S
O396   Zn413   1.934   .     S
O397   Zn411   1.927   .     S
O403   Zn411   1.929   .     S
O404   Zn414   1.929   .     S
O405   Zn412   1.928   .     S
O406   Zn413   1.937   .     S
O407   Zn414   1.930   .     S
O408   Zn411   1.922   .     S
O409   Zn412   1.937   .     S
O410   Zn413   1.934   .     S
C415   C425    1.438   .     S
C415   O476    1.271   .     A
C415   O474    1.272   .     A
C416   C417    1.390   .     A
C416   C440    1.408   .     A
C416   H459    1.081   .     S
C417   O470    1.380   .     S
C417   C1040   1.414   .     S
C418   O475    1.280   .     A
C418   O477    1.276   .     A
C418   C424    1.455   .     S
C419   C420    1.421   .     A
C419   C421    1.405   .     A
C419   C1038   1.414   1_554 S
C420   C441    1.425   .     A
C420   C423    1.415   .     A
C421   C422    1.391   .     A
C421   H453    1.081   .     S
C422   C434    1.415   .     A
C422   O469    1.384   .     S
C423   O468    1.387   .     S
C423   C434    1.415   .     A
C424   C494    1.335   .     S
C424   H523    1.088   .     S
C425   C562    1.335   1_455 S
C425   H593    1.086   1_455 S
C426   C433    1.401   .     A
C426   H458    1.083   .     S
C426   C435    1.390   .     A
C427   C430    1.467   .     S
C427   C14     1.335   1_565 S
C427   O53     1.386   1_565 S
C428   C429    1.438   .     S
C429   O478    1.276   .     A
C429   O472    1.277   .     A
C430   O479    1.270   .     A
C430   O473    1.276   .     A
C431   O465    1.272   .     A
C431   C434    1.460   .     S
C431   O463    1.273   .     A
C432   O466    1.285   .     A
C432   O464    1.284   .     A
C432   C433    1.470   .     S
C433   C437    1.412   .     A
C435   H457    1.084   .     S
C435   C439    1.400   .     A
C436   H450    1.111   .     S
C436   H449    1.111   .     S
C436   N461    1.448   .     S
C436   H451    1.110   .     S
C437   C438    1.422   .     A
C437   N461    1.432   .     S
C438   C439    1.415   .     A
C438   C440    1.421   .     A
C439   C1064   1.395   .     S
C440   C1062   1.416   .     S
C441   C442    1.422   .     A
C441   C1061   1.416   1_554 S
C442   C443    1.403   .     A
C442   O471    1.383   .     S
C443   H444    1.085   .     S
C443   C1060   1.395   1_554 S
H445   O468    0.988   .     S
H446   O469    0.988   .     S
H447   O470    0.989   .     S
H448   N461    1.028   .     S
H452   O471    0.992   .     S
H454   C562    1.088   1_455 S
H455   C494    1.086   .     S
H456   C14     1.086   1_565 S
H460   O53     0.990   1_565 S
O462   Zn483   1.937   .     S
O462   Zn482   1.929   .     S
O462   Zn481   1.942   .     S
O462   Zn480   1.958   .     S
O463   Zn481   1.928   .     S
O464   Zn483   1.937   .     S
O465   Zn482   1.934   .     S
O466   Zn480   1.927   .     S
O472   Zn480   1.929   .     S
O473   Zn483   1.929   .     S
O474   Zn481   1.928   .     S
O475   Zn482   1.937   .     S
O476   Zn483   1.930   .     S
O477   Zn480   1.922   .     S
O478   Zn481   1.937   .     S
O479   Zn482   1.934   .     S
C484   C494    1.438   .     S
C484   O545    1.271   .     A
C484   O543    1.272   .     A
C485   C486    1.390   .     A
C485   C509    1.408   .     A
C485   H528    1.081   .     S
C486   O539    1.380   .     S
C486   C1109   1.414   .     S
C487   O544    1.280   .     A
C487   O546    1.276   .     A
C487   C493    1.455   .     S
C488   C489    1.421   .     A
C488   C490    1.405   .     A
C488   C1107   1.414   1_554 S
C489   C510    1.425   .     A
C489   C492    1.415   .     A
C490   C491    1.391   .     A
C490   H522    1.081   .     S
C491   C503    1.415   .     A
C491   O538    1.384   .     S
C492   O537    1.387   .     S
C492   C503    1.415   .     A
C493   C563    1.335   .     S
C493   H592    1.088   .     S
C495   C502    1.401   .     A
C495   H527    1.083   .     S
C495   C504    1.390   .     A
C496   C499    1.467   .     S
C496   C83     1.335   1_565 S
C496   O122    1.386   1_565 S
C497   C498    1.438   .     S
C498   O547    1.276   .     A
C498   O541    1.277   .     A
C499   O548    1.270   .     A
C499   O542    1.276   .     A
C500   O534    1.272   .     A
C500   C503    1.460   .     S
C500   O532    1.273   .     A
C501   O535    1.285   .     A
C501   O533    1.284   .     A
C501   C502    1.470   .     S
C502   C506    1.412   .     A
C504   H526    1.084   .     S
C504   C508    1.400   .     A
C505   H519    1.111   .     S
C505   H518    1.111   .     S
C505   N530    1.448   .     S
C505   H520    1.110   .     S
C506   C507    1.422   .     A
C506   N530    1.432   .     S
C507   C508    1.415   .     A
C507   C509    1.421   .     A
C508   C1133   1.395   .     S
C509   C1131   1.416   .     S
C510   C511    1.422   .     A
C510   C1130   1.416   1_554 S
C511   C512    1.403   .     A
C511   O540    1.383   .     S
C512   H513    1.085   .     S
C512   C1129   1.395   1_554 S
H514   O537    0.988   .     S
H515   O538    0.988   .     S
H516   O539    0.989   .     S
H517   N530    1.028   .     S
H521   O540    0.992   .     S
H524   C563    1.086   .     S
H525   C83     1.086   1_565 S
H529   O122    0.990   1_565 S
O531   Zn552   1.937   .     S
O531   Zn551   1.929   .     S
O531   Zn550   1.942   .     S
O531   Zn549   1.958   .     S
O532   Zn550   1.928   .     S
O533   Zn552   1.937   .     S
O534   Zn551   1.934   .     S
O535   Zn549   1.927   .     S
O541   Zn549   1.929   .     S
O542   Zn552   1.929   .     S
O543   Zn550   1.928   .     S
O544   Zn551   1.937   .     S
O545   Zn552   1.930   .     S
O546   Zn549   1.922   .     S
O547   Zn550   1.937   .     S
O548   Zn551   1.934   .     S
C553   C563    1.438   .     S
C553   O614    1.271   .     A
C553   O612    1.272   .     A
C554   C555    1.390   .     A
C554   C578    1.408   .     A
C554   H597    1.081   .     S
C555   O608    1.380   .     S
C555   C1178   1.414   .     S
C556   O613    1.280   .     A
C556   O615    1.276   .     A
C556   C562    1.455   .     S
C557   C558    1.421   .     A
C557   C559    1.405   .     A
C557   C1176   1.414   1_554 S
C558   C579    1.425   .     A
C558   C561    1.415   .     A
C559   C560    1.391   .     A
C559   H591    1.081   .     S
C560   C572    1.415   .     A
C560   O607    1.384   .     S
C561   O606    1.387   .     S
C561   C572    1.415   .     A
C562   C425    1.335   1_655 S
C562   H454    1.088   1_655 S
C564   C571    1.401   .     A
C564   H596    1.083   .     S
C564   C573    1.390   .     A
C565   C568    1.467   .     S
C565   C152    1.335   1_565 S
C565   O191    1.386   1_565 S
C566   C567    1.438   .     S
C567   O616    1.276   .     A
C567   O610    1.277   .     A
C568   O617    1.270   .     A
C568   O611    1.276   .     A
C569   O603    1.272   .     A
C569   C572    1.460   .     S
C569   O601    1.273   .     A
C570   O604    1.285   .     A
C570   O602    1.284   .     A
C570   C571    1.470   .     S
C571   C575    1.412   .     A
C573   H595    1.084   .     S
C573   C577    1.400   .     A
C574   H588    1.111   .     S
C574   H587    1.111   .     S
C574   N599    1.448   .     S
C574   H589    1.110   .     S
C575   C576    1.422   .     A
C575   N599    1.432   .     S
C576   C577    1.415   .     A
C576   C578    1.421   .     A
C577   C1202   1.395   .     S
C578   C1200   1.416   .     S
C579   C580    1.422   .     A
C579   C1199   1.416   1_554 S
C580   C581    1.403   .     A
C580   O609    1.383   .     S
C581   H582    1.085   .     S
C581   C1198   1.395   1_554 S
H583   O606    0.988   .     S
H584   O607    0.988   .     S
H585   O608    0.989   .     S
H586   N599    1.028   .     S
H590   O609    0.992   .     S
H593   C425    1.086   1_655 S
H594   C152    1.086   1_565 S
H598   O191    0.990   1_565 S
O600   Zn621   1.937   .     S
O600   Zn620   1.929   .     S
O600   Zn619   1.942   .     S
O600   Zn618   1.958   .     S
O601   Zn619   1.928   .     S
O602   Zn621   1.937   .     S
O603   Zn620   1.934   .     S
O604   Zn618   1.927   .     S
O610   Zn618   1.929   .     S
O611   Zn621   1.929   .     S
O612   Zn619   1.928   .     S
O613   Zn620   1.937   .     S
O614   Zn621   1.930   .     S
O615   Zn618   1.922   .     S
O616   Zn619   1.937   .     S
O617   Zn620   1.934   .     S
C622   C632    1.438   .     S
C622   O683    1.271   .     A
C622   O681    1.272   .     A
C623   C624    1.390   .     A
C623   C647    1.408   .     A
C623   H666    1.081   .     S
C624   O677    1.380   .     S
C624   C5      1.414   1_556 S
C625   O682    1.280   .     A
C625   O684    1.276   .     A
C625   C631    1.455   .     S
C626   C627    1.421   .     A
C626   C628    1.405   .     A
C627   C648    1.425   .     A
C627   C630    1.415   .     A
C628   C629    1.391   .     A
C628   H660    1.081   .     S
C629   C641    1.415   .     A
C629   O676    1.384   .     S
C630   O675    1.387   .     S
C630   C641    1.415   .     A
C631   C701    1.335   .     S
C631   H730    1.088   .     S
C632   C769    1.335   1_455 S
C632   H800    1.086   1_455 S
C633   C640    1.401   .     A
C633   H665    1.083   .     S
C633   C642    1.390   .     A
C634   C637    1.467   .     S
C634   C842    1.335   .     S
C634   O881    1.386   .     S
C635   C636    1.438   .     S
C635   C1048   1.335   1_545 S
C635   H1077   1.086   1_545 S
C636   O685    1.276   .     A
C636   O679    1.277   .     A
C637   O686    1.270   .     A
C637   O680    1.276   .     A
C638   O672    1.272   .     A
C638   C641    1.460   .     S
C638   O670    1.273   .     A
C639   O673    1.285   .     A
C639   O671    1.284   .     A
C639   C640    1.470   .     S
C640   C644    1.412   .     A
C642   H664    1.084   .     S
C642   C646    1.400   .     A
C643   H657    1.111   .     S
C643   H656    1.111   .     S
C643   N668    1.448   .     S
C643   H658    1.110   .     S
C644   C645    1.422   .     A
C644   N668    1.432   .     S
C645   C646    1.415   .     A
C645   C647    1.421   .     A
C646   C29     1.395   1_556 S
C647   C27     1.416   1_556 S
C648   C649    1.422   .     A
C649   C650    1.403   .     A
C649   O678    1.383   .     S
C650   H651    1.085   .     S
H652   O675    0.988   .     S
H653   O676    0.988   .     S
H654   O677    0.989   .     S
H655   N668    1.028   .     S
H659   O678    0.992   .     S
H661   C769    1.088   1_455 S
H662   C701    1.086   .     S
H663   C842    1.086   .     S
H667   O881    0.990   .     S
O669   Zn690   1.937   .     S
O669   Zn689   1.929   .     S
O669   Zn688   1.942   .     S
O669   Zn687   1.958   .     S
O670   Zn688   1.928   .     S
O671   Zn690   1.937   .     S
O672   Zn689   1.934   .     S
O673   Zn687   1.927   .     S
O674   C1048   1.386   1_545 S
O674   H1081   0.990   1_545 S
O679   Zn687   1.929   .     S
O680   Zn690   1.929   .     S
O681   Zn688   1.928   .     S
O682   Zn689   1.937   .     S
O683   Zn690   1.930   .     S
O684   Zn687   1.922   .     S
O685   Zn688   1.937   .     S
O686   Zn689   1.934   .     S
C691   C701    1.438   .     S
C691   O752    1.271   .     A
C691   O750    1.272   .     A
C692   C693    1.390   .     A
C692   C716    1.408   .     A
C692   H735    1.081   .     S
C693   O746    1.380   .     S
C693   C74     1.414   1_556 S
C694   O751    1.280   .     A
C694   O753    1.276   .     A
C694   C700    1.455   .     S
C695   C696    1.421   .     A
C695   C697    1.405   .     A
C696   C717    1.425   .     A
C696   C699    1.415   .     A
C697   C698    1.391   .     A
C697   H729    1.081   .     S
C698   C710    1.415   .     A
C698   O745    1.384   .     S
C699   O744    1.387   .     S
C699   C710    1.415   .     A
C700   C770    1.335   .     S
C700   H799    1.088   .     S
C702   C709    1.401   .     A
C702   H734    1.083   .     S
C702   C711    1.390   .     A
C703   C706    1.467   .     S
C703   C911    1.335   .     S
C703   O950    1.386   .     S
C704   C705    1.438   .     S
C704   C1117   1.335   1_545 S
C704   H1146   1.086   1_545 S
C705   O754    1.276   .     A
C705   O748    1.277   .     A
C706   O755    1.270   .     A
C706   O749    1.276   .     A
C707   O741    1.272   .     A
C707   C710    1.460   .     S
C707   O739    1.273   .     A
C708   O742    1.285   .     A
C708   O740    1.284   .     A
C708   C709    1.470   .     S
C709   C713    1.412   .     A
C711   H733    1.084   .     S
C711   C715    1.400   .     A
C712   H726    1.111   .     S
C712   H725    1.111   .     S
C712   N737    1.448   .     S
C712   H727    1.110   .     S
C713   C714    1.422   .     A
C713   N737    1.432   .     S
C714   C715    1.415   .     A
C714   C716    1.421   .     A
C715   C98     1.395   1_556 S
C716   C96     1.416   1_556 S
C717   C718    1.422   .     A
C718   C719    1.403   .     A
C718   O747    1.383   .     S
C719   H720    1.085   .     S
H721   O744    0.988   .     S
H722   O745    0.988   .     S
H723   O746    0.989   .     S
H724   N737    1.028   .     S
H728   O747    0.992   .     S
H731   C770    1.086   .     S
H732   C911    1.086   .     S
H736   O950    0.990   .     S
O738   Zn759   1.937   .     S
O738   Zn758   1.929   .     S
O738   Zn757   1.942   .     S
O738   Zn756   1.958   .     S
O739   Zn757   1.928   .     S
O740   Zn759   1.937   .     S
O741   Zn758   1.934   .     S
O742   Zn756   1.927   .     S
O743   C1117   1.386   1_545 S
O743   H1150   0.990   1_545 S
O748   Zn756   1.929   .     S
O749   Zn759   1.929   .     S
O750   Zn757   1.928   .     S
O751   Zn758   1.937   .     S
O752   Zn759   1.930   .     S
O753   Zn756   1.922   .     S
O754   Zn757   1.937   .     S
O755   Zn758   1.934   .     S
C760   C770    1.438   .     S
C760   O821    1.271   .     A
C760   O819    1.272   .     A
C761   C762    1.390   .     A
C761   C785    1.408   .     A
C761   H804    1.081   .     S
C762   O815    1.380   .     S
C762   C143    1.414   1_556 S
C763   O820    1.280   .     A
C763   O822    1.276   .     A
C763   C769    1.455   .     S
C764   C765    1.421   .     A
C764   C766    1.405   .     A
C765   C786    1.425   .     A
C765   C768    1.415   .     A
C766   C767    1.391   .     A
C766   H798    1.081   .     S
C767   C779    1.415   .     A
C767   O814    1.384   .     S
C768   O813    1.387   .     S
C768   C779    1.415   .     A
C769   C632    1.335   1_655 S
C769   H661    1.088   1_655 S
C771   C778    1.401   .     A
C771   H803    1.083   .     S
C771   C780    1.390   .     A
C772   C775    1.467   .     S
C772   C980    1.335   .     S
C772   O1019   1.386   .     S
C773   C774    1.438   .     S
C773   C1186   1.335   1_545 S
C773   H1215   1.086   1_545 S
C774   O823    1.276   .     A
C774   O817    1.277   .     A
C775   O824    1.270   .     A
C775   O818    1.276   .     A
C776   O810    1.272   .     A
C776   C779    1.460   .     S
C776   O808    1.273   .     A
C777   O811    1.285   .     A
C777   O809    1.284   .     A
C777   C778    1.470   .     S
C778   C782    1.412   .     A
C780   H802    1.084   .     S
C780   C784    1.400   .     A
C781   H795    1.111   .     S
C781   H794    1.111   .     S
C781   N806    1.448   .     S
C781   H796    1.110   .     S
C782   C783    1.422   .     A
C782   N806    1.432   .     S
C783   C784    1.415   .     A
C783   C785    1.421   .     A
C784   C167    1.395   1_556 S
C785   C165    1.416   1_556 S
C786   C787    1.422   .     A
C787   C788    1.403   .     A
C787   O816    1.383   .     S
C788   H789    1.085   .     S
H790   O813    0.988   .     S
H791   O814    0.988   .     S
H792   O815    0.989   .     S
H793   N806    1.028   .     S
H797   O816    0.992   .     S
H800   C632    1.086   1_655 S
H801   C980    1.086   .     S
H805   O1019   0.990   .     S
O807   Zn828   1.937   .     S
O807   Zn827   1.929   .     S
O807   Zn826   1.942   .     S
O807   Zn825   1.958   .     S
O808   Zn826   1.928   .     S
O809   Zn828   1.937   .     S
O810   Zn827   1.934   .     S
O811   Zn825   1.927   .     S
O812   C1186   1.386   1_545 S
O812   H1219   0.990   1_545 S
O817   Zn825   1.929   .     S
O818   Zn828   1.929   .     S
O819   Zn826   1.928   .     S
O820   Zn827   1.937   .     S
O821   Zn828   1.930   .     S
O822   Zn825   1.922   .     S
O823   Zn826   1.937   .     S
O824   Zn827   1.934   .     S
C829   C839    1.438   .     S
C829   O890    1.271   .     A
C829   O888    1.272   .     A
C830   C831    1.390   .     A
C830   C854    1.408   .     A
C830   H873    1.081   .     S
C831   O884    1.380   .     S
C831   C212    1.414   1_556 S
C832   O889    1.280   .     A
C832   O891    1.276   .     A
C832   C838    1.455   .     S
C833   C834    1.421   .     A
C833   C835    1.405   .     A
C834   C855    1.425   .     A
C834   C837    1.415   .     A
C835   C836    1.391   .     A
C835   H867    1.081   .     S
C836   C848    1.415   .     A
C836   O883    1.384   .     S
C837   O882    1.387   .     S
C837   C848    1.415   .     A
C838   C908    1.335   .     S
C838   H937    1.088   .     S
C839   C976    1.335   1_455 S
C839   H1007   1.086   1_455 S
C840   C847    1.401   .     A
C840   H872    1.083   .     S
C840   C849    1.390   .     A
C841   C844    1.467   .     S
C841   C1049   1.335   .     S
C841   O1088   1.386   .     S
C842   C843    1.438   .     S
C843   O892    1.276   .     A
C843   O886    1.277   .     A
C844   O893    1.270   .     A
C844   O887    1.276   .     A
C845   O879    1.272   .     A
C845   C848    1.460   .     S
C845   O877    1.273   .     A
C846   O880    1.285   .     A
C846   O878    1.284   .     A
C846   C847    1.470   .     S
C847   C851    1.412   .     A
C849   H871    1.084   .     S
C849   C853    1.400   .     A
C850   H864    1.111   .     S
C850   H863    1.111   .     S
C850   N875    1.448   .     S
C850   H865    1.110   .     S
C851   C852    1.422   .     A
C851   N875    1.432   .     S
C852   C853    1.415   .     A
C852   C854    1.421   .     A
C853   C236    1.395   1_556 S
C854   C234    1.416   1_556 S
C855   C856    1.422   .     A
C856   C857    1.403   .     A
C856   O885    1.383   .     S
C857   H858    1.085   .     S
H859   O882    0.988   .     S
H860   O883    0.988   .     S
H861   O884    0.989   .     S
H862   N875    1.028   .     S
H866   O885    0.992   .     S
H868   C976    1.088   1_455 S
H869   C908    1.086   .     S
H870   C1049   1.086   .     S
H874   O1088   0.990   .     S
O876   Zn897   1.937   .     S
O876   Zn896   1.929   .     S
O876   Zn895   1.942   .     S
O876   Zn894   1.958   .     S
O877   Zn895   1.928   .     S
O878   Zn897   1.937   .     S
O879   Zn896   1.934   .     S
O880   Zn894   1.927   .     S
O886   Zn894   1.929   .     S
O887   Zn897   1.929   .     S
O888   Zn895   1.928   .     S
O889   Zn896   1.937   .     S
O890   Zn897   1.930   .     S
O891   Zn894   1.922   .     S
O892   Zn895   1.937   .     S
O893   Zn896   1.934   .     S
C898   C908    1.438   .     S
C898   O959    1.271   .     A
C898   O957    1.272   .     A
C899   C900    1.390   .     A
C899   C923    1.408   .     A
C899   H942    1.081   .     S
C900   O953    1.380   .     S
C900   C281    1.414   1_556 S
C901   O958    1.280   .     A
C901   O960    1.276   .     A
C901   C907    1.455   .     S
C902   C903    1.421   .     A
C902   C904    1.405   .     A
C903   C924    1.425   .     A
C903   C906    1.415   .     A
C904   C905    1.391   .     A
C904   H936    1.081   .     S
C905   C917    1.415   .     A
C905   O952    1.384   .     S
C906   O951    1.387   .     S
C906   C917    1.415   .     A
C907   C977    1.335   .     S
C907   H1006   1.088   .     S
C909   C916    1.401   .     A
C909   H941    1.083   .     S
C909   C918    1.390   .     A
C910   C913    1.467   .     S
C910   C1118   1.335   .     S
C910   O1157   1.386   .     S
C911   C912    1.438   .     S
C912   O961    1.276   .     A
C912   O955    1.277   .     A
C913   O962    1.270   .     A
C913   O956    1.276   .     A
C914   O948    1.272   .     A
C914   C917    1.460   .     S
C914   O946    1.273   .     A
C915   O949    1.285   .     A
C915   O947    1.284   .     A
C915   C916    1.470   .     S
C916   C920    1.412   .     A
C918   H940    1.084   .     S
C918   C922    1.400   .     A
C919   H933    1.111   .     S
C919   H932    1.111   .     S
C919   N944    1.448   .     S
C919   H934    1.110   .     S
C920   C921    1.422   .     A
C920   N944    1.432   .     S
C921   C922    1.415   .     A
C921   C923    1.421   .     A
C922   C305    1.395   1_556 S
C923   C303    1.416   1_556 S
C924   C925    1.422   .     A
C925   C926    1.403   .     A
C925   O954    1.383   .     S
C926   H927    1.085   .     S
H928   O951    0.988   .     S
H929   O952    0.988   .     S
H930   O953    0.989   .     S
H931   N944    1.028   .     S
H935   O954    0.992   .     S
H938   C977    1.086   .     S
H939   C1118   1.086   .     S
H943   O1157   0.990   .     S
O945   Zn966   1.937   .     S
O945   Zn965   1.929   .     S
O945   Zn964   1.942   .     S
O945   Zn963   1.958   .     S
O946   Zn964   1.928   .     S
O947   Zn966   1.937   .     S
O948   Zn965   1.934   .     S
O949   Zn963   1.927   .     S
O955   Zn963   1.929   .     S
O956   Zn966   1.929   .     S
O957   Zn964   1.928   .     S
O958   Zn965   1.937   .     S
O959   Zn966   1.930   .     S
O960   Zn963   1.922   .     S
O961   Zn964   1.937   .     S
O962   Zn965   1.934   .     S
C967   C977    1.438   .     S
C967   O1028   1.271   .     A
C967   O1026   1.272   .     A
C968   C969    1.390   .     A
C968   C992    1.408   .     A
C968   H1011   1.081   .     S
C969   O1022   1.380   .     S
C969   C350    1.414   1_556 S
C970   O1027   1.280   .     A
C970   O1029   1.276   .     A
C970   C976    1.455   .     S
C971   C972    1.421   .     A
C971   C973    1.405   .     A
C972   C993    1.425   .     A
C972   C975    1.415   .     A
C973   C974    1.391   .     A
C973   H1005   1.081   .     S
C974   C986    1.415   .     A
C974   O1021   1.384   .     S
C975   O1020   1.387   .     S
C975   C986    1.415   .     A
C976   C839    1.335   1_655 S
C976   H868    1.088   1_655 S
C978   C985    1.401   .     A
C978   H1010   1.083   .     S
C978   C987    1.390   .     A
C979   C982    1.467   .     S
C979   C1187   1.335   .     S
C979   O1226   1.386   .     S
C980   C981    1.438   .     S
C981   O1030   1.276   .     A
C981   O1024   1.277   .     A
C982   O1031   1.270   .     A
C982   O1025   1.276   .     A
C983   O1017   1.272   .     A
C983   C986    1.460   .     S
C983   O1015   1.273   .     A
C984   O1018   1.285   .     A
C984   O1016   1.284   .     A
C984   C985    1.470   .     S
C985   C989    1.412   .     A
C987   H1009   1.084   .     S
C987   C991    1.400   .     A
C988   H1002   1.111   .     S
C988   H1001   1.111   .     S
C988   N1013   1.448   .     S
C988   H1003   1.110   .     S
C989   C990    1.422   .     A
C989   N1013   1.432   .     S
C990   C991    1.415   .     A
C990   C992    1.421   .     A
C991   C374    1.395   1_556 S
C992   C372    1.416   1_556 S
C993   C994    1.422   .     A
C994   C995    1.403   .     A
C994   O1023   1.383   .     S
C995   H996    1.085   .     S
H997   O1020   0.988   .     S
H998   O1021   0.988   .     S
H999   O1022   0.989   .     S
H1000  N1013   1.028   .     S
H1004  O1023   0.992   .     S
H1007  C839    1.086   1_655 S
H1008  C1187   1.086   .     S
H1012  O1226   0.990   .     S
O1014  Zn1035  1.937   .     S
O1014  Zn1034  1.929   .     S
O1014  Zn1033  1.942   .     S
O1014  Zn1032  1.958   .     S
O1015  Zn1033  1.928   .     S
O1016  Zn1035  1.937   .     S
O1017  Zn1034  1.934   .     S
O1018  Zn1032  1.927   .     S
O1024  Zn1032  1.929   .     S
O1025  Zn1035  1.929   .     S
O1026  Zn1033  1.928   .     S
O1027  Zn1034  1.937   .     S
O1028  Zn1035  1.930   .     S
O1029  Zn1032  1.922   .     S
O1030  Zn1033  1.937   .     S
O1031  Zn1034  1.934   .     S
C1036  C1046   1.438   .     S
C1036  O1097   1.271   .     A
C1036  O1095   1.272   .     A
C1037  C1038   1.390   .     A
C1037  C1061   1.408   .     A
C1037  H1080   1.081   .     S
C1038  O1091   1.380   .     S
C1038  C419    1.414   1_556 S
C1039  O1096   1.280   .     A
C1039  O1098   1.276   .     A
C1039  C1045   1.455   .     S
C1040  C1041   1.421   .     A
C1040  C1042   1.405   .     A
C1041  C1062   1.425   .     A
C1041  C1044   1.415   .     A
C1042  C1043   1.391   .     A
C1042  H1074   1.081   .     S
C1043  C1055   1.415   .     A
C1043  O1090   1.384   .     S
C1044  O1089   1.387   .     S
C1044  C1055   1.415   .     A
C1045  C1115   1.335   .     S
C1045  H1144   1.088   .     S
C1046  C1183   1.335   1_455 S
C1046  H1214   1.086   1_455 S
C1047  C1054   1.401   .     A
C1047  H1079   1.083   .     S
C1047  C1056   1.390   .     A
C1048  C1051   1.467   .     S
C1048  C635    1.335   1_565 S
C1048  O674    1.386   1_565 S
C1049  C1050   1.438   .     S
C1050  O1099   1.276   .     A
C1050  O1093   1.277   .     A
C1051  O1100   1.270   .     A
C1051  O1094   1.276   .     A
C1052  O1086   1.272   .     A
C1052  C1055   1.460   .     S
C1052  O1084   1.273   .     A
C1053  O1087   1.285   .     A
C1053  O1085   1.284   .     A
C1053  C1054   1.470   .     S
C1054  C1058   1.412   .     A
C1056  H1078   1.084   .     S
C1056  C1060   1.400   .     A
C1057  H1071   1.111   .     S
C1057  H1070   1.111   .     S
C1057  N1082   1.448   .     S
C1057  H1072   1.110   .     S
C1058  C1059   1.422   .     A
C1058  N1082   1.432   .     S
C1059  C1060   1.415   .     A
C1059  C1061   1.421   .     A
C1060  C443    1.395   1_556 S
C1061  C441    1.416   1_556 S
C1062  C1063   1.422   .     A
C1063  C1064   1.403   .     A
C1063  O1092   1.383   .     S
C1064  H1065   1.085   .     S
H1066  O1089   0.988   .     S
H1067  O1090   0.988   .     S
H1068  O1091   0.989   .     S
H1069  N1082   1.028   .     S
H1073  O1092   0.992   .     S
H1075  C1183   1.088   1_455 S
H1076  C1115   1.086   .     S
H1077  C635    1.086   1_565 S
H1081  O674    0.990   1_565 S
O1083  Zn1104  1.937   .     S
O1083  Zn1103  1.929   .     S
O1083  Zn1102  1.942   .     S
O1083  Zn1101  1.958   .     S
O1084  Zn1102  1.928   .     S
O1085  Zn1104  1.937   .     S
O1086  Zn1103  1.934   .     S
O1087  Zn1101  1.927   .     S
O1093  Zn1101  1.929   .     S
O1094  Zn1104  1.929   .     S
O1095  Zn1102  1.928   .     S
O1096  Zn1103  1.937   .     S
O1097  Zn1104  1.930   .     S
O1098  Zn1101  1.922   .     S
O1099  Zn1102  1.937   .     S
O1100  Zn1103  1.934   .     S
C1105  C1115   1.438   .     S
C1105  O1166   1.271   .     A
C1105  O1164   1.272   .     A
C1106  C1107   1.390   .     A
C1106  C1130   1.408   .     A
C1106  H1149   1.081   .     S
C1107  O1160   1.380   .     S
C1107  C488    1.414   1_556 S
C1108  O1165   1.280   .     A
C1108  O1167   1.276   .     A
C1108  C1114   1.455   .     S
C1109  C1110   1.421   .     A
C1109  C1111   1.405   .     A
C1110  C1131   1.425   .     A
C1110  C1113   1.415   .     A
C1111  C1112   1.391   .     A
C1111  H1143   1.081   .     S
C1112  C1124   1.415   .     A
C1112  O1159   1.384   .     S
C1113  O1158   1.387   .     S
C1113  C1124   1.415   .     A
C1114  C1184   1.335   .     S
C1114  H1213   1.088   .     S
C1116  C1123   1.401   .     A
C1116  H1148   1.083   .     S
C1116  C1125   1.390   .     A
C1117  C1120   1.467   .     S
C1117  C704    1.335   1_565 S
C1117  O743    1.386   1_565 S
C1118  C1119   1.438   .     S
C1119  O1168   1.276   .     A
C1119  O1162   1.277   .     A
C1120  O1169   1.270   .     A
C1120  O1163   1.276   .     A
C1121  O1155   1.272   .     A
C1121  C1124   1.460   .     S
C1121  O1153   1.273   .     A
C1122  O1156   1.285   .     A
C1122  O1154   1.284   .     A
C1122  C1123   1.470   .     S
C1123  C1127   1.412   .     A
C1125  H1147   1.084   .     S
C1125  C1129   1.400   .     A
C1126  H1140   1.111   .     S
C1126  H1139   1.111   .     S
C1126  N1151   1.448   .     S
C1126  H1141   1.110   .     S
C1127  C1128   1.422   .     A
C1127  N1151   1.432   .     S
C1128  C1129   1.415   .     A
C1128  C1130   1.421   .     A
C1129  C512    1.395   1_556 S
C1130  C510    1.416   1_556 S
C1131  C1132   1.422   .     A
C1132  C1133   1.403   .     A
C1132  O1161   1.383   .     S
C1133  H1134   1.085   .     S
H1135  O1158   0.988   .     S
H1136  O1159   0.988   .     S
H1137  O1160   0.989   .     S
H1138  N1151   1.028   .     S
H1142  O1161   0.992   .     S
H1145  C1184   1.086   .     S
H1146  C704    1.086   1_565 S
H1150  O743    0.990   1_565 S
O1152  Zn1173  1.937   .     S
O1152  Zn1172  1.929   .     S
O1152  Zn1171  1.942   .     S
O1152  Zn1170  1.958   .     S
O1153  Zn1171  1.928   .     S
O1154  Zn1173  1.937   .     S
O1155  Zn1172  1.934   .     S
O1156  Zn1170  1.927   .     S
O1162  Zn1170  1.929   .     S
O1163  Zn1173  1.929   .     S
O1164  Zn1171  1.928   .     S
O1165  Zn1172  1.937   .     S
O1166  Zn1173  1.930   .     S
O1167  Zn1170  1.922   .     S
O1168  Zn1171  1.937   .     S
O1169  Zn1172  1.934   .     S
C1174  C1184   1.438   .     S
C1174  O1235   1.271   .     A
C1174  O1233   1.272   .     A
C1175  C1176   1.390   .     A
C1175  C1199   1.408   .     A
C1175  H1218   1.081   .     S
C1176  O1229   1.380   .     S
C1176  C557    1.414   1_556 S
C1177  O1234   1.280   .     A
C1177  O1236   1.276   .     A
C1177  C1183   1.455   .     S
C1178  C1179   1.421   .     A
C1178  C1180   1.405   .     A
C1179  C1200   1.425   .     A
C1179  C1182   1.415   .     A
C1180  C1181   1.391   .     A
C1180  H1212   1.081   .     S
C1181  C1193   1.415   .     A
C1181  O1228   1.384   .     S
C1182  O1227   1.387   .     S
C1182  C1193   1.415   .     A
C1183  C1046   1.335   1_655 S
C1183  H1075   1.088   1_655 S
C1185  C1192   1.401   .     A
C1185  H1217   1.083   .     S
C1185  C1194   1.390   .     A
C1186  C1189   1.467   .     S
C1186  C773    1.335   1_565 S
C1186  O812    1.386   1_565 S
C1187  C1188   1.438   .     S
C1188  O1237   1.276   .     A
C1188  O1231   1.277   .     A
C1189  O1238   1.270   .     A
C1189  O1232   1.276   .     A
C1190  O1224   1.272   .     A
C1190  C1193   1.460   .     S
C1190  O1222   1.273   .     A
C1191  O1225   1.285   .     A
C1191  O1223   1.284   .     A
C1191  C1192   1.470   .     S
C1192  C1196   1.412   .     A
C1194  H1216   1.084   .     S
C1194  C1198   1.400   .     A
C1195  H1209   1.111   .     S
C1195  H1208   1.111   .     S
C1195  N1220   1.448   .     S
C1195  H1210   1.110   .     S
C1196  C1197   1.422   .     A
C1196  N1220   1.432   .     S
C1197  C1198   1.415   .     A
C1197  C1199   1.421   .     A
C1198  C581    1.395   1_556 S
C1199  C579    1.416   1_556 S
C1200  C1201   1.422   .     A
C1201  C1202   1.403   .     A
C1201  O1230   1.383   .     S
C1202  H1203   1.085   .     S
H1204  O1227   0.988   .     S
H1205  O1228   0.988   .     S
H1206  O1229   0.989   .     S
H1207  N1220   1.028   .     S
H1211  O1230   0.992   .     S
H1214  C1046   1.086   1_655 S
H1215  C773    1.086   1_565 S
H1219  O812    0.990   1_565 S
O1221  Zn1242  1.937   .     S
O1221  Zn1241  1.929   .     S
O1221  Zn1240  1.942   .     S
O1221  Zn1239  1.958   .     S
O1222  Zn1240  1.928   .     S
O1223  Zn1242  1.937   .     S
O1224  Zn1241  1.934   .     S
O1225  Zn1239  1.927   .     S
O1231  Zn1239  1.929   .     S
O1232  Zn1242  1.929   .     S
O1233  Zn1240  1.928   .     S
O1234  Zn1241  1.937   .     S
O1235  Zn1242  1.930   .     S
O1236  Zn1239  1.922   .     S
O1237  Zn1240  1.937   .     S
O1238  Zn1241  1.934   .     S
