data_str_m3_o1_o17_pcu_sym.55
_audit_creation_date              2020-01-03
_audit_creation_method            'Materials Studio'
_symmetry_space_group_name_H-M    'P1'
_symmetry_Int_Tables_number       1
_symmetry_cell_setting            triclinic
loop_
_symmetry_equiv_pos_as_xyz
  x,y,z
_cell_length_a                    32.1519
_cell_length_b                    29.8787
_cell_length_c                    29.8185
_cell_angle_alpha                 90.6236
_cell_angle_beta                  91.6338
_cell_angle_gamma                 89.9023
loop_
_atom_site_label
_atom_site_type_symbol
_atom_site_fract_x
_atom_site_fract_y
_atom_site_fract_z
_atom_site_U_iso_or_equiv
_atom_site_adp_type
_atom_site_occupancy
C1     C     0.08675   0.16670   0.25015   0.00000  Uiso   1.00
C2     C     0.04253   0.16672   0.25027   0.00000  Uiso   1.00
C3     C     0.18696   0.02429   0.28346   0.00000  Uiso   1.00
C4     C     0.14643   0.30904   0.21650   0.00000  Uiso   1.00
C5     C     0.14645   0.02351   0.21650   0.00000  Uiso   1.00
C6     C     0.18688   0.30982   0.28350   0.00000  Uiso   1.00
C7     C     0.16647   0.16652   0.16359   0.00000  Uiso   1.00
C8     C     0.16682   0.16680   0.33641   0.00000  Uiso   1.00
C9     C     0.19628   0.19209   0.40808   0.00000  Uiso   1.00
C10    C     0.13802   0.14030   0.09190   0.00000  Uiso   1.00
C11    C     0.16692   0.16668   0.38416   0.00000  Uiso   1.00
C12    C     0.24658   0.16664   0.24976   0.00000  Uiso   1.00
C13    C     0.16682   0.16636   0.11586   0.00000  Uiso   1.00
C14    C     0.13852   0.13968   0.40552   0.00000  Uiso   1.00
C15    C     0.19584   0.19261   0.09456   0.00000  Uiso   1.00
C16    C     0.13865   0.13832   0.45209   0.00000  Uiso   1.00
C17    C     0.19725   0.19206   0.04799   0.00000  Uiso   1.00
C18    C     0.16787   0.16507   0.47668   0.00000  Uiso   1.00
C19    C     0.16798   0.16539   0.02338   0.00000  Uiso   1.00
C20    C     0.19685   0.19178   0.45446   0.00000  Uiso   1.00
C21    C     0.13842   0.13941   0.04557   0.00000  Uiso   1.00
C22    C     0.10992   0.11159   0.47460   0.00000  Uiso   1.00
C23    C     0.10971   0.11292   0.02135   0.00000  Uiso   1.00
C24    C     0.22681   0.21773   0.02551   0.00000  Uiso   1.00
C25    C     0.09731   0.04036   0.43826   0.00000  Uiso   1.00
C26    C     0.29388   0.21913   0.06355   0.00000  Uiso   1.00
C27    C     0.20964   0.04859   0.31979   0.00000  Uiso   1.00
C28    C     0.12401   0.28473   0.17999   0.00000  Uiso   1.00
C29    C     0.12399   0.04684   0.18000   0.00000  Uiso   1.00
C30    C     0.20937   0.28648   0.31998   0.00000  Uiso   1.00
C31    C     0.22599   0.21771   0.47871   0.00000  Uiso   1.00
C32    C     0.02142   0.12600   0.25247   0.00000  Uiso   1.00
C33    C     0.31190   0.20733   0.24710   0.00000  Uiso   1.00
C34    C     0.31217   0.12593   0.25174   0.00000  Uiso   1.00
C35    C     0.02115   0.20740   0.24781   0.00000  Uiso   1.00
C36    C     0.29079   0.16661   0.24940   0.00000  Uiso   1.00
H37    H     0.21909   0.21129   0.39052   0.00000  Uiso   1.00
H38    H     0.03710   0.23921   0.24643   0.00000  Uiso   1.00
H39    H     0.05255   0.08121   0.46569   0.00000  Uiso   1.00
H40    H     0.10486   0.02067   0.46886   0.00000  Uiso   1.00
H41    H     0.12575   0.04399   0.41837   0.00000  Uiso   1.00
H42    H     0.07372   0.02184   0.41748   0.00000  Uiso   1.00
H43    H     0.26455   0.27328   0.03384   0.00000  Uiso   1.00
H44    H     0.31092   0.20734   0.03372   0.00000  Uiso   1.00
H45    H     0.28542   0.18987   0.08406   0.00000  Uiso   1.00
H46    H     0.31473   0.24115   0.08427   0.00000  Uiso   1.00
H47    H     0.21178   0.06737   0.38499   0.00000  Uiso   1.00
H48    H     0.11481   0.12158   0.10938   0.00000  Uiso   1.00
H49    H     0.12236   0.26593   0.11480   0.00000  Uiso   1.00
H50    H     0.07185   0.07913   0.15944   0.00000  Uiso   1.00
H51    H     0.26159   0.25431   0.34050   0.00000  Uiso   1.00
H52    H     0.11616   0.12038   0.38548   0.00000  Uiso   1.00
H53    H     0.21733   0.21297   0.11463   0.00000  Uiso   1.00
H54    H     0.08741   0.09276   0.03876   0.00000  Uiso   1.00
H55    H     0.24839   0.23775   0.46130   0.00000  Uiso   1.00
H56    H     0.03760   0.09426   0.25486   0.00000  Uiso   1.00
H57    H     0.29571   0.23907   0.24474   0.00000  Uiso   1.00
H58    H     0.29623   0.09412   0.25310   0.00000  Uiso   1.00
N59    N     0.16667   0.28573   0.25000   0.00000  Uiso   1.00
N60    N     0.16667   0.04760   0.25000   0.00000  Uiso   1.00
N61    N     0.08090   0.08377   0.45054   0.00000  Uiso   1.00
N62    N     0.25711   0.24390   0.04961   0.00000  Uiso   1.00
O63    O     0.10559   0.20487   0.25000   0.00000  Uiso   1.00
O64    O     0.19330   0.05023   0.36271   0.00000  Uiso   1.00
O65    O     0.09029   0.26774   0.18670   0.00000  Uiso   1.00
O66    O     0.14069   0.28309   0.13722   0.00000  Uiso   1.00
O67    O     0.13847   0.04704   0.14256   0.00000  Uiso   1.00
O68    O     0.08495   0.06551   0.18744   0.00000  Uiso   1.00
O69    O     0.19484   0.28611   0.35740   0.00000  Uiso   1.00
O70    O     0.24847   0.26796   0.31253   0.00000  Uiso   1.00
O71    O     0.22774   0.12846   0.25001   0.00000  Uiso   1.00
O72    O     0.22774   0.20487   0.25001   0.00000  Uiso   1.00
O73    O     0.10559   0.12846   0.25000   0.00000  Uiso   1.00
O74    O     0.16666   0.20489   0.18393   0.00000  Uiso   1.00
O75    O     0.16667   0.12844   0.31608   0.00000  Uiso   1.00
O76    O     0.16667   0.20489   0.31608   0.00000  Uiso   1.00
O77    O     0.16666   0.12844   0.18393   0.00000  Uiso   1.00
O78    O     0.24334   0.06551   0.31282   0.00000  Uiso   1.00
Zn79   Zn    0.16667   0.21771   0.25000   0.00000  Uiso   1.00
Zn80   Zn    0.16667   0.11563   0.25000   0.00000  Uiso   1.00
C81    C     0.42008   0.16670   0.25015   0.00000  Uiso   1.00
C82    C     0.37586   0.16672   0.25027   0.00000  Uiso   1.00
C83    C     0.52030   0.02429   0.28346   0.00000  Uiso   1.00
C84    C     0.47976   0.30904   0.21650   0.00000  Uiso   1.00
C85    C     0.47979   0.02351   0.21650   0.00000  Uiso   1.00
C86    C     0.52021   0.30982   0.28350   0.00000  Uiso   1.00
C87    C     0.49980   0.16652   0.16359   0.00000  Uiso   1.00
C88    C     0.50016   0.16680   0.33641   0.00000  Uiso   1.00
C89    C     0.52961   0.19209   0.40808   0.00000  Uiso   1.00
C90    C     0.47135   0.14030   0.09190   0.00000  Uiso   1.00
C91    C     0.50025   0.16668   0.38416   0.00000  Uiso   1.00
C92    C     0.57991   0.16664   0.24976   0.00000  Uiso   1.00
C93    C     0.50016   0.16636   0.11586   0.00000  Uiso   1.00
C94    C     0.47185   0.13968   0.40552   0.00000  Uiso   1.00
C95    C     0.52918   0.19261   0.09456   0.00000  Uiso   1.00
C96    C     0.47199   0.13832   0.45209   0.00000  Uiso   1.00
C97    C     0.53058   0.19206   0.04799   0.00000  Uiso   1.00
C98    C     0.50121   0.16507   0.47668   0.00000  Uiso   1.00
C99    C     0.50131   0.16539   0.02338   0.00000  Uiso   1.00
C100   C     0.53018   0.19178   0.45446   0.00000  Uiso   1.00
C101   C     0.47175   0.13941   0.04557   0.00000  Uiso   1.00
C102   C     0.44326   0.11159   0.47460   0.00000  Uiso   1.00
C103   C     0.44305   0.11292   0.02135   0.00000  Uiso   1.00
C104   C     0.56014   0.21773   0.02551   0.00000  Uiso   1.00
C105   C     0.43064   0.04036   0.43826   0.00000  Uiso   1.00
C106   C     0.62721   0.21913   0.06355   0.00000  Uiso   1.00
C107   C     0.54298   0.04859   0.31979   0.00000  Uiso   1.00
C108   C     0.45735   0.28473   0.17999   0.00000  Uiso   1.00
C109   C     0.45732   0.04684   0.18000   0.00000  Uiso   1.00
C110   C     0.54270   0.28648   0.31998   0.00000  Uiso   1.00
C111   C     0.55933   0.21771   0.47871   0.00000  Uiso   1.00
C112   C     0.35476   0.12600   0.25247   0.00000  Uiso   1.00
C113   C     0.64523   0.20733   0.24710   0.00000  Uiso   1.00
C114   C     0.64551   0.12593   0.25174   0.00000  Uiso   1.00
C115   C     0.35448   0.20740   0.24781   0.00000  Uiso   1.00
C116   C     0.62413   0.16661   0.24940   0.00000  Uiso   1.00
H117   H     0.55242   0.21129   0.39052   0.00000  Uiso   1.00
H118   H     0.37043   0.23921   0.24643   0.00000  Uiso   1.00
H119   H     0.38589   0.08121   0.46569   0.00000  Uiso   1.00
H120   H     0.43820   0.02067   0.46886   0.00000  Uiso   1.00
H121   H     0.45909   0.04399   0.41837   0.00000  Uiso   1.00
H122   H     0.40705   0.02184   0.41748   0.00000  Uiso   1.00
H123   H     0.59788   0.27328   0.03384   0.00000  Uiso   1.00
H124   H     0.64426   0.20734   0.03372   0.00000  Uiso   1.00
H125   H     0.61875   0.18987   0.08406   0.00000  Uiso   1.00
H126   H     0.64806   0.24115   0.08427   0.00000  Uiso   1.00
H127   H     0.54512   0.06737   0.38499   0.00000  Uiso   1.00
H128   H     0.44814   0.12158   0.10938   0.00000  Uiso   1.00
H129   H     0.45570   0.26593   0.11480   0.00000  Uiso   1.00
H130   H     0.40518   0.07913   0.15944   0.00000  Uiso   1.00
H131   H     0.59492   0.25431   0.34050   0.00000  Uiso   1.00
H132   H     0.44950   0.12038   0.38548   0.00000  Uiso   1.00
H133   H     0.55067   0.21297   0.11463   0.00000  Uiso   1.00
H134   H     0.42074   0.09276   0.03876   0.00000  Uiso   1.00
H135   H     0.58173   0.23775   0.46130   0.00000  Uiso   1.00
H136   H     0.37093   0.09426   0.25486   0.00000  Uiso   1.00
H137   H     0.62905   0.23907   0.24474   0.00000  Uiso   1.00
H138   H     0.62956   0.09412   0.25310   0.00000  Uiso   1.00
N139   N     0.50000   0.28573   0.25000   0.00000  Uiso   1.00
N140   N     0.50000   0.04760   0.25000   0.00000  Uiso   1.00
N141   N     0.41423   0.08377   0.45054   0.00000  Uiso   1.00
N142   N     0.59045   0.24390   0.04961   0.00000  Uiso   1.00
O143   O     0.43892   0.20487   0.25000   0.00000  Uiso   1.00
O144   O     0.52663   0.05023   0.36271   0.00000  Uiso   1.00
O145   O     0.42362   0.26774   0.18670   0.00000  Uiso   1.00
O146   O     0.47402   0.28309   0.13722   0.00000  Uiso   1.00
O147   O     0.47181   0.04704   0.14256   0.00000  Uiso   1.00
O148   O     0.41828   0.06551   0.18744   0.00000  Uiso   1.00
O149   O     0.52818   0.28611   0.35740   0.00000  Uiso   1.00
O150   O     0.58180   0.26796   0.31253   0.00000  Uiso   1.00
O151   O     0.56108   0.12846   0.25001   0.00000  Uiso   1.00
O152   O     0.56108   0.20487   0.25001   0.00000  Uiso   1.00
O153   O     0.43892   0.12846   0.25000   0.00000  Uiso   1.00
O154   O     0.49999   0.20489   0.18393   0.00000  Uiso   1.00
O155   O     0.50001   0.12844   0.31608   0.00000  Uiso   1.00
O156   O     0.50001   0.20489   0.31608   0.00000  Uiso   1.00
O157   O     0.49999   0.12844   0.18393   0.00000  Uiso   1.00
O158   O     0.57667   0.06551   0.31282   0.00000  Uiso   1.00
Zn159  Zn    0.50000   0.21771   0.25000   0.00000  Uiso   1.00
Zn160  Zn    0.50000   0.11563   0.25000   0.00000  Uiso   1.00
C161   C     0.75342   0.16670   0.25015   0.00000  Uiso   1.00
C162   C     0.70920   0.16672   0.25027   0.00000  Uiso   1.00
C163   C     0.85363   0.02429   0.28346   0.00000  Uiso   1.00
C164   C     0.81310   0.30904   0.21650   0.00000  Uiso   1.00
C165   C     0.81312   0.02351   0.21650   0.00000  Uiso   1.00
C166   C     0.85354   0.30982   0.28350   0.00000  Uiso   1.00
C167   C     0.83314   0.16652   0.16359   0.00000  Uiso   1.00
C168   C     0.83349   0.16680   0.33641   0.00000  Uiso   1.00
C169   C     0.86294   0.19209   0.40808   0.00000  Uiso   1.00
C170   C     0.80468   0.14030   0.09190   0.00000  Uiso   1.00
C171   C     0.83359   0.16668   0.38416   0.00000  Uiso   1.00
C172   C     0.91325   0.16664   0.24976   0.00000  Uiso   1.00
C173   C     0.83349   0.16636   0.11586   0.00000  Uiso   1.00
C174   C     0.80519   0.13968   0.40552   0.00000  Uiso   1.00
C175   C     0.86251   0.19261   0.09456   0.00000  Uiso   1.00
C176   C     0.80532   0.13832   0.45209   0.00000  Uiso   1.00
C177   C     0.86391   0.19206   0.04799   0.00000  Uiso   1.00
C178   C     0.83454   0.16507   0.47668   0.00000  Uiso   1.00
C179   C     0.83464   0.16539   0.02338   0.00000  Uiso   1.00
C180   C     0.86351   0.19178   0.45446   0.00000  Uiso   1.00
C181   C     0.80508   0.13941   0.04557   0.00000  Uiso   1.00
C182   C     0.77659   0.11159   0.47460   0.00000  Uiso   1.00
C183   C     0.77638   0.11292   0.02135   0.00000  Uiso   1.00
C184   C     0.89347   0.21773   0.02551   0.00000  Uiso   1.00
C185   C     0.76398   0.04036   0.43826   0.00000  Uiso   1.00
C186   C     0.96055   0.21913   0.06355   0.00000  Uiso   1.00
C187   C     0.87631   0.04859   0.31979   0.00000  Uiso   1.00
C188   C     0.79068   0.28473   0.17999   0.00000  Uiso   1.00
C189   C     0.79066   0.04684   0.18000   0.00000  Uiso   1.00
C190   C     0.87604   0.28648   0.31998   0.00000  Uiso   1.00
C191   C     0.89266   0.21771   0.47871   0.00000  Uiso   1.00
C192   C     0.68809   0.12600   0.25247   0.00000  Uiso   1.00
C193   C     0.97856   0.20733   0.24710   0.00000  Uiso   1.00
C194   C     0.97884   0.12593   0.25174   0.00000  Uiso   1.00
C195   C     0.68782   0.20740   0.24781   0.00000  Uiso   1.00
C196   C     0.95746   0.16661   0.24940   0.00000  Uiso   1.00
H197   H     0.88576   0.21129   0.39052   0.00000  Uiso   1.00
H198   H     0.70376   0.23921   0.24643   0.00000  Uiso   1.00
H199   H     0.71922   0.08121   0.46569   0.00000  Uiso   1.00
H200   H     0.77153   0.02067   0.46886   0.00000  Uiso   1.00
H201   H     0.79242   0.04399   0.41837   0.00000  Uiso   1.00
H202   H     0.74039   0.02184   0.41748   0.00000  Uiso   1.00
H203   H     0.93122   0.27328   0.03384   0.00000  Uiso   1.00
H204   H     0.97759   0.20734   0.03372   0.00000  Uiso   1.00
H205   H     0.95208   0.18987   0.08406   0.00000  Uiso   1.00
H206   H     0.98140   0.24115   0.08427   0.00000  Uiso   1.00
H207   H     0.87845   0.06737   0.38499   0.00000  Uiso   1.00
H208   H     0.78148   0.12158   0.10938   0.00000  Uiso   1.00
H209   H     0.78903   0.26593   0.11480   0.00000  Uiso   1.00
H210   H     0.73851   0.07913   0.15944   0.00000  Uiso   1.00
H211   H     0.92826   0.25431   0.34050   0.00000  Uiso   1.00
H212   H     0.78283   0.12038   0.38548   0.00000  Uiso   1.00
H213   H     0.88400   0.21297   0.11463   0.00000  Uiso   1.00
H214   H     0.75408   0.09276   0.03876   0.00000  Uiso   1.00
H215   H     0.91506   0.23775   0.46130   0.00000  Uiso   1.00
H216   H     0.70427   0.09426   0.25486   0.00000  Uiso   1.00
H217   H     0.96238   0.23907   0.24474   0.00000  Uiso   1.00
H218   H     0.96289   0.09412   0.25310   0.00000  Uiso   1.00
N219   N     0.83333   0.28573   0.25000   0.00000  Uiso   1.00
N220   N     0.83333   0.04760   0.25000   0.00000  Uiso   1.00
N221   N     0.74756   0.08377   0.45054   0.00000  Uiso   1.00
N222   N     0.92378   0.24390   0.04961   0.00000  Uiso   1.00
O223   O     0.77226   0.20487   0.25000   0.00000  Uiso   1.00
O224   O     0.85997   0.05023   0.36271   0.00000  Uiso   1.00
O225   O     0.75696   0.26774   0.18670   0.00000  Uiso   1.00
O226   O     0.80736   0.28309   0.13722   0.00000  Uiso   1.00
O227   O     0.80514   0.04704   0.14256   0.00000  Uiso   1.00
O228   O     0.75162   0.06551   0.18744   0.00000  Uiso   1.00
O229   O     0.86151   0.28611   0.35740   0.00000  Uiso   1.00
O230   O     0.91514   0.26796   0.31253   0.00000  Uiso   1.00
O231   O     0.89441   0.12846   0.25001   0.00000  Uiso   1.00
O232   O     0.89441   0.20487   0.25001   0.00000  Uiso   1.00
O233   O     0.77226   0.12846   0.25000   0.00000  Uiso   1.00
O234   O     0.83333   0.20489   0.18393   0.00000  Uiso   1.00
O235   O     0.83334   0.12844   0.31608   0.00000  Uiso   1.00
O236   O     0.83334   0.20489   0.31608   0.00000  Uiso   1.00
O237   O     0.83333   0.12844   0.18393   0.00000  Uiso   1.00
O238   O     0.91000   0.06551   0.31282   0.00000  Uiso   1.00
Zn239  Zn    0.83333   0.21771   0.25000   0.00000  Uiso   1.00
Zn240  Zn    0.83333   0.11563   0.25000   0.00000  Uiso   1.00
C241   C     0.08675   0.50003   0.25015   0.00000  Uiso   1.00
C242   C     0.04253   0.50005   0.25027   0.00000  Uiso   1.00
C243   C     0.18696   0.35762   0.28346   0.00000  Uiso   1.00
C244   C     0.14643   0.64238   0.21650   0.00000  Uiso   1.00
C245   C     0.14645   0.35684   0.21650   0.00000  Uiso   1.00
C246   C     0.18688   0.64315   0.28350   0.00000  Uiso   1.00
C247   C     0.16647   0.49985   0.16359   0.00000  Uiso   1.00
C248   C     0.16682   0.50013   0.33641   0.00000  Uiso   1.00
C249   C     0.19628   0.52542   0.40808   0.00000  Uiso   1.00
C250   C     0.13802   0.47364   0.09190   0.00000  Uiso   1.00
C251   C     0.16692   0.50001   0.38416   0.00000  Uiso   1.00
C252   C     0.24658   0.49997   0.24976   0.00000  Uiso   1.00
C253   C     0.16682   0.49969   0.11586   0.00000  Uiso   1.00
C254   C     0.13852   0.47301   0.40552   0.00000  Uiso   1.00
C255   C     0.19584   0.52594   0.09456   0.00000  Uiso   1.00
C256   C     0.13865   0.47165   0.45209   0.00000  Uiso   1.00
C257   C     0.19725   0.52539   0.04799   0.00000  Uiso   1.00
C258   C     0.16787   0.49840   0.47668   0.00000  Uiso   1.00
C259   C     0.16798   0.49872   0.02338   0.00000  Uiso   1.00
C260   C     0.19685   0.52512   0.45446   0.00000  Uiso   1.00
C261   C     0.13842   0.47274   0.04557   0.00000  Uiso   1.00
C262   C     0.10992   0.44492   0.47460   0.00000  Uiso   1.00
C263   C     0.10971   0.44625   0.02135   0.00000  Uiso   1.00
C264   C     0.22681   0.55106   0.02551   0.00000  Uiso   1.00
C265   C     0.09731   0.37370   0.43826   0.00000  Uiso   1.00
C266   C     0.29388   0.55246   0.06355   0.00000  Uiso   1.00
C267   C     0.20964   0.38192   0.31979   0.00000  Uiso   1.00
C268   C     0.12401   0.61807   0.17999   0.00000  Uiso   1.00
C269   C     0.12399   0.38017   0.18000   0.00000  Uiso   1.00
C270   C     0.20937   0.61981   0.31998   0.00000  Uiso   1.00
C271   C     0.22599   0.55104   0.47871   0.00000  Uiso   1.00
C272   C     0.02142   0.45933   0.25247   0.00000  Uiso   1.00
C273   C     0.31190   0.54067   0.24710   0.00000  Uiso   1.00
C274   C     0.31217   0.45926   0.25174   0.00000  Uiso   1.00
C275   C     0.02115   0.54073   0.24781   0.00000  Uiso   1.00
C276   C     0.29079   0.49995   0.24940   0.00000  Uiso   1.00
H277   H     0.21909   0.54462   0.39052   0.00000  Uiso   1.00
H278   H     0.03710   0.57254   0.24643   0.00000  Uiso   1.00
H279   H     0.05255   0.41455   0.46569   0.00000  Uiso   1.00
H280   H     0.10486   0.35400   0.46886   0.00000  Uiso   1.00
H281   H     0.12575   0.37732   0.41837   0.00000  Uiso   1.00
H282   H     0.07372   0.35518   0.41748   0.00000  Uiso   1.00
H283   H     0.26455   0.60661   0.03384   0.00000  Uiso   1.00
H284   H     0.31092   0.54067   0.03372   0.00000  Uiso   1.00
H285   H     0.28542   0.52320   0.08406   0.00000  Uiso   1.00
H286   H     0.31473   0.57448   0.08427   0.00000  Uiso   1.00
H287   H     0.21178   0.40070   0.38499   0.00000  Uiso   1.00
H288   H     0.11481   0.45491   0.10938   0.00000  Uiso   1.00
H289   H     0.12236   0.59926   0.11480   0.00000  Uiso   1.00
H290   H     0.07185   0.41246   0.15944   0.00000  Uiso   1.00
H291   H     0.26159   0.58764   0.34050   0.00000  Uiso   1.00
H292   H     0.11616   0.45372   0.38548   0.00000  Uiso   1.00
H293   H     0.21733   0.54630   0.11463   0.00000  Uiso   1.00
H294   H     0.08741   0.42609   0.03876   0.00000  Uiso   1.00
H295   H     0.24839   0.57108   0.46130   0.00000  Uiso   1.00
H296   H     0.03760   0.42759   0.25486   0.00000  Uiso   1.00
H297   H     0.29571   0.57240   0.24474   0.00000  Uiso   1.00
H298   H     0.29623   0.42745   0.25310   0.00000  Uiso   1.00
N299   N     0.16667   0.61907   0.25000   0.00000  Uiso   1.00
N300   N     0.16667   0.38093   0.25000   0.00000  Uiso   1.00
N301   N     0.08090   0.41711   0.45054   0.00000  Uiso   1.00
N302   N     0.25711   0.57723   0.04961   0.00000  Uiso   1.00
O303   O     0.10559   0.53821   0.25000   0.00000  Uiso   1.00
O304   O     0.19330   0.38356   0.36271   0.00000  Uiso   1.00
O305   O     0.09029   0.60107   0.18670   0.00000  Uiso   1.00
O306   O     0.14069   0.61642   0.13722   0.00000  Uiso   1.00
O307   O     0.13847   0.38037   0.14256   0.00000  Uiso   1.00
O308   O     0.08495   0.39884   0.18744   0.00000  Uiso   1.00
O309   O     0.19484   0.61944   0.35740   0.00000  Uiso   1.00
O310   O     0.24847   0.60129   0.31253   0.00000  Uiso   1.00
O311   O     0.22774   0.46179   0.25001   0.00000  Uiso   1.00
O312   O     0.22774   0.53821   0.25001   0.00000  Uiso   1.00
O313   O     0.10559   0.46179   0.25000   0.00000  Uiso   1.00
O314   O     0.16666   0.53823   0.18393   0.00000  Uiso   1.00
O315   O     0.16667   0.46177   0.31608   0.00000  Uiso   1.00
O316   O     0.16667   0.53823   0.31608   0.00000  Uiso   1.00
O317   O     0.16666   0.46177   0.18393   0.00000  Uiso   1.00
O318   O     0.24334   0.39885   0.31282   0.00000  Uiso   1.00
Zn319  Zn    0.16667   0.55104   0.25000   0.00000  Uiso   1.00
Zn320  Zn    0.16667   0.44896   0.25000   0.00000  Uiso   1.00
C321   C     0.42008   0.50003   0.25015   0.00000  Uiso   1.00
C322   C     0.37586   0.50005   0.25027   0.00000  Uiso   1.00
C323   C     0.52030   0.35762   0.28346   0.00000  Uiso   1.00
C324   C     0.47976   0.64238   0.21650   0.00000  Uiso   1.00
C325   C     0.47979   0.35684   0.21650   0.00000  Uiso   1.00
C326   C     0.52021   0.64315   0.28350   0.00000  Uiso   1.00
C327   C     0.49980   0.49985   0.16359   0.00000  Uiso   1.00
C328   C     0.50016   0.50013   0.33641   0.00000  Uiso   1.00
C329   C     0.52961   0.52542   0.40808   0.00000  Uiso   1.00
C330   C     0.47135   0.47364   0.09190   0.00000  Uiso   1.00
C331   C     0.50025   0.50001   0.38416   0.00000  Uiso   1.00
C332   C     0.57991   0.49997   0.24976   0.00000  Uiso   1.00
C333   C     0.50016   0.49969   0.11586   0.00000  Uiso   1.00
C334   C     0.47185   0.47301   0.40552   0.00000  Uiso   1.00
C335   C     0.52918   0.52594   0.09456   0.00000  Uiso   1.00
C336   C     0.47199   0.47165   0.45209   0.00000  Uiso   1.00
C337   C     0.53058   0.52539   0.04799   0.00000  Uiso   1.00
C338   C     0.50121   0.49840   0.47668   0.00000  Uiso   1.00
C339   C     0.50131   0.49872   0.02338   0.00000  Uiso   1.00
C340   C     0.53018   0.52512   0.45446   0.00000  Uiso   1.00
C341   C     0.47175   0.47274   0.04557   0.00000  Uiso   1.00
C342   C     0.44326   0.44492   0.47460   0.00000  Uiso   1.00
C343   C     0.44305   0.44625   0.02135   0.00000  Uiso   1.00
C344   C     0.56014   0.55106   0.02551   0.00000  Uiso   1.00
C345   C     0.43064   0.37370   0.43826   0.00000  Uiso   1.00
C346   C     0.62721   0.55246   0.06355   0.00000  Uiso   1.00
C347   C     0.54298   0.38192   0.31979   0.00000  Uiso   1.00
C348   C     0.45735   0.61807   0.17999   0.00000  Uiso   1.00
C349   C     0.45732   0.38017   0.18000   0.00000  Uiso   1.00
C350   C     0.54270   0.61981   0.31998   0.00000  Uiso   1.00
C351   C     0.55933   0.55104   0.47871   0.00000  Uiso   1.00
C352   C     0.35476   0.45933   0.25247   0.00000  Uiso   1.00
C353   C     0.64523   0.54067   0.24710   0.00000  Uiso   1.00
C354   C     0.64551   0.45926   0.25174   0.00000  Uiso   1.00
C355   C     0.35448   0.54073   0.24781   0.00000  Uiso   1.00
C356   C     0.62413   0.49995   0.24940   0.00000  Uiso   1.00
H357   H     0.55242   0.54462   0.39052   0.00000  Uiso   1.00
H358   H     0.37043   0.57254   0.24643   0.00000  Uiso   1.00
H359   H     0.38589   0.41455   0.46569   0.00000  Uiso   1.00
H360   H     0.43820   0.35400   0.46886   0.00000  Uiso   1.00
H361   H     0.45909   0.37732   0.41837   0.00000  Uiso   1.00
H362   H     0.40705   0.35518   0.41748   0.00000  Uiso   1.00
H363   H     0.59788   0.60661   0.03384   0.00000  Uiso   1.00
H364   H     0.64426   0.54067   0.03372   0.00000  Uiso   1.00
H365   H     0.61875   0.52320   0.08406   0.00000  Uiso   1.00
H366   H     0.64806   0.57448   0.08427   0.00000  Uiso   1.00
H367   H     0.54512   0.40070   0.38499   0.00000  Uiso   1.00
H368   H     0.44814   0.45491   0.10938   0.00000  Uiso   1.00
H369   H     0.45570   0.59926   0.11480   0.00000  Uiso   1.00
H370   H     0.40518   0.41246   0.15944   0.00000  Uiso   1.00
H371   H     0.59492   0.58764   0.34050   0.00000  Uiso   1.00
H372   H     0.44950   0.45372   0.38548   0.00000  Uiso   1.00
H373   H     0.55067   0.54630   0.11463   0.00000  Uiso   1.00
H374   H     0.42074   0.42609   0.03876   0.00000  Uiso   1.00
H375   H     0.58173   0.57108   0.46130   0.00000  Uiso   1.00
H376   H     0.37093   0.42759   0.25486   0.00000  Uiso   1.00
H377   H     0.62905   0.57240   0.24474   0.00000  Uiso   1.00
H378   H     0.62956   0.42745   0.25310   0.00000  Uiso   1.00
N379   N     0.50000   0.61907   0.25000   0.00000  Uiso   1.00
N380   N     0.50000   0.38093   0.25000   0.00000  Uiso   1.00
N381   N     0.41423   0.41711   0.45054   0.00000  Uiso   1.00
N382   N     0.59045   0.57723   0.04961   0.00000  Uiso   1.00
O383   O     0.43892   0.53821   0.25000   0.00000  Uiso   1.00
O384   O     0.52663   0.38356   0.36271   0.00000  Uiso   1.00
O385   O     0.42362   0.60107   0.18670   0.00000  Uiso   1.00
O386   O     0.47402   0.61642   0.13722   0.00000  Uiso   1.00
O387   O     0.47181   0.38037   0.14256   0.00000  Uiso   1.00
O388   O     0.41828   0.39884   0.18744   0.00000  Uiso   1.00
O389   O     0.52818   0.61944   0.35740   0.00000  Uiso   1.00
O390   O     0.58180   0.60129   0.31253   0.00000  Uiso   1.00
O391   O     0.56108   0.46179   0.25001   0.00000  Uiso   1.00
O392   O     0.56108   0.53821   0.25001   0.00000  Uiso   1.00
O393   O     0.43892   0.46179   0.25000   0.00000  Uiso   1.00
O394   O     0.49999   0.53823   0.18393   0.00000  Uiso   1.00
O395   O     0.50001   0.46177   0.31608   0.00000  Uiso   1.00
O396   O     0.50001   0.53823   0.31608   0.00000  Uiso   1.00
O397   O     0.49999   0.46177   0.18393   0.00000  Uiso   1.00
O398   O     0.57667   0.39885   0.31282   0.00000  Uiso   1.00
Zn399  Zn    0.50000   0.55104   0.25000   0.00000  Uiso   1.00
Zn400  Zn    0.50000   0.44896   0.25000   0.00000  Uiso   1.00
C401   C     0.75342   0.50003   0.25015   0.00000  Uiso   1.00
C402   C     0.70920   0.50005   0.25027   0.00000  Uiso   1.00
C403   C     0.85363   0.35762   0.28346   0.00000  Uiso   1.00
C404   C     0.81310   0.64238   0.21650   0.00000  Uiso   1.00
C405   C     0.81312   0.35684   0.21650   0.00000  Uiso   1.00
C406   C     0.85354   0.64315   0.28350   0.00000  Uiso   1.00
C407   C     0.83314   0.49985   0.16359   0.00000  Uiso   1.00
C408   C     0.83349   0.50013   0.33641   0.00000  Uiso   1.00
C409   C     0.86294   0.52542   0.40808   0.00000  Uiso   1.00
C410   C     0.80468   0.47364   0.09190   0.00000  Uiso   1.00
C411   C     0.83359   0.50001   0.38416   0.00000  Uiso   1.00
C412   C     0.91325   0.49997   0.24976   0.00000  Uiso   1.00
C413   C     0.83349   0.49969   0.11586   0.00000  Uiso   1.00
C414   C     0.80519   0.47301   0.40552   0.00000  Uiso   1.00
C415   C     0.86251   0.52594   0.09456   0.00000  Uiso   1.00
C416   C     0.80532   0.47165   0.45209   0.00000  Uiso   1.00
C417   C     0.86391   0.52539   0.04799   0.00000  Uiso   1.00
C418   C     0.83454   0.49840   0.47668   0.00000  Uiso   1.00
C419   C     0.83464   0.49872   0.02338   0.00000  Uiso   1.00
C420   C     0.86351   0.52512   0.45446   0.00000  Uiso   1.00
C421   C     0.80508   0.47274   0.04557   0.00000  Uiso   1.00
C422   C     0.77659   0.44492   0.47460   0.00000  Uiso   1.00
C423   C     0.77638   0.44625   0.02135   0.00000  Uiso   1.00
C424   C     0.89347   0.55106   0.02551   0.00000  Uiso   1.00
C425   C     0.76398   0.37370   0.43826   0.00000  Uiso   1.00
C426   C     0.96055   0.55246   0.06355   0.00000  Uiso   1.00
C427   C     0.87631   0.38192   0.31979   0.00000  Uiso   1.00
C428   C     0.79068   0.61807   0.17999   0.00000  Uiso   1.00
C429   C     0.79066   0.38017   0.18000   0.00000  Uiso   1.00
C430   C     0.87604   0.61981   0.31998   0.00000  Uiso   1.00
C431   C     0.89266   0.55104   0.47871   0.00000  Uiso   1.00
C432   C     0.68809   0.45933   0.25247   0.00000  Uiso   1.00
C433   C     0.97856   0.54067   0.24710   0.00000  Uiso   1.00
C434   C     0.97884   0.45926   0.25174   0.00000  Uiso   1.00
C435   C     0.68782   0.54073   0.24781   0.00000  Uiso   1.00
C436   C     0.95746   0.49995   0.24940   0.00000  Uiso   1.00
H437   H     0.88576   0.54462   0.39052   0.00000  Uiso   1.00
H438   H     0.70376   0.57254   0.24643   0.00000  Uiso   1.00
H439   H     0.71922   0.41455   0.46569   0.00000  Uiso   1.00
H440   H     0.77153   0.35400   0.46886   0.00000  Uiso   1.00
H441   H     0.79242   0.37732   0.41837   0.00000  Uiso   1.00
H442   H     0.74039   0.35518   0.41748   0.00000  Uiso   1.00
H443   H     0.93122   0.60661   0.03384   0.00000  Uiso   1.00
H444   H     0.97759   0.54067   0.03372   0.00000  Uiso   1.00
H445   H     0.95208   0.52320   0.08406   0.00000  Uiso   1.00
H446   H     0.98140   0.57448   0.08427   0.00000  Uiso   1.00
H447   H     0.87845   0.40070   0.38499   0.00000  Uiso   1.00
H448   H     0.78148   0.45491   0.10938   0.00000  Uiso   1.00
H449   H     0.78903   0.59926   0.11480   0.00000  Uiso   1.00
H450   H     0.73851   0.41246   0.15944   0.00000  Uiso   1.00
H451   H     0.92826   0.58764   0.34050   0.00000  Uiso   1.00
H452   H     0.78283   0.45372   0.38548   0.00000  Uiso   1.00
H453   H     0.88400   0.54630   0.11463   0.00000  Uiso   1.00
H454   H     0.75408   0.42609   0.03876   0.00000  Uiso   1.00
H455   H     0.91506   0.57108   0.46130   0.00000  Uiso   1.00
H456   H     0.70427   0.42759   0.25486   0.00000  Uiso   1.00
H457   H     0.96238   0.57240   0.24474   0.00000  Uiso   1.00
H458   H     0.96289   0.42745   0.25310   0.00000  Uiso   1.00
N459   N     0.83333   0.61907   0.25000   0.00000  Uiso   1.00
N460   N     0.83333   0.38093   0.25000   0.00000  Uiso   1.00
N461   N     0.74756   0.41711   0.45054   0.00000  Uiso   1.00
N462   N     0.92378   0.57723   0.04961   0.00000  Uiso   1.00
O463   O     0.77226   0.53821   0.25000   0.00000  Uiso   1.00
O464   O     0.85997   0.38356   0.36271   0.00000  Uiso   1.00
O465   O     0.75696   0.60107   0.18670   0.00000  Uiso   1.00
O466   O     0.80736   0.61642   0.13722   0.00000  Uiso   1.00
O467   O     0.80514   0.38037   0.14256   0.00000  Uiso   1.00
O468   O     0.75162   0.39884   0.18744   0.00000  Uiso   1.00
O469   O     0.86151   0.61944   0.35740   0.00000  Uiso   1.00
O470   O     0.91514   0.60129   0.31253   0.00000  Uiso   1.00
O471   O     0.89441   0.46179   0.25001   0.00000  Uiso   1.00
O472   O     0.89441   0.53821   0.25001   0.00000  Uiso   1.00
O473   O     0.77226   0.46179   0.25000   0.00000  Uiso   1.00
O474   O     0.83333   0.53823   0.18393   0.00000  Uiso   1.00
O475   O     0.83334   0.46177   0.31608   0.00000  Uiso   1.00
O476   O     0.83334   0.53823   0.31608   0.00000  Uiso   1.00
O477   O     0.83333   0.46177   0.18393   0.00000  Uiso   1.00
O478   O     0.91000   0.39885   0.31282   0.00000  Uiso   1.00
Zn479  Zn    0.83333   0.55104   0.25000   0.00000  Uiso   1.00
Zn480  Zn    0.83333   0.44896   0.25000   0.00000  Uiso   1.00
C481   C     0.08675   0.83336   0.25015   0.00000  Uiso   1.00
C482   C     0.04253   0.83338   0.25027   0.00000  Uiso   1.00
C483   C     0.18696   0.69095   0.28346   0.00000  Uiso   1.00
C484   C     0.14643   0.97571   0.21650   0.00000  Uiso   1.00
C485   C     0.14645   0.69018   0.21650   0.00000  Uiso   1.00
C486   C     0.18688   0.97649   0.28350   0.00000  Uiso   1.00
C487   C     0.16647   0.83319   0.16359   0.00000  Uiso   1.00
C488   C     0.16682   0.83346   0.33641   0.00000  Uiso   1.00
C489   C     0.19628   0.85875   0.40808   0.00000  Uiso   1.00
C490   C     0.13802   0.80697   0.09190   0.00000  Uiso   1.00
C491   C     0.16692   0.83334   0.38416   0.00000  Uiso   1.00
C492   C     0.24658   0.83331   0.24976   0.00000  Uiso   1.00
C493   C     0.16682   0.83303   0.11586   0.00000  Uiso   1.00
C494   C     0.13852   0.80635   0.40552   0.00000  Uiso   1.00
C495   C     0.19584   0.85927   0.09456   0.00000  Uiso   1.00
C496   C     0.13865   0.80498   0.45209   0.00000  Uiso   1.00
C497   C     0.19725   0.85872   0.04799   0.00000  Uiso   1.00
C498   C     0.16787   0.83173   0.47668   0.00000  Uiso   1.00
C499   C     0.16798   0.83205   0.02338   0.00000  Uiso   1.00
C500   C     0.19685   0.85845   0.45446   0.00000  Uiso   1.00
C501   C     0.13842   0.80608   0.04557   0.00000  Uiso   1.00
C502   C     0.10992   0.77826   0.47460   0.00000  Uiso   1.00
C503   C     0.10971   0.77958   0.02135   0.00000  Uiso   1.00
C504   C     0.22681   0.88439   0.02551   0.00000  Uiso   1.00
C505   C     0.09731   0.70703   0.43826   0.00000  Uiso   1.00
C506   C     0.29388   0.88579   0.06355   0.00000  Uiso   1.00
C507   C     0.20964   0.71525   0.31979   0.00000  Uiso   1.00
C508   C     0.12401   0.95140   0.17999   0.00000  Uiso   1.00
C509   C     0.12399   0.71350   0.18000   0.00000  Uiso   1.00
C510   C     0.20937   0.95315   0.31998   0.00000  Uiso   1.00
C511   C     0.22599   0.88437   0.47871   0.00000  Uiso   1.00
C512   C     0.02142   0.79266   0.25247   0.00000  Uiso   1.00
C513   C     0.31190   0.87400   0.24710   0.00000  Uiso   1.00
C514   C     0.31217   0.79259   0.25174   0.00000  Uiso   1.00
C515   C     0.02115   0.87407   0.24781   0.00000  Uiso   1.00
C516   C     0.29079   0.83328   0.24940   0.00000  Uiso   1.00
H517   H     0.21909   0.87796   0.39052   0.00000  Uiso   1.00
H518   H     0.03710   0.90587   0.24643   0.00000  Uiso   1.00
H519   H     0.05255   0.74788   0.46569   0.00000  Uiso   1.00
H520   H     0.10486   0.68734   0.46886   0.00000  Uiso   1.00
H521   H     0.12575   0.71065   0.41837   0.00000  Uiso   1.00
H522   H     0.07372   0.68851   0.41748   0.00000  Uiso   1.00
H523   H     0.26455   0.93994   0.03384   0.00000  Uiso   1.00
H524   H     0.31092   0.87400   0.03372   0.00000  Uiso   1.00
H525   H     0.28542   0.85654   0.08406   0.00000  Uiso   1.00
H526   H     0.31473   0.90781   0.08427   0.00000  Uiso   1.00
H527   H     0.21178   0.73403   0.38499   0.00000  Uiso   1.00
H528   H     0.11481   0.78824   0.10938   0.00000  Uiso   1.00
H529   H     0.12236   0.93260   0.11480   0.00000  Uiso   1.00
H530   H     0.07185   0.74579   0.15944   0.00000  Uiso   1.00
H531   H     0.26159   0.92097   0.34050   0.00000  Uiso   1.00
H532   H     0.11616   0.78705   0.38548   0.00000  Uiso   1.00
H533   H     0.21733   0.87963   0.11463   0.00000  Uiso   1.00
H534   H     0.08741   0.75942   0.03876   0.00000  Uiso   1.00
H535   H     0.24839   0.90441   0.46130   0.00000  Uiso   1.00
H536   H     0.03760   0.76092   0.25486   0.00000  Uiso   1.00
H537   H     0.29571   0.90574   0.24474   0.00000  Uiso   1.00
H538   H     0.29623   0.76078   0.25310   0.00000  Uiso   1.00
N539   N     0.16667   0.95240   0.25000   0.00000  Uiso   1.00
N540   N     0.16667   0.71427   0.25000   0.00000  Uiso   1.00
N541   N     0.08090   0.75044   0.45054   0.00000  Uiso   1.00
N542   N     0.25711   0.91057   0.04961   0.00000  Uiso   1.00
O543   O     0.10559   0.87154   0.25000   0.00000  Uiso   1.00
O544   O     0.19330   0.71689   0.36271   0.00000  Uiso   1.00
O545   O     0.09029   0.93440   0.18670   0.00000  Uiso   1.00
O546   O     0.14069   0.94975   0.13722   0.00000  Uiso   1.00
O547   O     0.13847   0.71371   0.14256   0.00000  Uiso   1.00
O548   O     0.08495   0.73217   0.18744   0.00000  Uiso   1.00
O549   O     0.19484   0.95277   0.35740   0.00000  Uiso   1.00
O550   O     0.24847   0.93463   0.31253   0.00000  Uiso   1.00
O551   O     0.22774   0.79513   0.25001   0.00000  Uiso   1.00
O552   O     0.22774   0.87154   0.25001   0.00000  Uiso   1.00
O553   O     0.10559   0.79513   0.25000   0.00000  Uiso   1.00
O554   O     0.16666   0.87156   0.18393   0.00000  Uiso   1.00
O555   O     0.16667   0.79511   0.31608   0.00000  Uiso   1.00
O556   O     0.16667   0.87156   0.31608   0.00000  Uiso   1.00
O557   O     0.16666   0.79511   0.18393   0.00000  Uiso   1.00
O558   O     0.24334   0.73218   0.31282   0.00000  Uiso   1.00
Zn559  Zn    0.16667   0.88437   0.25000   0.00000  Uiso   1.00
Zn560  Zn    0.16667   0.78229   0.25000   0.00000  Uiso   1.00
C561   C     0.42008   0.83336   0.25015   0.00000  Uiso   1.00
C562   C     0.37586   0.83338   0.25027   0.00000  Uiso   1.00
C563   C     0.52030   0.69095   0.28346   0.00000  Uiso   1.00
C564   C     0.47976   0.97571   0.21650   0.00000  Uiso   1.00
C565   C     0.47979   0.69018   0.21650   0.00000  Uiso   1.00
C566   C     0.52021   0.97649   0.28350   0.00000  Uiso   1.00
C567   C     0.49980   0.83319   0.16359   0.00000  Uiso   1.00
C568   C     0.50016   0.83346   0.33641   0.00000  Uiso   1.00
C569   C     0.52961   0.85875   0.40808   0.00000  Uiso   1.00
C570   C     0.47135   0.80697   0.09190   0.00000  Uiso   1.00
C571   C     0.50025   0.83334   0.38416   0.00000  Uiso   1.00
C572   C     0.57991   0.83331   0.24976   0.00000  Uiso   1.00
C573   C     0.50016   0.83303   0.11586   0.00000  Uiso   1.00
C574   C     0.47185   0.80635   0.40552   0.00000  Uiso   1.00
C575   C     0.52918   0.85927   0.09456   0.00000  Uiso   1.00
C576   C     0.47199   0.80498   0.45209   0.00000  Uiso   1.00
C577   C     0.53058   0.85872   0.04799   0.00000  Uiso   1.00
C578   C     0.50121   0.83173   0.47668   0.00000  Uiso   1.00
C579   C     0.50131   0.83205   0.02338   0.00000  Uiso   1.00
C580   C     0.53018   0.85845   0.45446   0.00000  Uiso   1.00
C581   C     0.47175   0.80608   0.04557   0.00000  Uiso   1.00
C582   C     0.44326   0.77826   0.47460   0.00000  Uiso   1.00
C583   C     0.44305   0.77958   0.02135   0.00000  Uiso   1.00
C584   C     0.56014   0.88439   0.02551   0.00000  Uiso   1.00
C585   C     0.43064   0.70703   0.43826   0.00000  Uiso   1.00
C586   C     0.62721   0.88579   0.06355   0.00000  Uiso   1.00
C587   C     0.54298   0.71525   0.31979   0.00000  Uiso   1.00
C588   C     0.45735   0.95140   0.17999   0.00000  Uiso   1.00
C589   C     0.45732   0.71350   0.18000   0.00000  Uiso   1.00
C590   C     0.54270   0.95315   0.31998   0.00000  Uiso   1.00
C591   C     0.55933   0.88437   0.47871   0.00000  Uiso   1.00
C592   C     0.35476   0.79266   0.25247   0.00000  Uiso   1.00
C593   C     0.64523   0.87400   0.24710   0.00000  Uiso   1.00
C594   C     0.64551   0.79259   0.25174   0.00000  Uiso   1.00
C595   C     0.35448   0.87407   0.24781   0.00000  Uiso   1.00
C596   C     0.62413   0.83328   0.24940   0.00000  Uiso   1.00
H597   H     0.55242   0.87796   0.39052   0.00000  Uiso   1.00
H598   H     0.37043   0.90587   0.24643   0.00000  Uiso   1.00
H599   H     0.38589   0.74788   0.46569   0.00000  Uiso   1.00
H600   H     0.43820   0.68734   0.46886   0.00000  Uiso   1.00
H601   H     0.45909   0.71065   0.41837   0.00000  Uiso   1.00
H602   H     0.40705   0.68851   0.41748   0.00000  Uiso   1.00
H603   H     0.59788   0.93994   0.03384   0.00000  Uiso   1.00
H604   H     0.64426   0.87400   0.03372   0.00000  Uiso   1.00
H605   H     0.61875   0.85654   0.08406   0.00000  Uiso   1.00
H606   H     0.64806   0.90781   0.08427   0.00000  Uiso   1.00
H607   H     0.54512   0.73403   0.38499   0.00000  Uiso   1.00
H608   H     0.44814   0.78824   0.10938   0.00000  Uiso   1.00
H609   H     0.45570   0.93260   0.11480   0.00000  Uiso   1.00
H610   H     0.40518   0.74579   0.15944   0.00000  Uiso   1.00
H611   H     0.59492   0.92097   0.34050   0.00000  Uiso   1.00
H612   H     0.44950   0.78705   0.38548   0.00000  Uiso   1.00
H613   H     0.55067   0.87963   0.11463   0.00000  Uiso   1.00
H614   H     0.42074   0.75942   0.03876   0.00000  Uiso   1.00
H615   H     0.58173   0.90441   0.46130   0.00000  Uiso   1.00
H616   H     0.37093   0.76092   0.25486   0.00000  Uiso   1.00
H617   H     0.62905   0.90574   0.24474   0.00000  Uiso   1.00
H618   H     0.62956   0.76078   0.25310   0.00000  Uiso   1.00
N619   N     0.50000   0.95240   0.25000   0.00000  Uiso   1.00
N620   N     0.50000   0.71427   0.25000   0.00000  Uiso   1.00
N621   N     0.41423   0.75044   0.45054   0.00000  Uiso   1.00
N622   N     0.59045   0.91057   0.04961   0.00000  Uiso   1.00
O623   O     0.43892   0.87154   0.25000   0.00000  Uiso   1.00
O624   O     0.52663   0.71689   0.36271   0.00000  Uiso   1.00
O625   O     0.42362   0.93440   0.18670   0.00000  Uiso   1.00
O626   O     0.47402   0.94975   0.13722   0.00000  Uiso   1.00
O627   O     0.47181   0.71371   0.14256   0.00000  Uiso   1.00
O628   O     0.41828   0.73217   0.18744   0.00000  Uiso   1.00
O629   O     0.52818   0.95277   0.35740   0.00000  Uiso   1.00
O630   O     0.58180   0.93463   0.31253   0.00000  Uiso   1.00
O631   O     0.56108   0.79513   0.25001   0.00000  Uiso   1.00
O632   O     0.56108   0.87154   0.25001   0.00000  Uiso   1.00
O633   O     0.43892   0.79513   0.25000   0.00000  Uiso   1.00
O634   O     0.49999   0.87156   0.18393   0.00000  Uiso   1.00
O635   O     0.50001   0.79511   0.31608   0.00000  Uiso   1.00
O636   O     0.50001   0.87156   0.31608   0.00000  Uiso   1.00
O637   O     0.49999   0.79511   0.18393   0.00000  Uiso   1.00
O638   O     0.57667   0.73218   0.31282   0.00000  Uiso   1.00
Zn639  Zn    0.50000   0.88437   0.25000   0.00000  Uiso   1.00
Zn640  Zn    0.50000   0.78229   0.25000   0.00000  Uiso   1.00
C641   C     0.75342   0.83336   0.25015   0.00000  Uiso   1.00
C642   C     0.70920   0.83338   0.25027   0.00000  Uiso   1.00
C643   C     0.85363   0.69095   0.28346   0.00000  Uiso   1.00
C644   C     0.81310   0.97571   0.21650   0.00000  Uiso   1.00
C645   C     0.81312   0.69018   0.21650   0.00000  Uiso   1.00
C646   C     0.85354   0.97649   0.28350   0.00000  Uiso   1.00
C647   C     0.83314   0.83319   0.16359   0.00000  Uiso   1.00
C648   C     0.83349   0.83346   0.33641   0.00000  Uiso   1.00
C649   C     0.86294   0.85875   0.40808   0.00000  Uiso   1.00
C650   C     0.80468   0.80697   0.09190   0.00000  Uiso   1.00
C651   C     0.83359   0.83334   0.38416   0.00000  Uiso   1.00
C652   C     0.91325   0.83331   0.24976   0.00000  Uiso   1.00
C653   C     0.83349   0.83303   0.11586   0.00000  Uiso   1.00
C654   C     0.80519   0.80635   0.40552   0.00000  Uiso   1.00
C655   C     0.86251   0.85927   0.09456   0.00000  Uiso   1.00
C656   C     0.80532   0.80498   0.45209   0.00000  Uiso   1.00
C657   C     0.86391   0.85872   0.04799   0.00000  Uiso   1.00
C658   C     0.83454   0.83173   0.47668   0.00000  Uiso   1.00
C659   C     0.83464   0.83205   0.02338   0.00000  Uiso   1.00
C660   C     0.86351   0.85845   0.45446   0.00000  Uiso   1.00
C661   C     0.80508   0.80608   0.04557   0.00000  Uiso   1.00
C662   C     0.77659   0.77826   0.47460   0.00000  Uiso   1.00
C663   C     0.77638   0.77958   0.02135   0.00000  Uiso   1.00
C664   C     0.89347   0.88439   0.02551   0.00000  Uiso   1.00
C665   C     0.76398   0.70703   0.43826   0.00000  Uiso   1.00
C666   C     0.96055   0.88579   0.06355   0.00000  Uiso   1.00
C667   C     0.87631   0.71525   0.31979   0.00000  Uiso   1.00
C668   C     0.79068   0.95140   0.17999   0.00000  Uiso   1.00
C669   C     0.79066   0.71350   0.18000   0.00000  Uiso   1.00
C670   C     0.87604   0.95315   0.31998   0.00000  Uiso   1.00
C671   C     0.89266   0.88437   0.47871   0.00000  Uiso   1.00
C672   C     0.68809   0.79266   0.25247   0.00000  Uiso   1.00
C673   C     0.97856   0.87400   0.24710   0.00000  Uiso   1.00
C674   C     0.97884   0.79259   0.25174   0.00000  Uiso   1.00
C675   C     0.68782   0.87407   0.24781   0.00000  Uiso   1.00
C676   C     0.95746   0.83328   0.24940   0.00000  Uiso   1.00
H677   H     0.88576   0.87796   0.39052   0.00000  Uiso   1.00
H678   H     0.70376   0.90587   0.24643   0.00000  Uiso   1.00
H679   H     0.71922   0.74788   0.46569   0.00000  Uiso   1.00
H680   H     0.77153   0.68734   0.46886   0.00000  Uiso   1.00
H681   H     0.79242   0.71065   0.41837   0.00000  Uiso   1.00
H682   H     0.74039   0.68851   0.41748   0.00000  Uiso   1.00
H683   H     0.93122   0.93994   0.03384   0.00000  Uiso   1.00
H684   H     0.97759   0.87400   0.03372   0.00000  Uiso   1.00
H685   H     0.95208   0.85654   0.08406   0.00000  Uiso   1.00
H686   H     0.98140   0.90781   0.08427   0.00000  Uiso   1.00
H687   H     0.87845   0.73403   0.38499   0.00000  Uiso   1.00
H688   H     0.78148   0.78824   0.10938   0.00000  Uiso   1.00
H689   H     0.78903   0.93260   0.11480   0.00000  Uiso   1.00
H690   H     0.73851   0.74579   0.15944   0.00000  Uiso   1.00
H691   H     0.92826   0.92097   0.34050   0.00000  Uiso   1.00
H692   H     0.78283   0.78705   0.38548   0.00000  Uiso   1.00
H693   H     0.88400   0.87963   0.11463   0.00000  Uiso   1.00
H694   H     0.75408   0.75942   0.03876   0.00000  Uiso   1.00
H695   H     0.91506   0.90441   0.46130   0.00000  Uiso   1.00
H696   H     0.70427   0.76092   0.25486   0.00000  Uiso   1.00
H697   H     0.96238   0.90574   0.24474   0.00000  Uiso   1.00
H698   H     0.96289   0.76078   0.25310   0.00000  Uiso   1.00
N699   N     0.83333   0.95240   0.25000   0.00000  Uiso   1.00
N700   N     0.83333   0.71427   0.25000   0.00000  Uiso   1.00
N701   N     0.74756   0.75044   0.45054   0.00000  Uiso   1.00
N702   N     0.92378   0.91057   0.04961   0.00000  Uiso   1.00
O703   O     0.77226   0.87154   0.25000   0.00000  Uiso   1.00
O704   O     0.85997   0.71689   0.36271   0.00000  Uiso   1.00
O705   O     0.75696   0.93440   0.18670   0.00000  Uiso   1.00
O706   O     0.80736   0.94975   0.13722   0.00000  Uiso   1.00
O707   O     0.80514   0.71371   0.14256   0.00000  Uiso   1.00
O708   O     0.75162   0.73217   0.18744   0.00000  Uiso   1.00
O709   O     0.86151   0.95277   0.35740   0.00000  Uiso   1.00
O710   O     0.91514   0.93463   0.31253   0.00000  Uiso   1.00
O711   O     0.89441   0.79513   0.25001   0.00000  Uiso   1.00
O712   O     0.89441   0.87154   0.25001   0.00000  Uiso   1.00
O713   O     0.77226   0.79513   0.25000   0.00000  Uiso   1.00
O714   O     0.83333   0.87156   0.18393   0.00000  Uiso   1.00
O715   O     0.83334   0.79511   0.31608   0.00000  Uiso   1.00
O716   O     0.83334   0.87156   0.31608   0.00000  Uiso   1.00
O717   O     0.83333   0.79511   0.18393   0.00000  Uiso   1.00
O718   O     0.91000   0.73218   0.31282   0.00000  Uiso   1.00
Zn719  Zn    0.83333   0.88437   0.25000   0.00000  Uiso   1.00
Zn720  Zn    0.83333   0.78229   0.25000   0.00000  Uiso   1.00
C721   C     0.08675   0.16670   0.75015   0.00000  Uiso   1.00
C722   C     0.04253   0.16672   0.75027   0.00000  Uiso   1.00
C723   C     0.18696   0.02429   0.78346   0.00000  Uiso   1.00
C724   C     0.14643   0.30904   0.71650   0.00000  Uiso   1.00
C725   C     0.14645   0.02351   0.71650   0.00000  Uiso   1.00
C726   C     0.18688   0.30982   0.78350   0.00000  Uiso   1.00
C727   C     0.16647   0.16652   0.66359   0.00000  Uiso   1.00
C728   C     0.16682   0.16680   0.83641   0.00000  Uiso   1.00
C729   C     0.19628   0.19209   0.90808   0.00000  Uiso   1.00
C730   C     0.13802   0.14030   0.59190   0.00000  Uiso   1.00
C731   C     0.16692   0.16668   0.88416   0.00000  Uiso   1.00
C732   C     0.24658   0.16664   0.74976   0.00000  Uiso   1.00
C733   C     0.16682   0.16636   0.61586   0.00000  Uiso   1.00
C734   C     0.13852   0.13968   0.90552   0.00000  Uiso   1.00
C735   C     0.19584   0.19261   0.59456   0.00000  Uiso   1.00
C736   C     0.13865   0.13832   0.95209   0.00000  Uiso   1.00
C737   C     0.19725   0.19206   0.54799   0.00000  Uiso   1.00
C738   C     0.16787   0.16507   0.97668   0.00000  Uiso   1.00
C739   C     0.16798   0.16539   0.52338   0.00000  Uiso   1.00
C740   C     0.19685   0.19178   0.95446   0.00000  Uiso   1.00
C741   C     0.13842   0.13941   0.54557   0.00000  Uiso   1.00
C742   C     0.10992   0.11159   0.97460   0.00000  Uiso   1.00
C743   C     0.10971   0.11292   0.52135   0.00000  Uiso   1.00
C744   C     0.22681   0.21773   0.52551   0.00000  Uiso   1.00
C745   C     0.09731   0.04036   0.93826   0.00000  Uiso   1.00
C746   C     0.29388   0.21913   0.56355   0.00000  Uiso   1.00
C747   C     0.20964   0.04859   0.81979   0.00000  Uiso   1.00
C748   C     0.12401   0.28473   0.67999   0.00000  Uiso   1.00
C749   C     0.12399   0.04684   0.68000   0.00000  Uiso   1.00
C750   C     0.20937   0.28648   0.81998   0.00000  Uiso   1.00
C751   C     0.22599   0.21771   0.97871   0.00000  Uiso   1.00
C752   C     0.02142   0.12600   0.75247   0.00000  Uiso   1.00
C753   C     0.31190   0.20733   0.74710   0.00000  Uiso   1.00
C754   C     0.31217   0.12593   0.75174   0.00000  Uiso   1.00
C755   C     0.02115   0.20740   0.74781   0.00000  Uiso   1.00
C756   C     0.29079   0.16661   0.74940   0.00000  Uiso   1.00
H757   H     0.21909   0.21129   0.89052   0.00000  Uiso   1.00
H758   H     0.03710   0.23921   0.74643   0.00000  Uiso   1.00
H759   H     0.05255   0.08121   0.96569   0.00000  Uiso   1.00
H760   H     0.10486   0.02067   0.96886   0.00000  Uiso   1.00
H761   H     0.12575   0.04399   0.91837   0.00000  Uiso   1.00
H762   H     0.07372   0.02184   0.91748   0.00000  Uiso   1.00
H763   H     0.26455   0.27328   0.53384   0.00000  Uiso   1.00
H764   H     0.31092   0.20734   0.53372   0.00000  Uiso   1.00
H765   H     0.28542   0.18987   0.58406   0.00000  Uiso   1.00
H766   H     0.31473   0.24115   0.58427   0.00000  Uiso   1.00
H767   H     0.21178   0.06737   0.88499   0.00000  Uiso   1.00
H768   H     0.11481   0.12158   0.60938   0.00000  Uiso   1.00
H769   H     0.12236   0.26593   0.61480   0.00000  Uiso   1.00
H770   H     0.07185   0.07913   0.65944   0.00000  Uiso   1.00
H771   H     0.26159   0.25431   0.84050   0.00000  Uiso   1.00
H772   H     0.11616   0.12038   0.88548   0.00000  Uiso   1.00
H773   H     0.21733   0.21297   0.61463   0.00000  Uiso   1.00
H774   H     0.08741   0.09276   0.53876   0.00000  Uiso   1.00
H775   H     0.24839   0.23775   0.96130   0.00000  Uiso   1.00
H776   H     0.03760   0.09426   0.75486   0.00000  Uiso   1.00
H777   H     0.29571   0.23907   0.74474   0.00000  Uiso   1.00
H778   H     0.29623   0.09412   0.75310   0.00000  Uiso   1.00
N779   N     0.16667   0.28573   0.75000   0.00000  Uiso   1.00
N780   N     0.16667   0.04760   0.75000   0.00000  Uiso   1.00
N781   N     0.08090   0.08377   0.95054   0.00000  Uiso   1.00
N782   N     0.25711   0.24390   0.54961   0.00000  Uiso   1.00
O783   O     0.10559   0.20487   0.75000   0.00000  Uiso   1.00
O784   O     0.19330   0.05023   0.86271   0.00000  Uiso   1.00
O785   O     0.09029   0.26774   0.68670   0.00000  Uiso   1.00
O786   O     0.14069   0.28309   0.63722   0.00000  Uiso   1.00
O787   O     0.13847   0.04704   0.64256   0.00000  Uiso   1.00
O788   O     0.08495   0.06551   0.68744   0.00000  Uiso   1.00
O789   O     0.19484   0.28611   0.85740   0.00000  Uiso   1.00
O790   O     0.24847   0.26796   0.81253   0.00000  Uiso   1.00
O791   O     0.22774   0.12846   0.75001   0.00000  Uiso   1.00
O792   O     0.22774   0.20487   0.75001   0.00000  Uiso   1.00
O793   O     0.10559   0.12846   0.75000   0.00000  Uiso   1.00
O794   O     0.16666   0.20489   0.68393   0.00000  Uiso   1.00
O795   O     0.16667   0.12844   0.81608   0.00000  Uiso   1.00
O796   O     0.16667   0.20489   0.81608   0.00000  Uiso   1.00
O797   O     0.16666   0.12844   0.68393   0.00000  Uiso   1.00
O798   O     0.24334   0.06551   0.81282   0.00000  Uiso   1.00
Zn799  Zn    0.16667   0.21771   0.75000   0.00000  Uiso   1.00
Zn800  Zn    0.16667   0.11563   0.75000   0.00000  Uiso   1.00
C801   C     0.42008   0.16670   0.75015   0.00000  Uiso   1.00
C802   C     0.37586   0.16672   0.75027   0.00000  Uiso   1.00
C803   C     0.52030   0.02429   0.78346   0.00000  Uiso   1.00
C804   C     0.47976   0.30904   0.71650   0.00000  Uiso   1.00
C805   C     0.47979   0.02351   0.71650   0.00000  Uiso   1.00
C806   C     0.52021   0.30982   0.78350   0.00000  Uiso   1.00
C807   C     0.49980   0.16652   0.66359   0.00000  Uiso   1.00
C808   C     0.50016   0.16680   0.83641   0.00000  Uiso   1.00
C809   C     0.52961   0.19209   0.90808   0.00000  Uiso   1.00
C810   C     0.47135   0.14030   0.59190   0.00000  Uiso   1.00
C811   C     0.50025   0.16668   0.88416   0.00000  Uiso   1.00
C812   C     0.57991   0.16664   0.74976   0.00000  Uiso   1.00
C813   C     0.50016   0.16636   0.61586   0.00000  Uiso   1.00
C814   C     0.47185   0.13968   0.90552   0.00000  Uiso   1.00
C815   C     0.52918   0.19261   0.59456   0.00000  Uiso   1.00
C816   C     0.47199   0.13832   0.95209   0.00000  Uiso   1.00
C817   C     0.53058   0.19206   0.54799   0.00000  Uiso   1.00
C818   C     0.50121   0.16507   0.97668   0.00000  Uiso   1.00
C819   C     0.50131   0.16539   0.52338   0.00000  Uiso   1.00
C820   C     0.53018   0.19178   0.95446   0.00000  Uiso   1.00
C821   C     0.47175   0.13941   0.54557   0.00000  Uiso   1.00
C822   C     0.44326   0.11159   0.97460   0.00000  Uiso   1.00
C823   C     0.44305   0.11292   0.52135   0.00000  Uiso   1.00
C824   C     0.56014   0.21773   0.52551   0.00000  Uiso   1.00
C825   C     0.43064   0.04036   0.93826   0.00000  Uiso   1.00
C826   C     0.62721   0.21913   0.56355   0.00000  Uiso   1.00
C827   C     0.54298   0.04859   0.81979   0.00000  Uiso   1.00
C828   C     0.45735   0.28473   0.67999   0.00000  Uiso   1.00
C829   C     0.45732   0.04684   0.68000   0.00000  Uiso   1.00
C830   C     0.54270   0.28648   0.81998   0.00000  Uiso   1.00
C831   C     0.55933   0.21771   0.97871   0.00000  Uiso   1.00
C832   C     0.35476   0.12600   0.75247   0.00000  Uiso   1.00
C833   C     0.64523   0.20733   0.74710   0.00000  Uiso   1.00
C834   C     0.64551   0.12593   0.75174   0.00000  Uiso   1.00
C835   C     0.35448   0.20740   0.74781   0.00000  Uiso   1.00
C836   C     0.62413   0.16661   0.74940   0.00000  Uiso   1.00
H837   H     0.55242   0.21129   0.89052   0.00000  Uiso   1.00
H838   H     0.37043   0.23921   0.74643   0.00000  Uiso   1.00
H839   H     0.38589   0.08121   0.96569   0.00000  Uiso   1.00
H840   H     0.43820   0.02067   0.96886   0.00000  Uiso   1.00
H841   H     0.45909   0.04399   0.91837   0.00000  Uiso   1.00
H842   H     0.40705   0.02184   0.91748   0.00000  Uiso   1.00
H843   H     0.59788   0.27328   0.53384   0.00000  Uiso   1.00
H844   H     0.64426   0.20734   0.53372   0.00000  Uiso   1.00
H845   H     0.61875   0.18987   0.58406   0.00000  Uiso   1.00
H846   H     0.64806   0.24115   0.58427   0.00000  Uiso   1.00
H847   H     0.54512   0.06737   0.88499   0.00000  Uiso   1.00
H848   H     0.44814   0.12158   0.60938   0.00000  Uiso   1.00
H849   H     0.45570   0.26593   0.61480   0.00000  Uiso   1.00
H850   H     0.40518   0.07913   0.65944   0.00000  Uiso   1.00
H851   H     0.59492   0.25431   0.84050   0.00000  Uiso   1.00
H852   H     0.44950   0.12038   0.88548   0.00000  Uiso   1.00
H853   H     0.55067   0.21297   0.61463   0.00000  Uiso   1.00
H854   H     0.42074   0.09276   0.53876   0.00000  Uiso   1.00
H855   H     0.58173   0.23775   0.96130   0.00000  Uiso   1.00
H856   H     0.37093   0.09426   0.75486   0.00000  Uiso   1.00
H857   H     0.62905   0.23907   0.74474   0.00000  Uiso   1.00
H858   H     0.62956   0.09412   0.75310   0.00000  Uiso   1.00
N859   N     0.50000   0.28573   0.75000   0.00000  Uiso   1.00
N860   N     0.50000   0.04760   0.75000   0.00000  Uiso   1.00
N861   N     0.41423   0.08377   0.95054   0.00000  Uiso   1.00
N862   N     0.59045   0.24390   0.54961   0.00000  Uiso   1.00
O863   O     0.43892   0.20487   0.75000   0.00000  Uiso   1.00
O864   O     0.52663   0.05023   0.86271   0.00000  Uiso   1.00
O865   O     0.42362   0.26774   0.68670   0.00000  Uiso   1.00
O866   O     0.47402   0.28309   0.63722   0.00000  Uiso   1.00
O867   O     0.47181   0.04704   0.64256   0.00000  Uiso   1.00
O868   O     0.41828   0.06551   0.68744   0.00000  Uiso   1.00
O869   O     0.52818   0.28611   0.85740   0.00000  Uiso   1.00
O870   O     0.58180   0.26796   0.81253   0.00000  Uiso   1.00
O871   O     0.56108   0.12846   0.75001   0.00000  Uiso   1.00
O872   O     0.56108   0.20487   0.75001   0.00000  Uiso   1.00
O873   O     0.43892   0.12846   0.75000   0.00000  Uiso   1.00
O874   O     0.49999   0.20489   0.68393   0.00000  Uiso   1.00
O875   O     0.50001   0.12844   0.81608   0.00000  Uiso   1.00
O876   O     0.50001   0.20489   0.81608   0.00000  Uiso   1.00
O877   O     0.49999   0.12844   0.68393   0.00000  Uiso   1.00
O878   O     0.57667   0.06551   0.81282   0.00000  Uiso   1.00
Zn879  Zn    0.50000   0.21771   0.75000   0.00000  Uiso   1.00
Zn880  Zn    0.50000   0.11563   0.75000   0.00000  Uiso   1.00
C881   C     0.75342   0.16670   0.75015   0.00000  Uiso   1.00
C882   C     0.70920   0.16672   0.75027   0.00000  Uiso   1.00
C883   C     0.85363   0.02429   0.78346   0.00000  Uiso   1.00
C884   C     0.81310   0.30904   0.71650   0.00000  Uiso   1.00
C885   C     0.81312   0.02351   0.71650   0.00000  Uiso   1.00
C886   C     0.85354   0.30982   0.78350   0.00000  Uiso   1.00
C887   C     0.83314   0.16652   0.66359   0.00000  Uiso   1.00
C888   C     0.83349   0.16680   0.83641   0.00000  Uiso   1.00
C889   C     0.86294   0.19209   0.90808   0.00000  Uiso   1.00
C890   C     0.80468   0.14030   0.59190   0.00000  Uiso   1.00
C891   C     0.83359   0.16668   0.88416   0.00000  Uiso   1.00
C892   C     0.91325   0.16664   0.74976   0.00000  Uiso   1.00
C893   C     0.83349   0.16636   0.61586   0.00000  Uiso   1.00
C894   C     0.80519   0.13968   0.90552   0.00000  Uiso   1.00
C895   C     0.86251   0.19261   0.59456   0.00000  Uiso   1.00
C896   C     0.80532   0.13832   0.95209   0.00000  Uiso   1.00
C897   C     0.86391   0.19206   0.54799   0.00000  Uiso   1.00
C898   C     0.83454   0.16507   0.97668   0.00000  Uiso   1.00
C899   C     0.83464   0.16539   0.52338   0.00000  Uiso   1.00
C900   C     0.86351   0.19178   0.95446   0.00000  Uiso   1.00
C901   C     0.80508   0.13941   0.54557   0.00000  Uiso   1.00
C902   C     0.77659   0.11159   0.97460   0.00000  Uiso   1.00
C903   C     0.77638   0.11292   0.52135   0.00000  Uiso   1.00
C904   C     0.89347   0.21773   0.52551   0.00000  Uiso   1.00
C905   C     0.76398   0.04036   0.93826   0.00000  Uiso   1.00
C906   C     0.96055   0.21913   0.56355   0.00000  Uiso   1.00
C907   C     0.87631   0.04859   0.81979   0.00000  Uiso   1.00
C908   C     0.79068   0.28473   0.67999   0.00000  Uiso   1.00
C909   C     0.79066   0.04684   0.68000   0.00000  Uiso   1.00
C910   C     0.87604   0.28648   0.81998   0.00000  Uiso   1.00
C911   C     0.89266   0.21771   0.97871   0.00000  Uiso   1.00
C912   C     0.68809   0.12600   0.75247   0.00000  Uiso   1.00
C913   C     0.97856   0.20733   0.74710   0.00000  Uiso   1.00
C914   C     0.97884   0.12593   0.75174   0.00000  Uiso   1.00
C915   C     0.68782   0.20740   0.74781   0.00000  Uiso   1.00
C916   C     0.95746   0.16661   0.74940   0.00000  Uiso   1.00
H917   H     0.88576   0.21129   0.89052   0.00000  Uiso   1.00
H918   H     0.70376   0.23921   0.74643   0.00000  Uiso   1.00
H919   H     0.71922   0.08121   0.96569   0.00000  Uiso   1.00
H920   H     0.77153   0.02067   0.96886   0.00000  Uiso   1.00
H921   H     0.79242   0.04399   0.91837   0.00000  Uiso   1.00
H922   H     0.74039   0.02184   0.91748   0.00000  Uiso   1.00
H923   H     0.93122   0.27328   0.53384   0.00000  Uiso   1.00
H924   H     0.97759   0.20734   0.53372   0.00000  Uiso   1.00
H925   H     0.95208   0.18987   0.58406   0.00000  Uiso   1.00
H926   H     0.98140   0.24115   0.58427   0.00000  Uiso   1.00
H927   H     0.87845   0.06737   0.88499   0.00000  Uiso   1.00
H928   H     0.78148   0.12158   0.60938   0.00000  Uiso   1.00
H929   H     0.78903   0.26593   0.61480   0.00000  Uiso   1.00
H930   H     0.73851   0.07913   0.65944   0.00000  Uiso   1.00
H931   H     0.92826   0.25431   0.84050   0.00000  Uiso   1.00
H932   H     0.78283   0.12038   0.88548   0.00000  Uiso   1.00
H933   H     0.88400   0.21297   0.61463   0.00000  Uiso   1.00
H934   H     0.75408   0.09276   0.53876   0.00000  Uiso   1.00
H935   H     0.91506   0.23775   0.96130   0.00000  Uiso   1.00
H936   H     0.70427   0.09426   0.75486   0.00000  Uiso   1.00
H937   H     0.96238   0.23907   0.74474   0.00000  Uiso   1.00
H938   H     0.96289   0.09412   0.75310   0.00000  Uiso   1.00
N939   N     0.83333   0.28573   0.75000   0.00000  Uiso   1.00
N940   N     0.83333   0.04760   0.75000   0.00000  Uiso   1.00
N941   N     0.74756   0.08377   0.95054   0.00000  Uiso   1.00
N942   N     0.92378   0.24390   0.54961   0.00000  Uiso   1.00
O943   O     0.77226   0.20487   0.75000   0.00000  Uiso   1.00
O944   O     0.85997   0.05023   0.86271   0.00000  Uiso   1.00
O945   O     0.75696   0.26774   0.68670   0.00000  Uiso   1.00
O946   O     0.80736   0.28309   0.63722   0.00000  Uiso   1.00
O947   O     0.80514   0.04704   0.64256   0.00000  Uiso   1.00
O948   O     0.75162   0.06551   0.68744   0.00000  Uiso   1.00
O949   O     0.86151   0.28611   0.85740   0.00000  Uiso   1.00
O950   O     0.91514   0.26796   0.81253   0.00000  Uiso   1.00
O951   O     0.89441   0.12846   0.75001   0.00000  Uiso   1.00
O952   O     0.89441   0.20487   0.75001   0.00000  Uiso   1.00
O953   O     0.77226   0.12846   0.75000   0.00000  Uiso   1.00
O954   O     0.83333   0.20489   0.68393   0.00000  Uiso   1.00
O955   O     0.83334   0.12844   0.81608   0.00000  Uiso   1.00
O956   O     0.83334   0.20489   0.81608   0.00000  Uiso   1.00
O957   O     0.83333   0.12844   0.68393   0.00000  Uiso   1.00
O958   O     0.91000   0.06551   0.81282   0.00000  Uiso   1.00
Zn959  Zn    0.83333   0.21771   0.75000   0.00000  Uiso   1.00
Zn960  Zn    0.83333   0.11563   0.75000   0.00000  Uiso   1.00
C961   C     0.08675   0.50003   0.75015   0.00000  Uiso   1.00
C962   C     0.04253   0.50005   0.75027   0.00000  Uiso   1.00
C963   C     0.18696   0.35762   0.78346   0.00000  Uiso   1.00
C964   C     0.14643   0.64238   0.71650   0.00000  Uiso   1.00
C965   C     0.14645   0.35684   0.71650   0.00000  Uiso   1.00
C966   C     0.18688   0.64315   0.78350   0.00000  Uiso   1.00
C967   C     0.16647   0.49985   0.66359   0.00000  Uiso   1.00
C968   C     0.16682   0.50013   0.83641   0.00000  Uiso   1.00
C969   C     0.19628   0.52542   0.90808   0.00000  Uiso   1.00
C970   C     0.13802   0.47364   0.59190   0.00000  Uiso   1.00
C971   C     0.16692   0.50001   0.88416   0.00000  Uiso   1.00
C972   C     0.24658   0.49997   0.74976   0.00000  Uiso   1.00
C973   C     0.16682   0.49969   0.61586   0.00000  Uiso   1.00
C974   C     0.13852   0.47301   0.90552   0.00000  Uiso   1.00
C975   C     0.19584   0.52594   0.59456   0.00000  Uiso   1.00
C976   C     0.13865   0.47165   0.95209   0.00000  Uiso   1.00
C977   C     0.19725   0.52539   0.54799   0.00000  Uiso   1.00
C978   C     0.16787   0.49840   0.97668   0.00000  Uiso   1.00
C979   C     0.16798   0.49872   0.52338   0.00000  Uiso   1.00
C980   C     0.19685   0.52512   0.95446   0.00000  Uiso   1.00
C981   C     0.13842   0.47274   0.54557   0.00000  Uiso   1.00
C982   C     0.10992   0.44492   0.97460   0.00000  Uiso   1.00
C983   C     0.10971   0.44625   0.52135   0.00000  Uiso   1.00
C984   C     0.22681   0.55106   0.52551   0.00000  Uiso   1.00
C985   C     0.09731   0.37370   0.93826   0.00000  Uiso   1.00
C986   C     0.29388   0.55246   0.56355   0.00000  Uiso   1.00
C987   C     0.20964   0.38192   0.81979   0.00000  Uiso   1.00
C988   C     0.12401   0.61807   0.67999   0.00000  Uiso   1.00
C989   C     0.12399   0.38017   0.68000   0.00000  Uiso   1.00
C990   C     0.20937   0.61981   0.81998   0.00000  Uiso   1.00
C991   C     0.22599   0.55104   0.97871   0.00000  Uiso   1.00
C992   C     0.02142   0.45933   0.75247   0.00000  Uiso   1.00
C993   C     0.31190   0.54067   0.74710   0.00000  Uiso   1.00
C994   C     0.31217   0.45926   0.75174   0.00000  Uiso   1.00
C995   C     0.02115   0.54073   0.74781   0.00000  Uiso   1.00
C996   C     0.29079   0.49995   0.74940   0.00000  Uiso   1.00
H997   H     0.21909   0.54462   0.89052   0.00000  Uiso   1.00
H998   H     0.03710   0.57254   0.74643   0.00000  Uiso   1.00
H999   H     0.05255   0.41455   0.96569   0.00000  Uiso   1.00
H1000  H     0.10486   0.35400   0.96886   0.00000  Uiso   1.00
H1001  H     0.12575   0.37732   0.91837   0.00000  Uiso   1.00
H1002  H     0.07372   0.35518   0.91748   0.00000  Uiso   1.00
H1003  H     0.26455   0.60661   0.53384   0.00000  Uiso   1.00
H1004  H     0.31092   0.54067   0.53372   0.00000  Uiso   1.00
H1005  H     0.28542   0.52320   0.58406   0.00000  Uiso   1.00
H1006  H     0.31473   0.57448   0.58427   0.00000  Uiso   1.00
H1007  H     0.21178   0.40070   0.88499   0.00000  Uiso   1.00
H1008  H     0.11481   0.45491   0.60938   0.00000  Uiso   1.00
H1009  H     0.12236   0.59926   0.61480   0.00000  Uiso   1.00
H1010  H     0.07185   0.41246   0.65944   0.00000  Uiso   1.00
H1011  H     0.26159   0.58764   0.84050   0.00000  Uiso   1.00
H1012  H     0.11616   0.45372   0.88548   0.00000  Uiso   1.00
H1013  H     0.21733   0.54630   0.61463   0.00000  Uiso   1.00
H1014  H     0.08741   0.42609   0.53876   0.00000  Uiso   1.00
H1015  H     0.24839   0.57108   0.96130   0.00000  Uiso   1.00
H1016  H     0.03760   0.42759   0.75486   0.00000  Uiso   1.00
H1017  H     0.29571   0.57240   0.74474   0.00000  Uiso   1.00
H1018  H     0.29623   0.42745   0.75310   0.00000  Uiso   1.00
N1019  N     0.16667   0.61907   0.75000   0.00000  Uiso   1.00
N1020  N     0.16667   0.38093   0.75000   0.00000  Uiso   1.00
N1021  N     0.08090   0.41711   0.95054   0.00000  Uiso   1.00
N1022  N     0.25711   0.57723   0.54961   0.00000  Uiso   1.00
O1023  O     0.10559   0.53821   0.75000   0.00000  Uiso   1.00
O1024  O     0.19330   0.38356   0.86271   0.00000  Uiso   1.00
O1025  O     0.09029   0.60107   0.68670   0.00000  Uiso   1.00
O1026  O     0.14069   0.61642   0.63722   0.00000  Uiso   1.00
O1027  O     0.13847   0.38037   0.64256   0.00000  Uiso   1.00
O1028  O     0.08495   0.39884   0.68744   0.00000  Uiso   1.00
O1029  O     0.19484   0.61944   0.85740   0.00000  Uiso   1.00
O1030  O     0.24847   0.60129   0.81253   0.00000  Uiso   1.00
O1031  O     0.22774   0.46179   0.75001   0.00000  Uiso   1.00
O1032  O     0.22774   0.53821   0.75001   0.00000  Uiso   1.00
O1033  O     0.10559   0.46179   0.75000   0.00000  Uiso   1.00
O1034  O     0.16666   0.53823   0.68393   0.00000  Uiso   1.00
O1035  O     0.16667   0.46177   0.81608   0.00000  Uiso   1.00
O1036  O     0.16667   0.53823   0.81608   0.00000  Uiso   1.00
O1037  O     0.16666   0.46177   0.68393   0.00000  Uiso   1.00
O1038  O     0.24334   0.39885   0.81282   0.00000  Uiso   1.00
Zn1039 Zn    0.16667   0.55104   0.75000   0.00000  Uiso   1.00
Zn1040 Zn    0.16667   0.44896   0.75000   0.00000  Uiso   1.00
C1041  C     0.42008   0.50003   0.75015   0.00000  Uiso   1.00
C1042  C     0.37586   0.50005   0.75027   0.00000  Uiso   1.00
C1043  C     0.52030   0.35762   0.78346   0.00000  Uiso   1.00
C1044  C     0.47976   0.64238   0.71650   0.00000  Uiso   1.00
C1045  C     0.47979   0.35684   0.71650   0.00000  Uiso   1.00
C1046  C     0.52021   0.64315   0.78350   0.00000  Uiso   1.00
C1047  C     0.49980   0.49985   0.66359   0.00000  Uiso   1.00
C1048  C     0.50016   0.50013   0.83641   0.00000  Uiso   1.00
C1049  C     0.52961   0.52542   0.90808   0.00000  Uiso   1.00
C1050  C     0.47135   0.47364   0.59190   0.00000  Uiso   1.00
C1051  C     0.50025   0.50001   0.88416   0.00000  Uiso   1.00
C1052  C     0.57991   0.49997   0.74976   0.00000  Uiso   1.00
C1053  C     0.50016   0.49969   0.61586   0.00000  Uiso   1.00
C1054  C     0.47185   0.47301   0.90552   0.00000  Uiso   1.00
C1055  C     0.52918   0.52594   0.59456   0.00000  Uiso   1.00
C1056  C     0.47199   0.47165   0.95209   0.00000  Uiso   1.00
C1057  C     0.53058   0.52539   0.54799   0.00000  Uiso   1.00
C1058  C     0.50121   0.49840   0.97668   0.00000  Uiso   1.00
C1059  C     0.50131   0.49872   0.52338   0.00000  Uiso   1.00
C1060  C     0.53018   0.52512   0.95446   0.00000  Uiso   1.00
C1061  C     0.47175   0.47274   0.54557   0.00000  Uiso   1.00
C1062  C     0.44326   0.44492   0.97460   0.00000  Uiso   1.00
C1063  C     0.44305   0.44625   0.52135   0.00000  Uiso   1.00
C1064  C     0.56014   0.55106   0.52551   0.00000  Uiso   1.00
C1065  C     0.43064   0.37370   0.93826   0.00000  Uiso   1.00
C1066  C     0.62721   0.55246   0.56355   0.00000  Uiso   1.00
C1067  C     0.54298   0.38192   0.81979   0.00000  Uiso   1.00
C1068  C     0.45735   0.61807   0.67999   0.00000  Uiso   1.00
C1069  C     0.45732   0.38017   0.68000   0.00000  Uiso   1.00
C1070  C     0.54270   0.61981   0.81998   0.00000  Uiso   1.00
C1071  C     0.55933   0.55104   0.97871   0.00000  Uiso   1.00
C1072  C     0.35476   0.45933   0.75247   0.00000  Uiso   1.00
C1073  C     0.64523   0.54067   0.74710   0.00000  Uiso   1.00
C1074  C     0.64551   0.45926   0.75174   0.00000  Uiso   1.00
C1075  C     0.35448   0.54073   0.74781   0.00000  Uiso   1.00
C1076  C     0.62413   0.49995   0.74940   0.00000  Uiso   1.00
H1077  H     0.55242   0.54462   0.89052   0.00000  Uiso   1.00
H1078  H     0.37043   0.57254   0.74643   0.00000  Uiso   1.00
H1079  H     0.38589   0.41455   0.96569   0.00000  Uiso   1.00
H1080  H     0.43820   0.35400   0.96886   0.00000  Uiso   1.00
H1081  H     0.45909   0.37732   0.91837   0.00000  Uiso   1.00
H1082  H     0.40705   0.35518   0.91748   0.00000  Uiso   1.00
H1083  H     0.59788   0.60661   0.53384   0.00000  Uiso   1.00
H1084  H     0.64426   0.54067   0.53372   0.00000  Uiso   1.00
H1085  H     0.61875   0.52320   0.58406   0.00000  Uiso   1.00
H1086  H     0.64806   0.57448   0.58427   0.00000  Uiso   1.00
H1087  H     0.54512   0.40070   0.88499   0.00000  Uiso   1.00
H1088  H     0.44814   0.45491   0.60938   0.00000  Uiso   1.00
H1089  H     0.45570   0.59926   0.61480   0.00000  Uiso   1.00
H1090  H     0.40518   0.41246   0.65944   0.00000  Uiso   1.00
H1091  H     0.59492   0.58764   0.84050   0.00000  Uiso   1.00
H1092  H     0.44950   0.45372   0.88548   0.00000  Uiso   1.00
H1093  H     0.55067   0.54630   0.61463   0.00000  Uiso   1.00
H1094  H     0.42074   0.42609   0.53876   0.00000  Uiso   1.00
H1095  H     0.58173   0.57108   0.96130   0.00000  Uiso   1.00
H1096  H     0.37093   0.42759   0.75486   0.00000  Uiso   1.00
H1097  H     0.62905   0.57240   0.74474   0.00000  Uiso   1.00
H1098  H     0.62956   0.42745   0.75310   0.00000  Uiso   1.00
N1099  N     0.50000   0.61907   0.75000   0.00000  Uiso   1.00
N1100  N     0.50000   0.38093   0.75000   0.00000  Uiso   1.00
N1101  N     0.41423   0.41711   0.95054   0.00000  Uiso   1.00
N1102  N     0.59045   0.57723   0.54961   0.00000  Uiso   1.00
O1103  O     0.43892   0.53821   0.75000   0.00000  Uiso   1.00
O1104  O     0.52663   0.38356   0.86271   0.00000  Uiso   1.00
O1105  O     0.42362   0.60107   0.68670   0.00000  Uiso   1.00
O1106  O     0.47402   0.61642   0.63722   0.00000  Uiso   1.00
O1107  O     0.47181   0.38037   0.64256   0.00000  Uiso   1.00
O1108  O     0.41828   0.39884   0.68744   0.00000  Uiso   1.00
O1109  O     0.52818   0.61944   0.85740   0.00000  Uiso   1.00
O1110  O     0.58180   0.60129   0.81253   0.00000  Uiso   1.00
O1111  O     0.56108   0.46179   0.75001   0.00000  Uiso   1.00
O1112  O     0.56108   0.53821   0.75001   0.00000  Uiso   1.00
O1113  O     0.43892   0.46179   0.75000   0.00000  Uiso   1.00
O1114  O     0.49999   0.53823   0.68393   0.00000  Uiso   1.00
O1115  O     0.50001   0.46177   0.81608   0.00000  Uiso   1.00
O1116  O     0.50001   0.53823   0.81608   0.00000  Uiso   1.00
O1117  O     0.49999   0.46177   0.68393   0.00000  Uiso   1.00
O1118  O     0.57667   0.39885   0.81282   0.00000  Uiso   1.00
Zn1119 Zn    0.50000   0.55104   0.75000   0.00000  Uiso   1.00
Zn1120 Zn    0.50000   0.44896   0.75000   0.00000  Uiso   1.00
C1121  C     0.75342   0.50003   0.75015   0.00000  Uiso   1.00
C1122  C     0.70920   0.50005   0.75027   0.00000  Uiso   1.00
C1123  C     0.85363   0.35762   0.78346   0.00000  Uiso   1.00
C1124  C     0.81310   0.64238   0.71650   0.00000  Uiso   1.00
C1125  C     0.81312   0.35684   0.71650   0.00000  Uiso   1.00
C1126  C     0.85354   0.64315   0.78350   0.00000  Uiso   1.00
C1127  C     0.83314   0.49985   0.66359   0.00000  Uiso   1.00
C1128  C     0.83349   0.50013   0.83641   0.00000  Uiso   1.00
C1129  C     0.86294   0.52542   0.90808   0.00000  Uiso   1.00
C1130  C     0.80468   0.47364   0.59190   0.00000  Uiso   1.00
C1131  C     0.83359   0.50001   0.88416   0.00000  Uiso   1.00
C1132  C     0.91325   0.49997   0.74976   0.00000  Uiso   1.00
C1133  C     0.83349   0.49969   0.61586   0.00000  Uiso   1.00
C1134  C     0.80519   0.47301   0.90552   0.00000  Uiso   1.00
C1135  C     0.86251   0.52594   0.59456   0.00000  Uiso   1.00
C1136  C     0.80532   0.47165   0.95209   0.00000  Uiso   1.00
C1137  C     0.86391   0.52539   0.54799   0.00000  Uiso   1.00
C1138  C     0.83454   0.49840   0.97668   0.00000  Uiso   1.00
C1139  C     0.83464   0.49872   0.52338   0.00000  Uiso   1.00
C1140  C     0.86351   0.52512   0.95446   0.00000  Uiso   1.00
C1141  C     0.80508   0.47274   0.54557   0.00000  Uiso   1.00
C1142  C     0.77659   0.44492   0.97460   0.00000  Uiso   1.00
C1143  C     0.77638   0.44625   0.52135   0.00000  Uiso   1.00
C1144  C     0.89347   0.55106   0.52551   0.00000  Uiso   1.00
C1145  C     0.76398   0.37370   0.93826   0.00000  Uiso   1.00
C1146  C     0.96055   0.55246   0.56355   0.00000  Uiso   1.00
C1147  C     0.87631   0.38192   0.81979   0.00000  Uiso   1.00
C1148  C     0.79068   0.61807   0.67999   0.00000  Uiso   1.00
C1149  C     0.79066   0.38017   0.68000   0.00000  Uiso   1.00
C1150  C     0.87604   0.61981   0.81998   0.00000  Uiso   1.00
C1151  C     0.89266   0.55104   0.97871   0.00000  Uiso   1.00
C1152  C     0.68809   0.45933   0.75247   0.00000  Uiso   1.00
C1153  C     0.97856   0.54067   0.74710   0.00000  Uiso   1.00
C1154  C     0.97884   0.45926   0.75174   0.00000  Uiso   1.00
C1155  C     0.68782   0.54073   0.74781   0.00000  Uiso   1.00
C1156  C     0.95746   0.49995   0.74940   0.00000  Uiso   1.00
H1157  H     0.88576   0.54462   0.89052   0.00000  Uiso   1.00
H1158  H     0.70376   0.57254   0.74643   0.00000  Uiso   1.00
H1159  H     0.71922   0.41455   0.96569   0.00000  Uiso   1.00
H1160  H     0.77153   0.35400   0.96886   0.00000  Uiso   1.00
H1161  H     0.79242   0.37732   0.91837   0.00000  Uiso   1.00
H1162  H     0.74039   0.35518   0.91748   0.00000  Uiso   1.00
H1163  H     0.93122   0.60661   0.53384   0.00000  Uiso   1.00
H1164  H     0.97759   0.54067   0.53372   0.00000  Uiso   1.00
H1165  H     0.95208   0.52320   0.58406   0.00000  Uiso   1.00
H1166  H     0.98140   0.57448   0.58427   0.00000  Uiso   1.00
H1167  H     0.87845   0.40070   0.88499   0.00000  Uiso   1.00
H1168  H     0.78148   0.45491   0.60938   0.00000  Uiso   1.00
H1169  H     0.78903   0.59926   0.61480   0.00000  Uiso   1.00
H1170  H     0.73851   0.41246   0.65944   0.00000  Uiso   1.00
H1171  H     0.92826   0.58764   0.84050   0.00000  Uiso   1.00
H1172  H     0.78283   0.45372   0.88548   0.00000  Uiso   1.00
H1173  H     0.88400   0.54630   0.61463   0.00000  Uiso   1.00
H1174  H     0.75408   0.42609   0.53876   0.00000  Uiso   1.00
H1175  H     0.91506   0.57108   0.96130   0.00000  Uiso   1.00
H1176  H     0.70427   0.42759   0.75486   0.00000  Uiso   1.00
H1177  H     0.96238   0.57240   0.74474   0.00000  Uiso   1.00
H1178  H     0.96289   0.42745   0.75310   0.00000  Uiso   1.00
N1179  N     0.83333   0.61907   0.75000   0.00000  Uiso   1.00
N1180  N     0.83333   0.38093   0.75000   0.00000  Uiso   1.00
N1181  N     0.74756   0.41711   0.95054   0.00000  Uiso   1.00
N1182  N     0.92378   0.57723   0.54961   0.00000  Uiso   1.00
O1183  O     0.77226   0.53821   0.75000   0.00000  Uiso   1.00
O1184  O     0.85997   0.38356   0.86271   0.00000  Uiso   1.00
O1185  O     0.75696   0.60107   0.68670   0.00000  Uiso   1.00
O1186  O     0.80736   0.61642   0.63722   0.00000  Uiso   1.00
O1187  O     0.80514   0.38037   0.64256   0.00000  Uiso   1.00
O1188  O     0.75162   0.39884   0.68744   0.00000  Uiso   1.00
O1189  O     0.86151   0.61944   0.85740   0.00000  Uiso   1.00
O1190  O     0.91514   0.60129   0.81253   0.00000  Uiso   1.00
O1191  O     0.89441   0.46179   0.75001   0.00000  Uiso   1.00
O1192  O     0.89441   0.53821   0.75001   0.00000  Uiso   1.00
O1193  O     0.77226   0.46179   0.75000   0.00000  Uiso   1.00
O1194  O     0.83333   0.53823   0.68393   0.00000  Uiso   1.00
O1195  O     0.83334   0.46177   0.81608   0.00000  Uiso   1.00
O1196  O     0.83334   0.53823   0.81608   0.00000  Uiso   1.00
O1197  O     0.83333   0.46177   0.68393   0.00000  Uiso   1.00
O1198  O     0.91000   0.39885   0.81282   0.00000  Uiso   1.00
Zn1199 Zn    0.83333   0.55104   0.75000   0.00000  Uiso   1.00
Zn1200 Zn    0.83333   0.44896   0.75000   0.00000  Uiso   1.00
C1201  C     0.08675   0.83336   0.75015   0.00000  Uiso   1.00
C1202  C     0.04253   0.83338   0.75027   0.00000  Uiso   1.00
C1203  C     0.18696   0.69095   0.78346   0.00000  Uiso   1.00
C1204  C     0.14643   0.97571   0.71650   0.00000  Uiso   1.00
C1205  C     0.14645   0.69018   0.71650   0.00000  Uiso   1.00
C1206  C     0.18688   0.97649   0.78350   0.00000  Uiso   1.00
C1207  C     0.16647   0.83319   0.66359   0.00000  Uiso   1.00
C1208  C     0.16682   0.83346   0.83641   0.00000  Uiso   1.00
C1209  C     0.19628   0.85875   0.90808   0.00000  Uiso   1.00
C1210  C     0.13802   0.80697   0.59190   0.00000  Uiso   1.00
C1211  C     0.16692   0.83334   0.88416   0.00000  Uiso   1.00
C1212  C     0.24658   0.83331   0.74976   0.00000  Uiso   1.00
C1213  C     0.16682   0.83303   0.61586   0.00000  Uiso   1.00
C1214  C     0.13852   0.80635   0.90552   0.00000  Uiso   1.00
C1215  C     0.19584   0.85927   0.59456   0.00000  Uiso   1.00
C1216  C     0.13865   0.80498   0.95209   0.00000  Uiso   1.00
C1217  C     0.19725   0.85872   0.54799   0.00000  Uiso   1.00
C1218  C     0.16787   0.83173   0.97668   0.00000  Uiso   1.00
C1219  C     0.16798   0.83205   0.52338   0.00000  Uiso   1.00
C1220  C     0.19685   0.85845   0.95446   0.00000  Uiso   1.00
C1221  C     0.13842   0.80608   0.54557   0.00000  Uiso   1.00
C1222  C     0.10992   0.77826   0.97460   0.00000  Uiso   1.00
C1223  C     0.10971   0.77958   0.52135   0.00000  Uiso   1.00
C1224  C     0.22681   0.88439   0.52551   0.00000  Uiso   1.00
C1225  C     0.09731   0.70703   0.93826   0.00000  Uiso   1.00
C1226  C     0.29388   0.88579   0.56355   0.00000  Uiso   1.00
C1227  C     0.20964   0.71525   0.81979   0.00000  Uiso   1.00
C1228  C     0.12401   0.95140   0.67999   0.00000  Uiso   1.00
C1229  C     0.12399   0.71350   0.68000   0.00000  Uiso   1.00
C1230  C     0.20937   0.95315   0.81998   0.00000  Uiso   1.00
C1231  C     0.22599   0.88437   0.97871   0.00000  Uiso   1.00
C1232  C     0.02142   0.79266   0.75247   0.00000  Uiso   1.00
C1233  C     0.31190   0.87400   0.74710   0.00000  Uiso   1.00
C1234  C     0.31217   0.79259   0.75174   0.00000  Uiso   1.00
C1235  C     0.02115   0.87407   0.74781   0.00000  Uiso   1.00
C1236  C     0.29079   0.83328   0.74940   0.00000  Uiso   1.00
H1237  H     0.21909   0.87796   0.89052   0.00000  Uiso   1.00
H1238  H     0.03710   0.90587   0.74643   0.00000  Uiso   1.00
H1239  H     0.05255   0.74788   0.96569   0.00000  Uiso   1.00
H1240  H     0.10486   0.68734   0.96886   0.00000  Uiso   1.00
H1241  H     0.12575   0.71065   0.91837   0.00000  Uiso   1.00
H1242  H     0.07372   0.68851   0.91748   0.00000  Uiso   1.00
H1243  H     0.26455   0.93994   0.53384   0.00000  Uiso   1.00
H1244  H     0.31092   0.87400   0.53372   0.00000  Uiso   1.00
H1245  H     0.28542   0.85654   0.58406   0.00000  Uiso   1.00
H1246  H     0.31473   0.90781   0.58427   0.00000  Uiso   1.00
H1247  H     0.21178   0.73403   0.88499   0.00000  Uiso   1.00
H1248  H     0.11481   0.78824   0.60938   0.00000  Uiso   1.00
H1249  H     0.12236   0.93260   0.61480   0.00000  Uiso   1.00
H1250  H     0.07185   0.74579   0.65944   0.00000  Uiso   1.00
H1251  H     0.26159   0.92097   0.84050   0.00000  Uiso   1.00
H1252  H     0.11616   0.78705   0.88548   0.00000  Uiso   1.00
H1253  H     0.21733   0.87963   0.61463   0.00000  Uiso   1.00
H1254  H     0.08741   0.75942   0.53876   0.00000  Uiso   1.00
H1255  H     0.24839   0.90441   0.96130   0.00000  Uiso   1.00
H1256  H     0.03760   0.76092   0.75486   0.00000  Uiso   1.00
H1257  H     0.29571   0.90574   0.74474   0.00000  Uiso   1.00
H1258  H     0.29623   0.76078   0.75310   0.00000  Uiso   1.00
N1259  N     0.16667   0.95240   0.75000   0.00000  Uiso   1.00
N1260  N     0.16667   0.71427   0.75000   0.00000  Uiso   1.00
N1261  N     0.08090   0.75044   0.95054   0.00000  Uiso   1.00
N1262  N     0.25711   0.91057   0.54961   0.00000  Uiso   1.00
O1263  O     0.10559   0.87154   0.75000   0.00000  Uiso   1.00
O1264  O     0.19330   0.71689   0.86271   0.00000  Uiso   1.00
O1265  O     0.09029   0.93440   0.68670   0.00000  Uiso   1.00
O1266  O     0.14069   0.94975   0.63722   0.00000  Uiso   1.00
O1267  O     0.13847   0.71371   0.64256   0.00000  Uiso   1.00
O1268  O     0.08495   0.73217   0.68744   0.00000  Uiso   1.00
O1269  O     0.19484   0.95277   0.85740   0.00000  Uiso   1.00
O1270  O     0.24847   0.93463   0.81253   0.00000  Uiso   1.00
O1271  O     0.22774   0.79513   0.75001   0.00000  Uiso   1.00
O1272  O     0.22774   0.87154   0.75001   0.00000  Uiso   1.00
O1273  O     0.10559   0.79513   0.75000   0.00000  Uiso   1.00
O1274  O     0.16666   0.87156   0.68393   0.00000  Uiso   1.00
O1275  O     0.16667   0.79511   0.81608   0.00000  Uiso   1.00
O1276  O     0.16667   0.87156   0.81608   0.00000  Uiso   1.00
O1277  O     0.16666   0.79511   0.68393   0.00000  Uiso   1.00
O1278  O     0.24334   0.73218   0.81282   0.00000  Uiso   1.00
Zn1279 Zn    0.16667   0.88437   0.75000   0.00000  Uiso   1.00
Zn1280 Zn    0.16667   0.78229   0.75000   0.00000  Uiso   1.00
C1281  C     0.42008   0.83336   0.75015   0.00000  Uiso   1.00
C1282  C     0.37586   0.83338   0.75027   0.00000  Uiso   1.00
C1283  C     0.52030   0.69095   0.78346   0.00000  Uiso   1.00
C1284  C     0.47976   0.97571   0.71650   0.00000  Uiso   1.00
C1285  C     0.47979   0.69018   0.71650   0.00000  Uiso   1.00
C1286  C     0.52021   0.97649   0.78350   0.00000  Uiso   1.00
C1287  C     0.49980   0.83319   0.66359   0.00000  Uiso   1.00
C1288  C     0.50016   0.83346   0.83641   0.00000  Uiso   1.00
C1289  C     0.52961   0.85875   0.90808   0.00000  Uiso   1.00
C1290  C     0.47135   0.80697   0.59190   0.00000  Uiso   1.00
C1291  C     0.50025   0.83334   0.88416   0.00000  Uiso   1.00
C1292  C     0.57991   0.83331   0.74976   0.00000  Uiso   1.00
C1293  C     0.50016   0.83303   0.61586   0.00000  Uiso   1.00
C1294  C     0.47185   0.80635   0.90552   0.00000  Uiso   1.00
C1295  C     0.52918   0.85927   0.59456   0.00000  Uiso   1.00
C1296  C     0.47199   0.80498   0.95209   0.00000  Uiso   1.00
C1297  C     0.53058   0.85872   0.54799   0.00000  Uiso   1.00
C1298  C     0.50121   0.83173   0.97668   0.00000  Uiso   1.00
C1299  C     0.50131   0.83205   0.52338   0.00000  Uiso   1.00
C1300  C     0.53018   0.85845   0.95446   0.00000  Uiso   1.00
C1301  C     0.47175   0.80608   0.54557   0.00000  Uiso   1.00
C1302  C     0.44326   0.77826   0.97460   0.00000  Uiso   1.00
C1303  C     0.44305   0.77958   0.52135   0.00000  Uiso   1.00
C1304  C     0.56014   0.88439   0.52551   0.00000  Uiso   1.00
C1305  C     0.43064   0.70703   0.93826   0.00000  Uiso   1.00
C1306  C     0.62721   0.88579   0.56355   0.00000  Uiso   1.00
C1307  C     0.54298   0.71525   0.81979   0.00000  Uiso   1.00
C1308  C     0.45735   0.95140   0.67999   0.00000  Uiso   1.00
C1309  C     0.45732   0.71350   0.68000   0.00000  Uiso   1.00
C1310  C     0.54270   0.95315   0.81998   0.00000  Uiso   1.00
C1311  C     0.55933   0.88437   0.97871   0.00000  Uiso   1.00
C1312  C     0.35476   0.79266   0.75247   0.00000  Uiso   1.00
C1313  C     0.64523   0.87400   0.74710   0.00000  Uiso   1.00
C1314  C     0.64551   0.79259   0.75174   0.00000  Uiso   1.00
C1315  C     0.35448   0.87407   0.74781   0.00000  Uiso   1.00
C1316  C     0.62413   0.83328   0.74940   0.00000  Uiso   1.00
H1317  H     0.55242   0.87796   0.89052   0.00000  Uiso   1.00
H1318  H     0.37043   0.90587   0.74643   0.00000  Uiso   1.00
H1319  H     0.38589   0.74788   0.96569   0.00000  Uiso   1.00
H1320  H     0.43820   0.68734   0.96886   0.00000  Uiso   1.00
H1321  H     0.45909   0.71065   0.91837   0.00000  Uiso   1.00
H1322  H     0.40705   0.68851   0.91748   0.00000  Uiso   1.00
H1323  H     0.59788   0.93994   0.53384   0.00000  Uiso   1.00
H1324  H     0.64426   0.87400   0.53372   0.00000  Uiso   1.00
H1325  H     0.61875   0.85654   0.58406   0.00000  Uiso   1.00
H1326  H     0.64806   0.90781   0.58427   0.00000  Uiso   1.00
H1327  H     0.54512   0.73403   0.88499   0.00000  Uiso   1.00
H1328  H     0.44814   0.78824   0.60938   0.00000  Uiso   1.00
H1329  H     0.45570   0.93260   0.61480   0.00000  Uiso   1.00
H1330  H     0.40518   0.74579   0.65944   0.00000  Uiso   1.00
H1331  H     0.59492   0.92097   0.84050   0.00000  Uiso   1.00
H1332  H     0.44950   0.78705   0.88548   0.00000  Uiso   1.00
H1333  H     0.55067   0.87963   0.61463   0.00000  Uiso   1.00
H1334  H     0.42074   0.75942   0.53876   0.00000  Uiso   1.00
H1335  H     0.58173   0.90441   0.96130   0.00000  Uiso   1.00
H1336  H     0.37093   0.76092   0.75486   0.00000  Uiso   1.00
H1337  H     0.62905   0.90574   0.74474   0.00000  Uiso   1.00
H1338  H     0.62956   0.76078   0.75310   0.00000  Uiso   1.00
N1339  N     0.50000   0.95240   0.75000   0.00000  Uiso   1.00
N1340  N     0.50000   0.71427   0.75000   0.00000  Uiso   1.00
N1341  N     0.41423   0.75044   0.95054   0.00000  Uiso   1.00
N1342  N     0.59045   0.91057   0.54961   0.00000  Uiso   1.00
O1343  O     0.43892   0.87154   0.75000   0.00000  Uiso   1.00
O1344  O     0.52663   0.71689   0.86271   0.00000  Uiso   1.00
O1345  O     0.42362   0.93440   0.68670   0.00000  Uiso   1.00
O1346  O     0.47402   0.94975   0.63722   0.00000  Uiso   1.00
O1347  O     0.47181   0.71371   0.64256   0.00000  Uiso   1.00
O1348  O     0.41828   0.73217   0.68744   0.00000  Uiso   1.00
O1349  O     0.52818   0.95277   0.85740   0.00000  Uiso   1.00
O1350  O     0.58180   0.93463   0.81253   0.00000  Uiso   1.00
O1351  O     0.56108   0.79513   0.75001   0.00000  Uiso   1.00
O1352  O     0.56108   0.87154   0.75001   0.00000  Uiso   1.00
O1353  O     0.43892   0.79513   0.75000   0.00000  Uiso   1.00
O1354  O     0.49999   0.87156   0.68393   0.00000  Uiso   1.00
O1355  O     0.50001   0.79511   0.81608   0.00000  Uiso   1.00
O1356  O     0.50001   0.87156   0.81608   0.00000  Uiso   1.00
O1357  O     0.49999   0.79511   0.68393   0.00000  Uiso   1.00
O1358  O     0.57667   0.73218   0.81282   0.00000  Uiso   1.00
Zn1359 Zn    0.50000   0.88437   0.75000   0.00000  Uiso   1.00
Zn1360 Zn    0.50000   0.78229   0.75000   0.00000  Uiso   1.00
C1361  C     0.75342   0.83336   0.75015   0.00000  Uiso   1.00
C1362  C     0.70920   0.83338   0.75027   0.00000  Uiso   1.00
C1363  C     0.85363   0.69095   0.78346   0.00000  Uiso   1.00
C1364  C     0.81310   0.97571   0.71650   0.00000  Uiso   1.00
C1365  C     0.81312   0.69018   0.71650   0.00000  Uiso   1.00
C1366  C     0.85354   0.97649   0.78350   0.00000  Uiso   1.00
C1367  C     0.83314   0.83319   0.66359   0.00000  Uiso   1.00
C1368  C     0.83349   0.83346   0.83641   0.00000  Uiso   1.00
C1369  C     0.86294   0.85875   0.90808   0.00000  Uiso   1.00
C1370  C     0.80468   0.80697   0.59190   0.00000  Uiso   1.00
C1371  C     0.83359   0.83334   0.88416   0.00000  Uiso   1.00
C1372  C     0.91325   0.83331   0.74976   0.00000  Uiso   1.00
C1373  C     0.83349   0.83303   0.61586   0.00000  Uiso   1.00
C1374  C     0.80519   0.80635   0.90552   0.00000  Uiso   1.00
C1375  C     0.86251   0.85927   0.59456   0.00000  Uiso   1.00
C1376  C     0.80532   0.80498   0.95209   0.00000  Uiso   1.00
C1377  C     0.86391   0.85872   0.54799   0.00000  Uiso   1.00
C1378  C     0.83454   0.83173   0.97668   0.00000  Uiso   1.00
C1379  C     0.83464   0.83205   0.52338   0.00000  Uiso   1.00
C1380  C     0.86351   0.85845   0.95446   0.00000  Uiso   1.00
C1381  C     0.80508   0.80608   0.54557   0.00000  Uiso   1.00
C1382  C     0.77659   0.77826   0.97460   0.00000  Uiso   1.00
C1383  C     0.77638   0.77958   0.52135   0.00000  Uiso   1.00
C1384  C     0.89347   0.88439   0.52551   0.00000  Uiso   1.00
C1385  C     0.76398   0.70703   0.93826   0.00000  Uiso   1.00
C1386  C     0.96055   0.88579   0.56355   0.00000  Uiso   1.00
C1387  C     0.87631   0.71525   0.81979   0.00000  Uiso   1.00
C1388  C     0.79068   0.95140   0.67999   0.00000  Uiso   1.00
C1389  C     0.79066   0.71350   0.68000   0.00000  Uiso   1.00
C1390  C     0.87604   0.95315   0.81998   0.00000  Uiso   1.00
C1391  C     0.89266   0.88437   0.97871   0.00000  Uiso   1.00
C1392  C     0.68809   0.79266   0.75247   0.00000  Uiso   1.00
C1393  C     0.97856   0.87400   0.74710   0.00000  Uiso   1.00
C1394  C     0.97884   0.79259   0.75174   0.00000  Uiso   1.00
C1395  C     0.68782   0.87407   0.74781   0.00000  Uiso   1.00
C1396  C     0.95746   0.83328   0.74940   0.00000  Uiso   1.00
H1397  H     0.88576   0.87796   0.89052   0.00000  Uiso   1.00
H1398  H     0.70376   0.90587   0.74643   0.00000  Uiso   1.00
H1399  H     0.71922   0.74788   0.96569   0.00000  Uiso   1.00
H1400  H     0.77153   0.68734   0.96886   0.00000  Uiso   1.00
H1401  H     0.79242   0.71065   0.91837   0.00000  Uiso   1.00
H1402  H     0.74039   0.68851   0.91748   0.00000  Uiso   1.00
H1403  H     0.93122   0.93994   0.53384   0.00000  Uiso   1.00
H1404  H     0.97759   0.87400   0.53372   0.00000  Uiso   1.00
H1405  H     0.95208   0.85654   0.58406   0.00000  Uiso   1.00
H1406  H     0.98140   0.90781   0.58427   0.00000  Uiso   1.00
H1407  H     0.87845   0.73403   0.88499   0.00000  Uiso   1.00
H1408  H     0.78148   0.78824   0.60938   0.00000  Uiso   1.00
H1409  H     0.78903   0.93260   0.61480   0.00000  Uiso   1.00
H1410  H     0.73851   0.74579   0.65944   0.00000  Uiso   1.00
H1411  H     0.92826   0.92097   0.84050   0.00000  Uiso   1.00
H1412  H     0.78283   0.78705   0.88548   0.00000  Uiso   1.00
H1413  H     0.88400   0.87963   0.61463   0.00000  Uiso   1.00
H1414  H     0.75408   0.75942   0.53876   0.00000  Uiso   1.00
H1415  H     0.91506   0.90441   0.96130   0.00000  Uiso   1.00
H1416  H     0.70427   0.76092   0.75486   0.00000  Uiso   1.00
H1417  H     0.96238   0.90574   0.74474   0.00000  Uiso   1.00
H1418  H     0.96289   0.76078   0.75310   0.00000  Uiso   1.00
N1419  N     0.83333   0.95240   0.75000   0.00000  Uiso   1.00
N1420  N     0.83333   0.71427   0.75000   0.00000  Uiso   1.00
N1421  N     0.74756   0.75044   0.95054   0.00000  Uiso   1.00
N1422  N     0.92378   0.91057   0.54961   0.00000  Uiso   1.00
O1423  O     0.77226   0.87154   0.75000   0.00000  Uiso   1.00
O1424  O     0.85997   0.71689   0.86271   0.00000  Uiso   1.00
O1425  O     0.75696   0.93440   0.68670   0.00000  Uiso   1.00
O1426  O     0.80736   0.94975   0.63722   0.00000  Uiso   1.00
O1427  O     0.80514   0.71371   0.64256   0.00000  Uiso   1.00
O1428  O     0.75162   0.73217   0.68744   0.00000  Uiso   1.00
O1429  O     0.86151   0.95277   0.85740   0.00000  Uiso   1.00
O1430  O     0.91514   0.93463   0.81253   0.00000  Uiso   1.00
O1431  O     0.89441   0.79513   0.75001   0.00000  Uiso   1.00
O1432  O     0.89441   0.87154   0.75001   0.00000  Uiso   1.00
O1433  O     0.77226   0.79513   0.75000   0.00000  Uiso   1.00
O1434  O     0.83333   0.87156   0.68393   0.00000  Uiso   1.00
O1435  O     0.83334   0.79511   0.81608   0.00000  Uiso   1.00
O1436  O     0.83334   0.87156   0.81608   0.00000  Uiso   1.00
O1437  O     0.83333   0.79511   0.68393   0.00000  Uiso   1.00
O1438  O     0.91000   0.73218   0.81282   0.00000  Uiso   1.00
Zn1439 Zn    0.83333   0.88437   0.75000   0.00000  Uiso   1.00
Zn1440 Zn    0.83333   0.78229   0.75000   0.00000  Uiso   1.00
loop_
_geom_bond_atom_site_label_1
_geom_bond_atom_site_label_2
_geom_bond_distance
_geom_bond_site_symmetry_2
_ccdc_geom_bond_type
C1     C2      1.422   .     S
C1     O63     1.293   .     A
C1     O73     1.292   .     A
C2     C35     1.397   .     A
C2     C32     1.397   .     A
C3     N60     1.372   .     A
C3     C27     1.474   .     S
C3     C486    1.428   1_545 S
C4     N59     1.372   .     A
C4     C28     1.474   .     S
C4     C245    1.428   .     S
C5     C29     1.470   .     S
C5     N60     1.374   .     A
C5     C484    1.428   1_545 S
C6     C30     1.470   .     S
C6     N59     1.374   .     A
C6     C243    1.428   .     S
C7     O77     1.295   .     A
C7     O74     1.291   .     A
C7     C13     1.424   .     S
C8     O76     1.295   .     A
C8     O75     1.291   .     A
C8     C11     1.424   .     S
C9     C20     1.383   .     A
C9     H37     1.082   .     S
C9     C11     1.389   .     A
C10    C21     1.382   .     A
C10    H48     1.082   .     S
C10    C13     1.388   .     A
C11    C14     1.392   .     A
C12    C36     1.422   .     S
C12    O72     1.292   .     A
C12    O71     1.293   .     A
C13    C15     1.391   .     A
C14    H52     1.084   .     S
C14    C16     1.390   .     A
C15    H53     1.084   .     S
C15    C17     1.390   .     A
C16    C22     1.411   .     A
C16    C18     1.418   .     A
C17    C19     1.418   .     A
C17    C24     1.411   .     A
C18    C20     1.412   .     A
C18    C739    1.392   .     S
C19    C21     1.412   .     A
C19    C738    1.392   1_554 S
C20    C31     1.397   .     A
C21    C23     1.397   .     A
C22    N61     1.424   .     S
C22    C743    1.394   .     S
C23    H54     1.085   .     S
C23    C742    1.394   1_554 S
C24    N62     1.424   .     S
C24    C751    1.395   1_554 S
C25    H40     1.112   .     S
C25    N61     1.447   .     S
C25    H41     1.110   .     S
C25    H42     1.110   .     S
C26    H44     1.112   .     S
C26    H45     1.111   .     S
C26    N62     1.447   .     S
C26    H46     1.110   .     S
C27    O78     1.221   .     D
C27    O64     1.398   .     S
C28    O66     1.398   .     S
C28    O65     1.221   .     D
C29    O67     1.222   .     D
C29    O68     1.395   .     S
C30    O70     1.395   .     S
C30    O69     1.222   .     D
C31    H55     1.085   .     S
C31    C744    1.395   .     S
C32    H56     1.083   .     S
C32    C194    1.369   1_455 S
C33    C36     1.397   .     A
C33    H57     1.083   .     S
C33    C115    1.369   .     S
C34    C36     1.397   .     A
C34    H58     1.082   .     S
C34    C112    1.369   .     S
C35    H38     1.082   .     S
C35    C193    1.369   1_455 S
H39    N61     1.032   .     S
H43    N62     1.032   .     S
H47    O64     1.014   .     S
H49    O66     1.014   .     S
H50    O68     1.013   .     S
H51    O70     1.013   .     S
N59    Zn79    2.033   .     S
N60    Zn80    2.033   .     S
O63    Zn79    2.001   .     S
O71    Zn80    2.001   .     S
O72    Zn79    2.000   .     S
O73    Zn80    2.000   .     S
O74    Zn79    2.003   .     S
O75    Zn80    2.003   .     S
O76    Zn79    2.011   .     S
O77    Zn80    2.011   .     S
C81    C82     1.422   .     S
C81    O143    1.293   .     A
C81    O153    1.292   .     A
C82    C115    1.397   .     A
C82    C112    1.397   .     A
C83    N140    1.372   .     A
C83    C107    1.474   .     S
C83    C566    1.428   1_545 S
C84    N139    1.372   .     A
C84    C108    1.474   .     S
C84    C325    1.428   .     S
C85    C109    1.470   .     S
C85    N140    1.374   .     A
C85    C564    1.428   1_545 S
C86    C110    1.470   .     S
C86    N139    1.374   .     A
C86    C323    1.428   .     S
C87    O157    1.295   .     A
C87    O154    1.291   .     A
C87    C93     1.424   .     S
C88    O156    1.295   .     A
C88    O155    1.291   .     A
C88    C91     1.424   .     S
C89    C100    1.383   .     A
C89    H117    1.082   .     S
C89    C91     1.389   .     A
C90    C101    1.382   .     A
C90    H128    1.082   .     S
C90    C93     1.388   .     A
C91    C94     1.392   .     A
C92    C116    1.422   .     S
C92    O152    1.292   .     A
C92    O151    1.293   .     A
C93    C95     1.391   .     A
C94    H132    1.084   .     S
C94    C96     1.390   .     A
C95    H133    1.084   .     S
C95    C97     1.390   .     A
C96    C102    1.411   .     A
C96    C98     1.418   .     A
C97    C99     1.418   .     A
C97    C104    1.411   .     A
C98    C100    1.412   .     A
C98    C819    1.392   .     S
C99    C101    1.412   .     A
C99    C818    1.392   1_554 S
C100   C111    1.397   .     A
C101   C103    1.397   .     A
C102   N141    1.424   .     S
C102   C823    1.394   .     S
C103   H134    1.085   .     S
C103   C822    1.394   1_554 S
C104   N142    1.424   .     S
C104   C831    1.395   1_554 S
C105   H120    1.112   .     S
C105   N141    1.447   .     S
C105   H121    1.110   .     S
C105   H122    1.110   .     S
C106   H124    1.112   .     S
C106   H125    1.111   .     S
C106   N142    1.447   .     S
C106   H126    1.110   .     S
C107   O158    1.221   .     D
C107   O144    1.398   .     S
C108   O146    1.398   .     S
C108   O145    1.221   .     D
C109   O147    1.222   .     D
C109   O148    1.395   .     S
C110   O150    1.395   .     S
C110   O149    1.222   .     D
C111   H135    1.085   .     S
C111   C824    1.395   .     S
C112   H136    1.083   .     S
C113   C116    1.397   .     A
C113   H137    1.083   .     S
C113   C195    1.369   .     S
C114   C116    1.397   .     A
C114   H138    1.082   .     S
C114   C192    1.369   .     S
C115   H118    1.082   .     S
H119   N141    1.032   .     S
H123   N142    1.032   .     S
H127   O144    1.014   .     S
H129   O146    1.014   .     S
H130   O148    1.013   .     S
H131   O150    1.013   .     S
N139   Zn159   2.033   .     S
N140   Zn160   2.033   .     S
O143   Zn159   2.001   .     S
O151   Zn160   2.001   .     S
O152   Zn159   2.000   .     S
O153   Zn160   2.000   .     S
O154   Zn159   2.003   .     S
O155   Zn160   2.003   .     S
O156   Zn159   2.011   .     S
O157   Zn160   2.011   .     S
C161   C162    1.422   .     S
C161   O223    1.293   .     A
C161   O233    1.292   .     A
C162   C195    1.397   .     A
C162   C192    1.397   .     A
C163   N220    1.372   .     A
C163   C187    1.474   .     S
C163   C646    1.428   1_545 S
C164   N219    1.372   .     A
C164   C188    1.474   .     S
C164   C405    1.428   .     S
C165   C189    1.470   .     S
C165   N220    1.374   .     A
C165   C644    1.428   1_545 S
C166   C190    1.470   .     S
C166   N219    1.374   .     A
C166   C403    1.428   .     S
C167   O237    1.295   .     A
C167   O234    1.291   .     A
C167   C173    1.424   .     S
C168   O236    1.295   .     A
C168   O235    1.291   .     A
C168   C171    1.424   .     S
C169   C180    1.383   .     A
C169   H197    1.082   .     S
C169   C171    1.389   .     A
C170   C181    1.382   .     A
C170   H208    1.082   .     S
C170   C173    1.388   .     A
C171   C174    1.392   .     A
C172   C196    1.422   .     S
C172   O232    1.292   .     A
C172   O231    1.293   .     A
C173   C175    1.391   .     A
C174   H212    1.084   .     S
C174   C176    1.390   .     A
C175   H213    1.084   .     S
C175   C177    1.390   .     A
C176   C182    1.411   .     A
C176   C178    1.418   .     A
C177   C179    1.418   .     A
C177   C184    1.411   .     A
C178   C180    1.412   .     A
C178   C899    1.392   .     S
C179   C181    1.412   .     A
C179   C898    1.392   1_554 S
C180   C191    1.397   .     A
C181   C183    1.397   .     A
C182   N221    1.424   .     S
C182   C903    1.394   .     S
C183   H214    1.085   .     S
C183   C902    1.394   1_554 S
C184   N222    1.424   .     S
C184   C911    1.395   1_554 S
C185   H200    1.112   .     S
C185   N221    1.447   .     S
C185   H201    1.110   .     S
C185   H202    1.110   .     S
C186   H204    1.112   .     S
C186   H205    1.111   .     S
C186   N222    1.447   .     S
C186   H206    1.110   .     S
C187   O238    1.221   .     D
C187   O224    1.398   .     S
C188   O226    1.398   .     S
C188   O225    1.221   .     D
C189   O227    1.222   .     D
C189   O228    1.395   .     S
C190   O230    1.395   .     S
C190   O229    1.222   .     D
C191   H215    1.085   .     S
C191   C904    1.395   .     S
C192   H216    1.083   .     S
C193   C196    1.397   .     A
C193   H217    1.083   .     S
C193   C35     1.369   1_655 S
C194   C196    1.397   .     A
C194   H218    1.082   .     S
C194   C32     1.369   1_655 S
C195   H198    1.082   .     S
H199   N221    1.032   .     S
H203   N222    1.032   .     S
H207   O224    1.014   .     S
H209   O226    1.014   .     S
H210   O228    1.013   .     S
H211   O230    1.013   .     S
N219   Zn239   2.033   .     S
N220   Zn240   2.033   .     S
O223   Zn239   2.001   .     S
O231   Zn240   2.001   .     S
O232   Zn239   2.000   .     S
O233   Zn240   2.000   .     S
O234   Zn239   2.003   .     S
O235   Zn240   2.003   .     S
O236   Zn239   2.011   .     S
O237   Zn240   2.011   .     S
C241   C242    1.422   .     S
C241   O303    1.293   .     A
C241   O313    1.292   .     A
C242   C275    1.397   .     A
C242   C272    1.397   .     A
C243   N300    1.372   .     A
C243   C267    1.474   .     S
C244   N299    1.372   .     A
C244   C268    1.474   .     S
C244   C485    1.428   .     S
C245   C269    1.470   .     S
C245   N300    1.374   .     A
C246   C270    1.470   .     S
C246   N299    1.374   .     A
C246   C483    1.428   .     S
C247   O317    1.295   .     A
C247   O314    1.291   .     A
C247   C253    1.424   .     S
C248   O316    1.295   .     A
C248   O315    1.291   .     A
C248   C251    1.424   .     S
C249   C260    1.383   .     A
C249   H277    1.082   .     S
C249   C251    1.389   .     A
C250   C261    1.382   .     A
C250   H288    1.082   .     S
C250   C253    1.388   .     A
C251   C254    1.392   .     A
C252   C276    1.422   .     S
C252   O312    1.292   .     A
C252   O311    1.293   .     A
C253   C255    1.391   .     A
C254   H292    1.084   .     S
C254   C256    1.390   .     A
C255   H293    1.084   .     S
C255   C257    1.390   .     A
C256   C262    1.411   .     A
C256   C258    1.418   .     A
C257   C259    1.418   .     A
C257   C264    1.411   .     A
C258   C260    1.412   .     A
C258   C979    1.392   .     S
C259   C261    1.412   .     A
C259   C978    1.392   1_554 S
C260   C271    1.397   .     A
C261   C263    1.397   .     A
C262   N301    1.424   .     S
C262   C983    1.394   .     S
C263   H294    1.085   .     S
C263   C982    1.394   1_554 S
C264   N302    1.424   .     S
C264   C991    1.395   1_554 S
C265   H280    1.112   .     S
C265   N301    1.447   .     S
C265   H281    1.110   .     S
C265   H282    1.110   .     S
C266   H284    1.112   .     S
C266   H285    1.111   .     S
C266   N302    1.447   .     S
C266   H286    1.110   .     S
C267   O318    1.221   .     D
C267   O304    1.398   .     S
C268   O306    1.398   .     S
C268   O305    1.221   .     D
C269   O307    1.222   .     D
C269   O308    1.395   .     S
C270   O310    1.395   .     S
C270   O309    1.222   .     D
C271   H295    1.085   .     S
C271   C984    1.395   .     S
C272   H296    1.083   .     S
C272   C434    1.369   1_455 S
C273   C276    1.397   .     A
C273   H297    1.083   .     S
C273   C355    1.369   .     S
C274   C276    1.397   .     A
C274   H298    1.082   .     S
C274   C352    1.369   .     S
C275   H278    1.082   .     S
C275   C433    1.369   1_455 S
H279   N301    1.032   .     S
H283   N302    1.032   .     S
H287   O304    1.014   .     S
H289   O306    1.014   .     S
H290   O308    1.013   .     S
H291   O310    1.013   .     S
N299   Zn319   2.033   .     S
N300   Zn320   2.033   .     S
O303   Zn319   2.001   .     S
O311   Zn320   2.001   .     S
O312   Zn319   2.000   .     S
O313   Zn320   2.000   .     S
O314   Zn319   2.003   .     S
O315   Zn320   2.003   .     S
O316   Zn319   2.011   .     S
O317   Zn320   2.011   .     S
C321   C322    1.422   .     S
C321   O383    1.293   .     A
C321   O393    1.292   .     A
C322   C355    1.397   .     A
C322   C352    1.397   .     A
C323   N380    1.372   .     A
C323   C347    1.474   .     S
C324   N379    1.372   .     A
C324   C348    1.474   .     S
C324   C565    1.428   .     S
C325   C349    1.470   .     S
C325   N380    1.374   .     A
C326   C350    1.470   .     S
C326   N379    1.374   .     A
C326   C563    1.428   .     S
C327   O397    1.295   .     A
C327   O394    1.291   .     A
C327   C333    1.424   .     S
C328   O396    1.295   .     A
C328   O395    1.291   .     A
C328   C331    1.424   .     S
C329   C340    1.383   .     A
C329   H357    1.082   .     S
C329   C331    1.389   .     A
C330   C341    1.382   .     A
C330   H368    1.082   .     S
C330   C333    1.388   .     A
C331   C334    1.392   .     A
C332   C356    1.422   .     S
C332   O392    1.292   .     A
C332   O391    1.293   .     A
C333   C335    1.391   .     A
C334   H372    1.084   .     S
C334   C336    1.390   .     A
C335   H373    1.084   .     S
C335   C337    1.390   .     A
C336   C342    1.411   .     A
C336   C338    1.418   .     A
C337   C339    1.418   .     A
C337   C344    1.411   .     A
C338   C340    1.412   .     A
C338   C1059   1.392   .     S
C339   C341    1.412   .     A
C339   C1058   1.392   1_554 S
C340   C351    1.397   .     A
C341   C343    1.397   .     A
C342   N381    1.424   .     S
C342   C1063   1.394   .     S
C343   H374    1.085   .     S
C343   C1062   1.394   1_554 S
C344   N382    1.424   .     S
C344   C1071   1.395   1_554 S
C345   H360    1.112   .     S
C345   N381    1.447   .     S
C345   H361    1.110   .     S
C345   H362    1.110   .     S
C346   H364    1.112   .     S
C346   H365    1.111   .     S
C346   N382    1.447   .     S
C346   H366    1.110   .     S
C347   O398    1.221   .     D
C347   O384    1.398   .     S
C348   O386    1.398   .     S
C348   O385    1.221   .     D
C349   O387    1.222   .     D
C349   O388    1.395   .     S
C350   O390    1.395   .     S
C350   O389    1.222   .     D
C351   H375    1.085   .     S
C351   C1064   1.395   .     S
C352   H376    1.083   .     S
C353   C356    1.397   .     A
C353   H377    1.083   .     S
C353   C435    1.369   .     S
C354   C356    1.397   .     A
C354   H378    1.082   .     S
C354   C432    1.369   .     S
C355   H358    1.082   .     S
H359   N381    1.032   .     S
H363   N382    1.032   .     S
H367   O384    1.014   .     S
H369   O386    1.014   .     S
H370   O388    1.013   .     S
H371   O390    1.013   .     S
N379   Zn399   2.033   .     S
N380   Zn400   2.033   .     S
O383   Zn399   2.001   .     S
O391   Zn400   2.001   .     S
O392   Zn399   2.000   .     S
O393   Zn400   2.000   .     S
O394   Zn399   2.003   .     S
O395   Zn400   2.003   .     S
O396   Zn399   2.011   .     S
O397   Zn400   2.011   .     S
C401   C402    1.422   .     S
C401   O463    1.293   .     A
C401   O473    1.292   .     A
C402   C435    1.397   .     A
C402   C432    1.397   .     A
C403   N460    1.372   .     A
C403   C427    1.474   .     S
C404   N459    1.372   .     A
C404   C428    1.474   .     S
C404   C645    1.428   .     S
C405   C429    1.470   .     S
C405   N460    1.374   .     A
C406   C430    1.470   .     S
C406   N459    1.374   .     A
C406   C643    1.428   .     S
C407   O477    1.295   .     A
C407   O474    1.291   .     A
C407   C413    1.424   .     S
C408   O476    1.295   .     A
C408   O475    1.291   .     A
C408   C411    1.424   .     S
C409   C420    1.383   .     A
C409   H437    1.082   .     S
C409   C411    1.389   .     A
C410   C421    1.382   .     A
C410   H448    1.082   .     S
C410   C413    1.388   .     A
C411   C414    1.392   .     A
C412   C436    1.422   .     S
C412   O472    1.292   .     A
C412   O471    1.293   .     A
C413   C415    1.391   .     A
C414   H452    1.084   .     S
C414   C416    1.390   .     A
C415   H453    1.084   .     S
C415   C417    1.390   .     A
C416   C422    1.411   .     A
C416   C418    1.418   .     A
C417   C419    1.418   .     A
C417   C424    1.411   .     A
C418   C420    1.412   .     A
C418   C1139   1.392   .     S
C419   C421    1.412   .     A
C419   C1138   1.392   1_554 S
C420   C431    1.397   .     A
C421   C423    1.397   .     A
C422   N461    1.424   .     S
C422   C1143   1.394   .     S
C423   H454    1.085   .     S
C423   C1142   1.394   1_554 S
C424   N462    1.424   .     S
C424   C1151   1.395   1_554 S
C425   H440    1.112   .     S
C425   N461    1.447   .     S
C425   H441    1.110   .     S
C425   H442    1.110   .     S
C426   H444    1.112   .     S
C426   H445    1.111   .     S
C426   N462    1.447   .     S
C426   H446    1.110   .     S
C427   O478    1.221   .     D
C427   O464    1.398   .     S
C428   O466    1.398   .     S
C428   O465    1.221   .     D
C429   O467    1.222   .     D
C429   O468    1.395   .     S
C430   O470    1.395   .     S
C430   O469    1.222   .     D
C431   H455    1.085   .     S
C431   C1144   1.395   .     S
C432   H456    1.083   .     S
C433   C436    1.397   .     A
C433   H457    1.083   .     S
C433   C275    1.369   1_655 S
C434   C436    1.397   .     A
C434   H458    1.082   .     S
C434   C272    1.369   1_655 S
C435   H438    1.082   .     S
H439   N461    1.032   .     S
H443   N462    1.032   .     S
H447   O464    1.014   .     S
H449   O466    1.014   .     S
H450   O468    1.013   .     S
H451   O470    1.013   .     S
N459   Zn479   2.033   .     S
N460   Zn480   2.033   .     S
O463   Zn479   2.001   .     S
O471   Zn480   2.001   .     S
O472   Zn479   2.000   .     S
O473   Zn480   2.000   .     S
O474   Zn479   2.003   .     S
O475   Zn480   2.003   .     S
O476   Zn479   2.011   .     S
O477   Zn480   2.011   .     S
C481   C482    1.422   .     S
C481   O543    1.293   .     A
C481   O553    1.292   .     A
C482   C515    1.397   .     A
C482   C512    1.397   .     A
C483   N540    1.372   .     A
C483   C507    1.474   .     S
C484   N539    1.372   .     A
C484   C508    1.474   .     S
C484   C5      1.428   1_565 S
C485   C509    1.470   .     S
C485   N540    1.374   .     A
C486   C510    1.470   .     S
C486   N539    1.374   .     A
C486   C3      1.428   1_565 S
C487   O557    1.295   .     A
C487   O554    1.291   .     A
C487   C493    1.424   .     S
C488   O556    1.295   .     A
C488   O555    1.291   .     A
C488   C491    1.424   .     S
C489   C500    1.383   .     A
C489   H517    1.082   .     S
C489   C491    1.389   .     A
C490   C501    1.382   .     A
C490   H528    1.082   .     S
C490   C493    1.388   .     A
C491   C494    1.392   .     A
C492   C516    1.422   .     S
C492   O552    1.292   .     A
C492   O551    1.293   .     A
C493   C495    1.391   .     A
C494   H532    1.084   .     S
C494   C496    1.390   .     A
C495   H533    1.084   .     S
C495   C497    1.390   .     A
C496   C502    1.411   .     A
C496   C498    1.418   .     A
C497   C499    1.418   .     A
C497   C504    1.411   .     A
C498   C500    1.412   .     A
C498   C1219   1.392   .     S
C499   C501    1.412   .     A
C499   C1218   1.392   1_554 S
C500   C511    1.397   .     A
C501   C503    1.397   .     A
C502   N541    1.424   .     S
C502   C1223   1.394   .     S
C503   H534    1.085   .     S
C503   C1222   1.394   1_554 S
C504   N542    1.424   .     S
C504   C1231   1.395   1_554 S
C505   H520    1.112   .     S
C505   N541    1.447   .     S
C505   H521    1.110   .     S
C505   H522    1.110   .     S
C506   H524    1.112   .     S
C506   H525    1.111   .     S
C506   N542    1.447   .     S
C506   H526    1.110   .     S
C507   O558    1.221   .     D
C507   O544    1.398   .     S
C508   O546    1.398   .     S
C508   O545    1.221   .     D
C509   O547    1.222   .     D
C509   O548    1.395   .     S
C510   O550    1.395   .     S
C510   O549    1.222   .     D
C511   H535    1.085   .     S
C511   C1224   1.395   .     S
C512   H536    1.083   .     S
C512   C674    1.369   1_455 S
C513   C516    1.397   .     A
C513   H537    1.083   .     S
C513   C595    1.369   .     S
C514   C516    1.397   .     A
C514   H538    1.082   .     S
C514   C592    1.369   .     S
C515   H518    1.082   .     S
C515   C673    1.369   1_455 S
H519   N541    1.032   .     S
H523   N542    1.032   .     S
H527   O544    1.014   .     S
H529   O546    1.014   .     S
H530   O548    1.013   .     S
H531   O550    1.013   .     S
N539   Zn559   2.033   .     S
N540   Zn560   2.033   .     S
O543   Zn559   2.001   .     S
O551   Zn560   2.001   .     S
O552   Zn559   2.000   .     S
O553   Zn560   2.000   .     S
O554   Zn559   2.003   .     S
O555   Zn560   2.003   .     S
O556   Zn559   2.011   .     S
O557   Zn560   2.011   .     S
C561   C562    1.422   .     S
C561   O623    1.293   .     A
C561   O633    1.292   .     A
C562   C595    1.397   .     A
C562   C592    1.397   .     A
C563   N620    1.372   .     A
C563   C587    1.474   .     S
C564   N619    1.372   .     A
C564   C588    1.474   .     S
C564   C85     1.428   1_565 S
C565   C589    1.470   .     S
C565   N620    1.374   .     A
C566   C590    1.470   .     S
C566   N619    1.374   .     A
C566   C83     1.428   1_565 S
C567   O637    1.295   .     A
C567   O634    1.291   .     A
C567   C573    1.424   .     S
C568   O636    1.295   .     A
C568   O635    1.291   .     A
C568   C571    1.424   .     S
C569   C580    1.383   .     A
C569   H597    1.082   .     S
C569   C571    1.389   .     A
C570   C581    1.382   .     A
C570   H608    1.082   .     S
C570   C573    1.388   .     A
C571   C574    1.392   .     A
C572   C596    1.422   .     S
C572   O632    1.292   .     A
C572   O631    1.293   .     A
C573   C575    1.391   .     A
C574   H612    1.084   .     S
C574   C576    1.390   .     A
C575   H613    1.084   .     S
C575   C577    1.390   .     A
C576   C582    1.411   .     A
C576   C578    1.418   .     A
C577   C579    1.418   .     A
C577   C584    1.411   .     A
C578   C580    1.412   .     A
C578   C1299   1.392   .     S
C579   C581    1.412   .     A
C579   C1298   1.392   1_554 S
C580   C591    1.397   .     A
C581   C583    1.397   .     A
C582   N621    1.424   .     S
C582   C1303   1.394   .     S
C583   H614    1.085   .     S
C583   C1302   1.394   1_554 S
C584   N622    1.424   .     S
C584   C1311   1.395   1_554 S
C585   H600    1.112   .     S
C585   N621    1.447   .     S
C585   H601    1.110   .     S
C585   H602    1.110   .     S
C586   H604    1.112   .     S
C586   H605    1.111   .     S
C586   N622    1.447   .     S
C586   H606    1.110   .     S
C587   O638    1.221   .     D
C587   O624    1.398   .     S
C588   O626    1.398   .     S
C588   O625    1.221   .     D
C589   O627    1.222   .     D
C589   O628    1.395   .     S
C590   O630    1.395   .     S
C590   O629    1.222   .     D
C591   H615    1.085   .     S
C591   C1304   1.395   .     S
C592   H616    1.083   .     S
C593   C596    1.397   .     A
C593   H617    1.083   .     S
C593   C675    1.369   .     S
C594   C596    1.397   .     A
C594   H618    1.082   .     S
C594   C672    1.369   .     S
C595   H598    1.082   .     S
H599   N621    1.032   .     S
H603   N622    1.032   .     S
H607   O624    1.014   .     S
H609   O626    1.014   .     S
H610   O628    1.013   .     S
H611   O630    1.013   .     S
N619   Zn639   2.033   .     S
N620   Zn640   2.033   .     S
O623   Zn639   2.001   .     S
O631   Zn640   2.001   .     S
O632   Zn639   2.000   .     S
O633   Zn640   2.000   .     S
O634   Zn639   2.003   .     S
O635   Zn640   2.003   .     S
O636   Zn639   2.011   .     S
O637   Zn640   2.011   .     S
C641   C642    1.422   .     S
C641   O703    1.293   .     A
C641   O713    1.292   .     A
C642   C675    1.397   .     A
C642   C672    1.397   .     A
C643   N700    1.372   .     A
C643   C667    1.474   .     S
C644   N699    1.372   .     A
C644   C668    1.474   .     S
C644   C165    1.428   1_565 S
C645   C669    1.470   .     S
C645   N700    1.374   .     A
C646   C670    1.470   .     S
C646   N699    1.374   .     A
C646   C163    1.428   1_565 S
C647   O717    1.295   .     A
C647   O714    1.291   .     A
C647   C653    1.424   .     S
C648   O716    1.295   .     A
C648   O715    1.291   .     A
C648   C651    1.424   .     S
C649   C660    1.383   .     A
C649   H677    1.082   .     S
C649   C651    1.389   .     A
C650   C661    1.382   .     A
C650   H688    1.082   .     S
C650   C653    1.388   .     A
C651   C654    1.392   .     A
C652   C676    1.422   .     S
C652   O712    1.292   .     A
C652   O711    1.293   .     A
C653   C655    1.391   .     A
C654   H692    1.084   .     S
C654   C656    1.390   .     A
C655   H693    1.084   .     S
C655   C657    1.390   .     A
C656   C662    1.411   .     A
C656   C658    1.418   .     A
C657   C659    1.418   .     A
C657   C664    1.411   .     A
C658   C660    1.412   .     A
C658   C1379   1.392   .     S
C659   C661    1.412   .     A
C659   C1378   1.392   1_554 S
C660   C671    1.397   .     A
C661   C663    1.397   .     A
C662   N701    1.424   .     S
C662   C1383   1.394   .     S
C663   H694    1.085   .     S
C663   C1382   1.394   1_554 S
C664   N702    1.424   .     S
C664   C1391   1.395   1_554 S
C665   H680    1.112   .     S
C665   N701    1.447   .     S
C665   H681    1.110   .     S
C665   H682    1.110   .     S
C666   H684    1.112   .     S
C666   H685    1.111   .     S
C666   N702    1.447   .     S
C666   H686    1.110   .     S
C667   O718    1.221   .     D
C667   O704    1.398   .     S
C668   O706    1.398   .     S
C668   O705    1.221   .     D
C669   O707    1.222   .     D
C669   O708    1.395   .     S
C670   O710    1.395   .     S
C670   O709    1.222   .     D
C671   H695    1.085   .     S
C671   C1384   1.395   .     S
C672   H696    1.083   .     S
C673   C676    1.397   .     A
C673   H697    1.083   .     S
C673   C515    1.369   1_655 S
C674   C676    1.397   .     A
C674   H698    1.082   .     S
C674   C512    1.369   1_655 S
C675   H678    1.082   .     S
H679   N701    1.032   .     S
H683   N702    1.032   .     S
H687   O704    1.014   .     S
H689   O706    1.014   .     S
H690   O708    1.013   .     S
H691   O710    1.013   .     S
N699   Zn719   2.033   .     S
N700   Zn720   2.033   .     S
O703   Zn719   2.001   .     S
O711   Zn720   2.001   .     S
O712   Zn719   2.000   .     S
O713   Zn720   2.000   .     S
O714   Zn719   2.003   .     S
O715   Zn720   2.003   .     S
O716   Zn719   2.011   .     S
O717   Zn720   2.011   .     S
C721   C722    1.422   .     S
C721   O783    1.293   .     A
C721   O793    1.292   .     A
C722   C755    1.397   .     A
C722   C752    1.397   .     A
C723   N780    1.372   .     A
C723   C747    1.474   .     S
C723   C1206   1.428   1_545 S
C724   N779    1.372   .     A
C724   C748    1.474   .     S
C724   C965    1.428   .     S
C725   C749    1.470   .     S
C725   N780    1.374   .     A
C725   C1204   1.428   1_545 S
C726   C750    1.470   .     S
C726   N779    1.374   .     A
C726   C963    1.428   .     S
C727   O797    1.295   .     A
C727   O794    1.291   .     A
C727   C733    1.424   .     S
C728   O796    1.295   .     A
C728   O795    1.291   .     A
C728   C731    1.424   .     S
C729   C740    1.383   .     A
C729   H757    1.082   .     S
C729   C731    1.389   .     A
C730   C741    1.382   .     A
C730   H768    1.082   .     S
C730   C733    1.388   .     A
C731   C734    1.392   .     A
C732   C756    1.422   .     S
C732   O792    1.292   .     A
C732   O791    1.293   .     A
C733   C735    1.391   .     A
C734   H772    1.084   .     S
C734   C736    1.390   .     A
C735   H773    1.084   .     S
C735   C737    1.390   .     A
C736   C742    1.411   .     A
C736   C738    1.418   .     A
C737   C739    1.418   .     A
C737   C744    1.411   .     A
C738   C740    1.412   .     A
C738   C19     1.392   1_556 S
C739   C741    1.412   .     A
C740   C751    1.397   .     A
C741   C743    1.397   .     A
C742   N781    1.424   .     S
C742   C23     1.394   1_556 S
C743   H774    1.085   .     S
C744   N782    1.424   .     S
C745   H760    1.112   .     S
C745   N781    1.447   .     S
C745   H761    1.110   .     S
C745   H762    1.110   .     S
C746   H764    1.112   .     S
C746   H765    1.111   .     S
C746   N782    1.447   .     S
C746   H766    1.110   .     S
C747   O798    1.221   .     D
C747   O784    1.398   .     S
C748   O786    1.398   .     S
C748   O785    1.221   .     D
C749   O787    1.222   .     D
C749   O788    1.395   .     S
C750   O790    1.395   .     S
C750   O789    1.222   .     D
C751   H775    1.085   .     S
C751   C24     1.395   1_556 S
C752   H776    1.083   .     S
C752   C914    1.369   1_455 S
C753   C756    1.397   .     A
C753   H777    1.083   .     S
C753   C835    1.369   .     S
C754   C756    1.397   .     A
C754   H778    1.082   .     S
C754   C832    1.369   .     S
C755   H758    1.082   .     S
C755   C913    1.369   1_455 S
H759   N781    1.032   .     S
H763   N782    1.032   .     S
H767   O784    1.014   .     S
H769   O786    1.014   .     S
H770   O788    1.013   .     S
H771   O790    1.013   .     S
N779   Zn799   2.033   .     S
N780   Zn800   2.033   .     S
O783   Zn799   2.001   .     S
O791   Zn800   2.001   .     S
O792   Zn799   2.000   .     S
O793   Zn800   2.000   .     S
O794   Zn799   2.003   .     S
O795   Zn800   2.003   .     S
O796   Zn799   2.011   .     S
O797   Zn800   2.011   .     S
C801   C802    1.422   .     S
C801   O863    1.293   .     A
C801   O873    1.292   .     A
C802   C835    1.397   .     A
C802   C832    1.397   .     A
C803   N860    1.372   .     A
C803   C827    1.474   .     S
C803   C1286   1.428   1_545 S
C804   N859    1.372   .     A
C804   C828    1.474   .     S
C804   C1045   1.428   .     S
C805   C829    1.470   .     S
C805   N860    1.374   .     A
C805   C1284   1.428   1_545 S
C806   C830    1.470   .     S
C806   N859    1.374   .     A
C806   C1043   1.428   .     S
C807   O877    1.295   .     A
C807   O874    1.291   .     A
C807   C813    1.424   .     S
C808   O876    1.295   .     A
C808   O875    1.291   .     A
C808   C811    1.424   .     S
C809   C820    1.383   .     A
C809   H837    1.082   .     S
C809   C811    1.389   .     A
C810   C821    1.382   .     A
C810   H848    1.082   .     S
C810   C813    1.388   .     A
C811   C814    1.392   .     A
C812   C836    1.422   .     S
C812   O872    1.292   .     A
C812   O871    1.293   .     A
C813   C815    1.391   .     A
C814   H852    1.084   .     S
C814   C816    1.390   .     A
C815   H853    1.084   .     S
C815   C817    1.390   .     A
C816   C822    1.411   .     A
C816   C818    1.418   .     A
C817   C819    1.418   .     A
C817   C824    1.411   .     A
C818   C820    1.412   .     A
C818   C99     1.392   1_556 S
C819   C821    1.412   .     A
C820   C831    1.397   .     A
C821   C823    1.397   .     A
C822   N861    1.424   .     S
C822   C103    1.394   1_556 S
C823   H854    1.085   .     S
C824   N862    1.424   .     S
C825   H840    1.112   .     S
C825   N861    1.447   .     S
C825   H841    1.110   .     S
C825   H842    1.110   .     S
C826   H844    1.112   .     S
C826   H845    1.111   .     S
C826   N862    1.447   .     S
C826   H846    1.110   .     S
C827   O878    1.221   .     D
C827   O864    1.398   .     S
C828   O866    1.398   .     S
C828   O865    1.221   .     D
C829   O867    1.222   .     D
C829   O868    1.395   .     S
C830   O870    1.395   .     S
C830   O869    1.222   .     D
C831   H855    1.085   .     S
C831   C104    1.395   1_556 S
C832   H856    1.083   .     S
C833   C836    1.397   .     A
C833   H857    1.083   .     S
C833   C915    1.369   .     S
C834   C836    1.397   .     A
C834   H858    1.082   .     S
C834   C912    1.369   .     S
C835   H838    1.082   .     S
H839   N861    1.032   .     S
H843   N862    1.032   .     S
H847   O864    1.014   .     S
H849   O866    1.014   .     S
H850   O868    1.013   .     S
H851   O870    1.013   .     S
N859   Zn879   2.033   .     S
N860   Zn880   2.033   .     S
O863   Zn879   2.001   .     S
O871   Zn880   2.001   .     S
O872   Zn879   2.000   .     S
O873   Zn880   2.000   .     S
O874   Zn879   2.003   .     S
O875   Zn880   2.003   .     S
O876   Zn879   2.011   .     S
O877   Zn880   2.011   .     S
C881   C882    1.422   .     S
C881   O943    1.293   .     A
C881   O953    1.292   .     A
C882   C915    1.397   .     A
C882   C912    1.397   .     A
C883   N940    1.372   .     A
C883   C907    1.474   .     S
C883   C1366   1.428   1_545 S
C884   N939    1.372   .     A
C884   C908    1.474   .     S
C884   C1125   1.428   .     S
C885   C909    1.470   .     S
C885   N940    1.374   .     A
C885   C1364   1.428   1_545 S
C886   C910    1.470   .     S
C886   N939    1.374   .     A
C886   C1123   1.428   .     S
C887   O957    1.295   .     A
C887   O954    1.291   .     A
C887   C893    1.424   .     S
C888   O956    1.295   .     A
C888   O955    1.291   .     A
C888   C891    1.424   .     S
C889   C900    1.383   .     A
C889   H917    1.082   .     S
C889   C891    1.389   .     A
C890   C901    1.382   .     A
C890   H928    1.082   .     S
C890   C893    1.388   .     A
C891   C894    1.392   .     A
C892   C916    1.422   .     S
C892   O952    1.292   .     A
C892   O951    1.293   .     A
C893   C895    1.391   .     A
C894   H932    1.084   .     S
C894   C896    1.390   .     A
C895   H933    1.084   .     S
C895   C897    1.390   .     A
C896   C902    1.411   .     A
C896   C898    1.418   .     A
C897   C899    1.418   .     A
C897   C904    1.411   .     A
C898   C900    1.412   .     A
C898   C179    1.392   1_556 S
C899   C901    1.412   .     A
C900   C911    1.397   .     A
C901   C903    1.397   .     A
C902   N941    1.424   .     S
C902   C183    1.394   1_556 S
C903   H934    1.085   .     S
C904   N942    1.424   .     S
C905   H920    1.112   .     S
C905   N941    1.447   .     S
C905   H921    1.110   .     S
C905   H922    1.110   .     S
C906   H924    1.112   .     S
C906   H925    1.111   .     S
C906   N942    1.447   .     S
C906   H926    1.110   .     S
C907   O958    1.221   .     D
C907   O944    1.398   .     S
C908   O946    1.398   .     S
C908   O945    1.221   .     D
C909   O947    1.222   .     D
C909   O948    1.395   .     S
C910   O950    1.395   .     S
C910   O949    1.222   .     D
C911   H935    1.085   .     S
C911   C184    1.395   1_556 S
C912   H936    1.083   .     S
C913   C916    1.397   .     A
C913   H937    1.083   .     S
C913   C755    1.369   1_655 S
C914   C916    1.397   .     A
C914   H938    1.082   .     S
C914   C752    1.369   1_655 S
C915   H918    1.082   .     S
H919   N941    1.032   .     S
H923   N942    1.032   .     S
H927   O944    1.014   .     S
H929   O946    1.014   .     S
H930   O948    1.013   .     S
H931   O950    1.013   .     S
N939   Zn959   2.033   .     S
N940   Zn960   2.033   .     S
O943   Zn959   2.001   .     S
O951   Zn960   2.001   .     S
O952   Zn959   2.000   .     S
O953   Zn960   2.000   .     S
O954   Zn959   2.003   .     S
O955   Zn960   2.003   .     S
O956   Zn959   2.011   .     S
O957   Zn960   2.011   .     S
C961   C962    1.422   .     S
C961   O1023   1.293   .     A
C961   O1033   1.292   .     A
C962   C995    1.397   .     A
C962   C992    1.397   .     A
C963   N1020   1.372   .     A
C963   C987    1.474   .     S
C964   N1019   1.372   .     A
C964   C988    1.474   .     S
C964   C1205   1.428   .     S
C965   C989    1.470   .     S
C965   N1020   1.374   .     A
C966   C990    1.470   .     S
C966   N1019   1.374   .     A
C966   C1203   1.428   .     S
C967   O1037   1.295   .     A
C967   O1034   1.291   .     A
C967   C973    1.424   .     S
C968   O1036   1.295   .     A
C968   O1035   1.291   .     A
C968   C971    1.424   .     S
C969   C980    1.383   .     A
C969   H997    1.082   .     S
C969   C971    1.389   .     A
C970   C981    1.382   .     A
C970   H1008   1.082   .     S
C970   C973    1.388   .     A
C971   C974    1.392   .     A
C972   C996    1.422   .     S
C972   O1032   1.292   .     A
C972   O1031   1.293   .     A
C973   C975    1.391   .     A
C974   H1012   1.084   .     S
C974   C976    1.390   .     A
C975   H1013   1.084   .     S
C975   C977    1.390   .     A
C976   C982    1.411   .     A
C976   C978    1.418   .     A
C977   C979    1.418   .     A
C977   C984    1.411   .     A
C978   C980    1.412   .     A
C978   C259    1.392   1_556 S
C979   C981    1.412   .     A
C980   C991    1.397   .     A
C981   C983    1.397   .     A
C982   N1021   1.424   .     S
C982   C263    1.394   1_556 S
C983   H1014   1.085   .     S
C984   N1022   1.424   .     S
C985   H1000   1.112   .     S
C985   N1021   1.447   .     S
C985   H1001   1.110   .     S
C985   H1002   1.110   .     S
C986   H1004   1.112   .     S
C986   H1005   1.111   .     S
C986   N1022   1.447   .     S
C986   H1006   1.110   .     S
C987   O1038   1.221   .     D
C987   O1024   1.398   .     S
C988   O1026   1.398   .     S
C988   O1025   1.221   .     D
C989   O1027   1.222   .     D
C989   O1028   1.395   .     S
C990   O1030   1.395   .     S
C990   O1029   1.222   .     D
C991   H1015   1.085   .     S
C991   C264    1.395   1_556 S
C992   H1016   1.083   .     S
C992   C1154   1.369   1_455 S
C993   C996    1.397   .     A
C993   H1017   1.083   .     S
C993   C1075   1.369   .     S
C994   C996    1.397   .     A
C994   H1018   1.082   .     S
C994   C1072   1.369   .     S
C995   H998    1.082   .     S
C995   C1153   1.369   1_455 S
H999   N1021   1.032   .     S
H1003  N1022   1.032   .     S
H1007  O1024   1.014   .     S
H1009  O1026   1.014   .     S
H1010  O1028   1.013   .     S
H1011  O1030   1.013   .     S
N1019  Zn1039  2.033   .     S
N1020  Zn1040  2.033   .     S
O1023  Zn1039  2.001   .     S
O1031  Zn1040  2.001   .     S
O1032  Zn1039  2.000   .     S
O1033  Zn1040  2.000   .     S
O1034  Zn1039  2.003   .     S
O1035  Zn1040  2.003   .     S
O1036  Zn1039  2.011   .     S
O1037  Zn1040  2.011   .     S
C1041  C1042   1.422   .     S
C1041  O1103   1.293   .     A
C1041  O1113   1.292   .     A
C1042  C1075   1.397   .     A
C1042  C1072   1.397   .     A
C1043  N1100   1.372   .     A
C1043  C1067   1.474   .     S
C1044  N1099   1.372   .     A
C1044  C1068   1.474   .     S
C1044  C1285   1.428   .     S
C1045  C1069   1.470   .     S
C1045  N1100   1.374   .     A
C1046  C1070   1.470   .     S
C1046  N1099   1.374   .     A
C1046  C1283   1.428   .     S
C1047  O1117   1.295   .     A
C1047  O1114   1.291   .     A
C1047  C1053   1.424   .     S
C1048  O1116   1.295   .     A
C1048  O1115   1.291   .     A
C1048  C1051   1.424   .     S
C1049  C1060   1.383   .     A
C1049  H1077   1.082   .     S
C1049  C1051   1.389   .     A
C1050  C1061   1.382   .     A
C1050  H1088   1.082   .     S
C1050  C1053   1.388   .     A
C1051  C1054   1.392   .     A
C1052  C1076   1.422   .     S
C1052  O1112   1.292   .     A
C1052  O1111   1.293   .     A
C1053  C1055   1.391   .     A
C1054  H1092   1.084   .     S
C1054  C1056   1.390   .     A
C1055  H1093   1.084   .     S
C1055  C1057   1.390   .     A
C1056  C1062   1.411   .     A
C1056  C1058   1.418   .     A
C1057  C1059   1.418   .     A
C1057  C1064   1.411   .     A
C1058  C1060   1.412   .     A
C1058  C339    1.392   1_556 S
C1059  C1061   1.412   .     A
C1060  C1071   1.397   .     A
C1061  C1063   1.397   .     A
C1062  N1101   1.424   .     S
C1062  C343    1.394   1_556 S
C1063  H1094   1.085   .     S
C1064  N1102   1.424   .     S
C1065  H1080   1.112   .     S
C1065  N1101   1.447   .     S
C1065  H1081   1.110   .     S
C1065  H1082   1.110   .     S
C1066  H1084   1.112   .     S
C1066  H1085   1.111   .     S
C1066  N1102   1.447   .     S
C1066  H1086   1.110   .     S
C1067  O1118   1.221   .     D
C1067  O1104   1.398   .     S
C1068  O1106   1.398   .     S
C1068  O1105   1.221   .     D
C1069  O1107   1.222   .     D
C1069  O1108   1.395   .     S
C1070  O1110   1.395   .     S
C1070  O1109   1.222   .     D
C1071  H1095   1.085   .     S
C1071  C344    1.395   1_556 S
C1072  H1096   1.083   .     S
C1073  C1076   1.397   .     A
C1073  H1097   1.083   .     S
C1073  C1155   1.369   .     S
C1074  C1076   1.397   .     A
C1074  H1098   1.082   .     S
C1074  C1152   1.369   .     S
C1075  H1078   1.082   .     S
H1079  N1101   1.032   .     S
H1083  N1102   1.032   .     S
H1087  O1104   1.014   .     S
H1089  O1106   1.014   .     S
H1090  O1108   1.013   .     S
H1091  O1110   1.013   .     S
N1099  Zn1119  2.033   .     S
N1100  Zn1120  2.033   .     S
O1103  Zn1119  2.001   .     S
O1111  Zn1120  2.001   .     S
O1112  Zn1119  2.000   .     S
O1113  Zn1120  2.000   .     S
O1114  Zn1119  2.003   .     S
O1115  Zn1120  2.003   .     S
O1116  Zn1119  2.011   .     S
O1117  Zn1120  2.011   .     S
C1121  C1122   1.422   .     S
C1121  O1183   1.293   .     A
C1121  O1193   1.292   .     A
C1122  C1155   1.397   .     A
C1122  C1152   1.397   .     A
C1123  N1180   1.372   .     A
C1123  C1147   1.474   .     S
C1124  N1179   1.372   .     A
C1124  C1148   1.474   .     S
C1124  C1365   1.428   .     S
C1125  C1149   1.470   .     S
C1125  N1180   1.374   .     A
C1126  C1150   1.470   .     S
C1126  N1179   1.374   .     A
C1126  C1363   1.428   .     S
C1127  O1197   1.295   .     A
C1127  O1194   1.291   .     A
C1127  C1133   1.424   .     S
C1128  O1196   1.295   .     A
C1128  O1195   1.291   .     A
C1128  C1131   1.424   .     S
C1129  C1140   1.383   .     A
C1129  H1157   1.082   .     S
C1129  C1131   1.389   .     A
C1130  C1141   1.382   .     A
C1130  H1168   1.082   .     S
C1130  C1133   1.388   .     A
C1131  C1134   1.392   .     A
C1132  C1156   1.422   .     S
C1132  O1192   1.292   .     A
C1132  O1191   1.293   .     A
C1133  C1135   1.391   .     A
C1134  H1172   1.084   .     S
C1134  C1136   1.390   .     A
C1135  H1173   1.084   .     S
C1135  C1137   1.390   .     A
C1136  C1142   1.411   .     A
C1136  C1138   1.418   .     A
C1137  C1139   1.418   .     A
C1137  C1144   1.411   .     A
C1138  C1140   1.412   .     A
C1138  C419    1.392   1_556 S
C1139  C1141   1.412   .     A
C1140  C1151   1.397   .     A
C1141  C1143   1.397   .     A
C1142  N1181   1.424   .     S
C1142  C423    1.394   1_556 S
C1143  H1174   1.085   .     S
C1144  N1182   1.424   .     S
C1145  H1160   1.112   .     S
C1145  N1181   1.447   .     S
C1145  H1161   1.110   .     S
C1145  H1162   1.110   .     S
C1146  H1164   1.112   .     S
C1146  H1165   1.111   .     S
C1146  N1182   1.447   .     S
C1146  H1166   1.110   .     S
C1147  O1198   1.221   .     D
C1147  O1184   1.398   .     S
C1148  O1186   1.398   .     S
C1148  O1185   1.221   .     D
C1149  O1187   1.222   .     D
C1149  O1188   1.395   .     S
C1150  O1190   1.395   .     S
C1150  O1189   1.222   .     D
C1151  H1175   1.085   .     S
C1151  C424    1.395   1_556 S
C1152  H1176   1.083   .     S
C1153  C1156   1.397   .     A
C1153  H1177   1.083   .     S
C1153  C995    1.369   1_655 S
C1154  C1156   1.397   .     A
C1154  H1178   1.082   .     S
C1154  C992    1.369   1_655 S
C1155  H1158   1.082   .     S
H1159  N1181   1.032   .     S
H1163  N1182   1.032   .     S
H1167  O1184   1.014   .     S
H1169  O1186   1.014   .     S
H1170  O1188   1.013   .     S
H1171  O1190   1.013   .     S
N1179  Zn1199  2.033   .     S
N1180  Zn1200  2.033   .     S
O1183  Zn1199  2.001   .     S
O1191  Zn1200  2.001   .     S
O1192  Zn1199  2.000   .     S
O1193  Zn1200  2.000   .     S
O1194  Zn1199  2.003   .     S
O1195  Zn1200  2.003   .     S
O1196  Zn1199  2.011   .     S
O1197  Zn1200  2.011   .     S
C1201  C1202   1.422   .     S
C1201  O1263   1.293   .     A
C1201  O1273   1.292   .     A
C1202  C1235   1.397   .     A
C1202  C1232   1.397   .     A
C1203  N1260   1.372   .     A
C1203  C1227   1.474   .     S
C1204  N1259   1.372   .     A
C1204  C1228   1.474   .     S
C1204  C725    1.428   1_565 S
C1205  C1229   1.470   .     S
C1205  N1260   1.374   .     A
C1206  C1230   1.470   .     S
C1206  N1259   1.374   .     A
C1206  C723    1.428   1_565 S
C1207  O1277   1.295   .     A
C1207  O1274   1.291   .     A
C1207  C1213   1.424   .     S
C1208  O1276   1.295   .     A
C1208  O1275   1.291   .     A
C1208  C1211   1.424   .     S
C1209  C1220   1.383   .     A
C1209  H1237   1.082   .     S
C1209  C1211   1.389   .     A
C1210  C1221   1.382   .     A
C1210  H1248   1.082   .     S
C1210  C1213   1.388   .     A
C1211  C1214   1.392   .     A
C1212  C1236   1.422   .     S
C1212  O1272   1.292   .     A
C1212  O1271   1.293   .     A
C1213  C1215   1.391   .     A
C1214  H1252   1.084   .     S
C1214  C1216   1.390   .     A
C1215  H1253   1.084   .     S
C1215  C1217   1.390   .     A
C1216  C1222   1.411   .     A
C1216  C1218   1.418   .     A
C1217  C1219   1.418   .     A
C1217  C1224   1.411   .     A
C1218  C1220   1.412   .     A
C1218  C499    1.392   1_556 S
C1219  C1221   1.412   .     A
C1220  C1231   1.397   .     A
C1221  C1223   1.397   .     A
C1222  N1261   1.424   .     S
C1222  C503    1.394   1_556 S
C1223  H1254   1.085   .     S
C1224  N1262   1.424   .     S
C1225  H1240   1.112   .     S
C1225  N1261   1.447   .     S
C1225  H1241   1.110   .     S
C1225  H1242   1.110   .     S
C1226  H1244   1.112   .     S
C1226  H1245   1.111   .     S
C1226  N1262   1.447   .     S
C1226  H1246   1.110   .     S
C1227  O1278   1.221   .     D
C1227  O1264   1.398   .     S
C1228  O1266   1.398   .     S
C1228  O1265   1.221   .     D
C1229  O1267   1.222   .     D
C1229  O1268   1.395   .     S
C1230  O1270   1.395   .     S
C1230  O1269   1.222   .     D
C1231  H1255   1.085   .     S
C1231  C504    1.395   1_556 S
C1232  H1256   1.083   .     S
C1232  C1394   1.369   1_455 S
C1233  C1236   1.397   .     A
C1233  H1257   1.083   .     S
C1233  C1315   1.369   .     S
C1234  C1236   1.397   .     A
C1234  H1258   1.082   .     S
C1234  C1312   1.369   .     S
C1235  H1238   1.082   .     S
C1235  C1393   1.369   1_455 S
H1239  N1261   1.032   .     S
H1243  N1262   1.032   .     S
H1247  O1264   1.014   .     S
H1249  O1266   1.014   .     S
H1250  O1268   1.013   .     S
H1251  O1270   1.013   .     S
N1259  Zn1279  2.033   .     S
N1260  Zn1280  2.033   .     S
O1263  Zn1279  2.001   .     S
O1271  Zn1280  2.001   .     S
O1272  Zn1279  2.000   .     S
O1273  Zn1280  2.000   .     S
O1274  Zn1279  2.003   .     S
O1275  Zn1280  2.003   .     S
O1276  Zn1279  2.011   .     S
O1277  Zn1280  2.011   .     S
C1281  C1282   1.422   .     S
C1281  O1343   1.293   .     A
C1281  O1353   1.292   .     A
C1282  C1315   1.397   .     A
C1282  C1312   1.397   .     A
C1283  N1340   1.372   .     A
C1283  C1307   1.474   .     S
C1284  N1339   1.372   .     A
C1284  C1308   1.474   .     S
C1284  C805    1.428   1_565 S
C1285  C1309   1.470   .     S
C1285  N1340   1.374   .     A
C1286  C1310   1.470   .     S
C1286  N1339   1.374   .     A
C1286  C803    1.428   1_565 S
C1287  O1357   1.295   .     A
C1287  O1354   1.291   .     A
C1287  C1293   1.424   .     S
C1288  O1356   1.295   .     A
C1288  O1355   1.291   .     A
C1288  C1291   1.424   .     S
C1289  C1300   1.383   .     A
C1289  H1317   1.082   .     S
C1289  C1291   1.389   .     A
C1290  C1301   1.382   .     A
C1290  H1328   1.082   .     S
C1290  C1293   1.388   .     A
C1291  C1294   1.392   .     A
C1292  C1316   1.422   .     S
C1292  O1352   1.292   .     A
C1292  O1351   1.293   .     A
C1293  C1295   1.391   .     A
C1294  H1332   1.084   .     S
C1294  C1296   1.390   .     A
C1295  H1333   1.084   .     S
C1295  C1297   1.390   .     A
C1296  C1302   1.411   .     A
C1296  C1298   1.418   .     A
C1297  C1299   1.418   .     A
C1297  C1304   1.411   .     A
C1298  C1300   1.412   .     A
C1298  C579    1.392   1_556 S
C1299  C1301   1.412   .     A
C1300  C1311   1.397   .     A
C1301  C1303   1.397   .     A
C1302  N1341   1.424   .     S
C1302  C583    1.394   1_556 S
C1303  H1334   1.085   .     S
C1304  N1342   1.424   .     S
C1305  H1320   1.112   .     S
C1305  N1341   1.447   .     S
C1305  H1321   1.110   .     S
C1305  H1322   1.110   .     S
C1306  H1324   1.112   .     S
C1306  H1325   1.111   .     S
C1306  N1342   1.447   .     S
C1306  H1326   1.110   .     S
C1307  O1358   1.221   .     D
C1307  O1344   1.398   .     S
C1308  O1346   1.398   .     S
C1308  O1345   1.221   .     D
C1309  O1347   1.222   .     D
C1309  O1348   1.395   .     S
C1310  O1350   1.395   .     S
C1310  O1349   1.222   .     D
C1311  H1335   1.085   .     S
C1311  C584    1.395   1_556 S
C1312  H1336   1.083   .     S
C1313  C1316   1.397   .     A
C1313  H1337   1.083   .     S
C1313  C1395   1.369   .     S
C1314  C1316   1.397   .     A
C1314  H1338   1.082   .     S
C1314  C1392   1.369   .     S
C1315  H1318   1.082   .     S
H1319  N1341   1.032   .     S
H1323  N1342   1.032   .     S
H1327  O1344   1.014   .     S
H1329  O1346   1.014   .     S
H1330  O1348   1.013   .     S
H1331  O1350   1.013   .     S
N1339  Zn1359  2.033   .     S
N1340  Zn1360  2.033   .     S
O1343  Zn1359  2.001   .     S
O1351  Zn1360  2.001   .     S
O1352  Zn1359  2.000   .     S
O1353  Zn1360  2.000   .     S
O1354  Zn1359  2.003   .     S
O1355  Zn1360  2.003   .     S
O1356  Zn1359  2.011   .     S
O1357  Zn1360  2.011   .     S
C1361  C1362   1.422   .     S
C1361  O1423   1.293   .     A
C1361  O1433   1.292   .     A
C1362  C1395   1.397   .     A
C1362  C1392   1.397   .     A
C1363  N1420   1.372   .     A
C1363  C1387   1.474   .     S
C1364  N1419   1.372   .     A
C1364  C1388   1.474   .     S
C1364  C885    1.428   1_565 S
C1365  C1389   1.470   .     S
C1365  N1420   1.374   .     A
C1366  C1390   1.470   .     S
C1366  N1419   1.374   .     A
C1366  C883    1.428   1_565 S
C1367  O1437   1.295   .     A
C1367  O1434   1.291   .     A
C1367  C1373   1.424   .     S
C1368  O1436   1.295   .     A
C1368  O1435   1.291   .     A
C1368  C1371   1.424   .     S
C1369  C1380   1.383   .     A
C1369  H1397   1.082   .     S
C1369  C1371   1.389   .     A
C1370  C1381   1.382   .     A
C1370  H1408   1.082   .     S
C1370  C1373   1.388   .     A
C1371  C1374   1.392   .     A
C1372  C1396   1.422   .     S
C1372  O1432   1.292   .     A
C1372  O1431   1.293   .     A
C1373  C1375   1.391   .     A
C1374  H1412   1.084   .     S
C1374  C1376   1.390   .     A
C1375  H1413   1.084   .     S
C1375  C1377   1.390   .     A
C1376  C1382   1.411   .     A
C1376  C1378   1.418   .     A
C1377  C1379   1.418   .     A
C1377  C1384   1.411   .     A
C1378  C1380   1.412   .     A
C1378  C659    1.392   1_556 S
C1379  C1381   1.412   .     A
C1380  C1391   1.397   .     A
C1381  C1383   1.397   .     A
C1382  N1421   1.424   .     S
C1382  C663    1.394   1_556 S
C1383  H1414   1.085   .     S
C1384  N1422   1.424   .     S
C1385  H1400   1.112   .     S
C1385  N1421   1.447   .     S
C1385  H1401   1.110   .     S
C1385  H1402   1.110   .     S
C1386  H1404   1.112   .     S
C1386  H1405   1.111   .     S
C1386  N1422   1.447   .     S
C1386  H1406   1.110   .     S
C1387  O1438   1.221   .     D
C1387  O1424   1.398   .     S
C1388  O1426   1.398   .     S
C1388  O1425   1.221   .     D
C1389  O1427   1.222   .     D
C1389  O1428   1.395   .     S
C1390  O1430   1.395   .     S
C1390  O1429   1.222   .     D
C1391  H1415   1.085   .     S
C1391  C664    1.395   1_556 S
C1392  H1416   1.083   .     S
C1393  C1396   1.397   .     A
C1393  H1417   1.083   .     S
C1393  C1235   1.369   1_655 S
C1394  C1396   1.397   .     A
C1394  H1418   1.082   .     S
C1394  C1232   1.369   1_655 S
C1395  H1398   1.082   .     S
H1399  N1421   1.032   .     S
H1403  N1422   1.032   .     S
H1407  O1424   1.014   .     S
H1409  O1426   1.014   .     S
H1410  O1428   1.013   .     S
H1411  O1430   1.013   .     S
N1419  Zn1439  2.033   .     S
N1420  Zn1440  2.033   .     S
O1423  Zn1439  2.001   .     S
O1431  Zn1440  2.001   .     S
O1432  Zn1439  2.000   .     S
O1433  Zn1440  2.000   .     S
O1434  Zn1439  2.003   .     S
O1435  Zn1440  2.003   .     S
O1436  Zn1439  2.011   .     S
O1437  Zn1440  2.011   .     S
