data_str_m2_o1_o16_pcu_sym.157
_audit_creation_date              2020-01-03
_audit_creation_method            'Materials Studio'
_symmetry_space_group_name_H-M    'P1'
_symmetry_Int_Tables_number       1
_symmetry_cell_setting            triclinic
loop_
_symmetry_equiv_pos_as_xyz
  x,y,z
_cell_length_a                    28.6341
_cell_length_b                    32.4978
_cell_length_c                    26.9215
_cell_angle_alpha                 90.4730
_cell_angle_beta                  72.6135
_cell_angle_gamma                 89.4900
loop_
_atom_site_label
_atom_site_type_symbol
_atom_site_fract_x
_atom_site_fract_y
_atom_site_fract_z
_atom_site_U_iso_or_equiv
_atom_site_adp_type
_atom_site_occupancy
C1     C     0.16655   0.24595   0.24999   0.00000  Uiso   1.00
C2     C     0.14692   0.15117   0.48820   0.00000  Uiso   1.00
C3     C     0.16229   0.14733   0.43311   0.00000  Uiso   1.00
C4     C     0.18299   0.15822   0.01401   0.00000  Uiso   1.00
C5     C     0.23222   0.16399   0.48406   0.00000  Uiso   1.00
C6     C     0.24706   0.15318   0.43155   0.00000  Uiso   1.00
C7     C     0.21270   0.14013   0.40807   0.00000  Uiso   1.00
C8     C     0.17205   0.15963   0.06826   0.00000  Uiso   1.00
C9     C     0.25499   0.18110   0.06175   0.00000  Uiso   1.00
C10    C     0.12692   0.15147   0.40562   0.00000  Uiso   1.00
C11    C     0.20949   0.31165   0.24816   0.00000  Uiso   1.00
C12    C     0.14101   0.16162   0.34946   0.00000  Uiso   1.00
C13    C     0.20964   0.02087   0.24802   0.00000  Uiso   1.00
C14    C     0.16687   0.04274   0.24962   0.00000  Uiso   1.00
C15    C     0.12395   0.02166   0.25114   0.00000  Uiso   1.00
C16    C     0.12380   0.31241   0.25122   0.00000  Uiso   1.00
C17    C     0.16655   0.29057   0.24979   0.00000  Uiso   1.00
C18    C     0.29930   0.19292   0.28177   0.00000  Uiso   1.00
C19    C     0.01550   0.19284   0.28182   0.00000  Uiso   1.00
C20    C     0.03461   0.14044   0.21857   0.00000  Uiso   1.00
C21    C     0.31877   0.14007   0.21803   0.00000  Uiso   1.00
C22    C     0.16683   0.08738   0.24977   0.00000  Uiso   1.00
C23    C     0.19284   0.16812   0.14992   0.00000  Uiso   1.00
C24    C     0.26690   0.17731   0.00758   0.00000  Uiso   1.00
C25    C     0.20768   0.16953   0.09257   0.00000  Uiso   1.00
C26    C     0.07713   0.14853   0.43332   0.00000  Uiso   1.00
C27    C     0.06242   0.14507   0.48719   0.00000  Uiso   1.00
C28    C     0.09631   0.14854   0.01471   0.00000  Uiso   1.00
Cu29   Cu    0.11978   0.16666   0.25000   0.00000  Uiso   1.00
Cu30   Cu    0.21355   0.16667   0.25000   0.00000  Uiso   1.00
H31    H     0.24317   0.03653   0.24676   0.00000  Uiso   1.00
H32    H     0.09046   0.03796   0.25235   0.00000  Uiso   1.00
H33    H     0.09025   0.29670   0.25250   0.00000  Uiso   1.00
H34    H     0.27330   0.21391   0.30732   0.00000  Uiso   1.00
H35    H     0.02672   0.21383   0.30738   0.00000  Uiso   1.00
H36    H     0.06133   0.11954   0.19363   0.00000  Uiso   1.00
H37    H     0.28569   0.15048   0.41046   0.00000  Uiso   1.00
H38    H     0.30342   0.18455   0.48337   0.00000  Uiso   1.00
H39    H     0.13612   0.15168   0.09248   0.00000  Uiso   1.00
H40    H     0.04938   0.14930   0.41342   0.00000  Uiso   1.00
H41    H     0.08155   0.14931   0.05650   0.00000  Uiso   1.00
H42    H     0.02419   0.14144   0.00817   0.00000  Uiso   1.00
H43    H     0.24298   0.29537   0.24697   0.00000  Uiso   1.00
N44    N     0.04931   0.16666   0.24999   0.00000  Uiso   1.00
N45    N     0.28402   0.16669   0.25000   0.00000  Uiso   1.00
O46    O     0.12708   0.22678   0.25001   0.00000  Uiso   1.00
O47    O     0.20627   0.22679   0.25001   0.00000  Uiso   1.00
O48    O     0.10775   0.16665   0.32549   0.00000  Uiso   1.00
O49    O     0.18694   0.16666   0.32549   0.00000  Uiso   1.00
O50    O     0.12706   0.10654   0.25000   0.00000  Uiso   1.00
O51    O     0.20625   0.10655   0.25000   0.00000  Uiso   1.00
O52    O     0.14640   0.16667   0.17451   0.00000  Uiso   1.00
O53    O     0.22559   0.16668   0.17451   0.00000  Uiso   1.00
C54    C     0.29283   0.19796   0.08496   0.00000  Uiso   1.00
H55    H     0.30643   0.17332   0.10542   0.00000  Uiso   1.00
H56    H     0.32484   0.21033   0.05461   0.00000  Uiso   1.00
H57    H     0.27677   0.22360   0.11245   0.00000  Uiso   1.00
C58    C     0.30829   0.10865   0.18142   0.00000  Uiso   1.00
H59    H     0.27188   0.11002   0.17662   0.00000  Uiso   1.00
H60    H     0.00115   0.11244   0.14195   0.00000  Uiso   1.00
H61    H     0.31384   0.07734   0.19501   0.00000  Uiso   1.00
I62    I     0.23793   0.09188   0.35252   0.00000  Uiso   1.00
C63    C     0.49989   0.24595   0.24999   0.00000  Uiso   1.00
C64    C     0.48025   0.15117   0.48820   0.00000  Uiso   1.00
C65    C     0.49562   0.14733   0.43311   0.00000  Uiso   1.00
C66    C     0.51632   0.15822   0.01401   0.00000  Uiso   1.00
C67    C     0.56556   0.16399   0.48406   0.00000  Uiso   1.00
C68    C     0.58039   0.15318   0.43155   0.00000  Uiso   1.00
C69    C     0.54603   0.14013   0.40807   0.00000  Uiso   1.00
C70    C     0.50539   0.15963   0.06826   0.00000  Uiso   1.00
C71    C     0.58832   0.18110   0.06175   0.00000  Uiso   1.00
C72    C     0.46025   0.15147   0.40562   0.00000  Uiso   1.00
C73    C     0.54282   0.31165   0.24816   0.00000  Uiso   1.00
C74    C     0.47434   0.16162   0.34946   0.00000  Uiso   1.00
C75    C     0.54297   0.02087   0.24802   0.00000  Uiso   1.00
C76    C     0.50021   0.04274   0.24962   0.00000  Uiso   1.00
C77    C     0.45729   0.02166   0.25114   0.00000  Uiso   1.00
C78    C     0.45713   0.31241   0.25122   0.00000  Uiso   1.00
C79    C     0.49988   0.29057   0.24979   0.00000  Uiso   1.00
C80    C     0.63264   0.19292   0.28177   0.00000  Uiso   1.00
C81    C     0.34884   0.19284   0.28182   0.00000  Uiso   1.00
C82    C     0.36795   0.14044   0.21857   0.00000  Uiso   1.00
C83    C     0.65210   0.14007   0.21803   0.00000  Uiso   1.00
C84    C     0.50016   0.08738   0.24977   0.00000  Uiso   1.00
C85    C     0.52617   0.16812   0.14992   0.00000  Uiso   1.00
C86    C     0.60023   0.17731   0.00758   0.00000  Uiso   1.00
C87    C     0.54102   0.16953   0.09257   0.00000  Uiso   1.00
C88    C     0.41046   0.14853   0.43332   0.00000  Uiso   1.00
C89    C     0.39575   0.14507   0.48719   0.00000  Uiso   1.00
C90    C     0.42965   0.14854   0.01471   0.00000  Uiso   1.00
Cu91   Cu    0.45311   0.16666   0.25000   0.00000  Uiso   1.00
Cu92   Cu    0.54689   0.16667   0.25000   0.00000  Uiso   1.00
H93    H     0.57650   0.03653   0.24676   0.00000  Uiso   1.00
H94    H     0.42379   0.03796   0.25235   0.00000  Uiso   1.00
H95    H     0.42359   0.29670   0.25250   0.00000  Uiso   1.00
H96    H     0.60664   0.21391   0.30732   0.00000  Uiso   1.00
H97    H     0.36005   0.21383   0.30738   0.00000  Uiso   1.00
H98    H     0.39466   0.11954   0.19363   0.00000  Uiso   1.00
H99    H     0.61902   0.15048   0.41046   0.00000  Uiso   1.00
H100   H     0.63675   0.18455   0.48337   0.00000  Uiso   1.00
H101   H     0.46946   0.15168   0.09248   0.00000  Uiso   1.00
H102   H     0.38272   0.14930   0.41342   0.00000  Uiso   1.00
H103   H     0.41489   0.14931   0.05650   0.00000  Uiso   1.00
H104   H     0.35753   0.14144   0.00817   0.00000  Uiso   1.00
H105   H     0.57632   0.29537   0.24697   0.00000  Uiso   1.00
N106   N     0.38265   0.16666   0.24999   0.00000  Uiso   1.00
N107   N     0.61735   0.16669   0.25000   0.00000  Uiso   1.00
O108   O     0.46042   0.22678   0.25001   0.00000  Uiso   1.00
O109   O     0.53961   0.22679   0.25001   0.00000  Uiso   1.00
O110   O     0.44108   0.16665   0.32549   0.00000  Uiso   1.00
O111   O     0.52027   0.16666   0.32549   0.00000  Uiso   1.00
O112   O     0.46039   0.10654   0.25000   0.00000  Uiso   1.00
O113   O     0.53958   0.10655   0.25000   0.00000  Uiso   1.00
O114   O     0.47973   0.16667   0.17451   0.00000  Uiso   1.00
O115   O     0.55892   0.16668   0.17451   0.00000  Uiso   1.00
C116   C     0.62616   0.19796   0.08496   0.00000  Uiso   1.00
H117   H     0.63977   0.17332   0.10542   0.00000  Uiso   1.00
H118   H     0.65818   0.21033   0.05461   0.00000  Uiso   1.00
H119   H     0.61010   0.22360   0.11245   0.00000  Uiso   1.00
C120   C     0.64163   0.10865   0.18142   0.00000  Uiso   1.00
H121   H     0.60521   0.11002   0.17662   0.00000  Uiso   1.00
H122   H     0.33448   0.11244   0.14195   0.00000  Uiso   1.00
H123   H     0.64717   0.07734   0.19501   0.00000  Uiso   1.00
I124   I     0.57126   0.09188   0.35252   0.00000  Uiso   1.00
C125   C     0.83322   0.24595   0.24999   0.00000  Uiso   1.00
C126   C     0.81358   0.15117   0.48820   0.00000  Uiso   1.00
C127   C     0.82896   0.14733   0.43311   0.00000  Uiso   1.00
C128   C     0.84966   0.15822   0.01401   0.00000  Uiso   1.00
C129   C     0.89889   0.16399   0.48406   0.00000  Uiso   1.00
C130   C     0.91372   0.15318   0.43155   0.00000  Uiso   1.00
C131   C     0.87937   0.14013   0.40807   0.00000  Uiso   1.00
C132   C     0.83872   0.15963   0.06826   0.00000  Uiso   1.00
C133   C     0.92166   0.18110   0.06175   0.00000  Uiso   1.00
C134   C     0.79359   0.15147   0.40562   0.00000  Uiso   1.00
C135   C     0.87615   0.31165   0.24816   0.00000  Uiso   1.00
C136   C     0.80768   0.16162   0.34946   0.00000  Uiso   1.00
C137   C     0.87631   0.02087   0.24802   0.00000  Uiso   1.00
C138   C     0.83354   0.04274   0.24962   0.00000  Uiso   1.00
C139   C     0.79062   0.02166   0.25114   0.00000  Uiso   1.00
C140   C     0.79046   0.31241   0.25122   0.00000  Uiso   1.00
C141   C     0.83322   0.29057   0.24979   0.00000  Uiso   1.00
C142   C     0.96597   0.19292   0.28177   0.00000  Uiso   1.00
C143   C     0.68217   0.19284   0.28182   0.00000  Uiso   1.00
C144   C     0.70128   0.14044   0.21857   0.00000  Uiso   1.00
C145   C     0.98544   0.14007   0.21803   0.00000  Uiso   1.00
C146   C     0.83350   0.08738   0.24977   0.00000  Uiso   1.00
C147   C     0.85950   0.16812   0.14992   0.00000  Uiso   1.00
C148   C     0.93356   0.17731   0.00758   0.00000  Uiso   1.00
C149   C     0.87435   0.16953   0.09257   0.00000  Uiso   1.00
C150   C     0.74380   0.14853   0.43332   0.00000  Uiso   1.00
C151   C     0.72909   0.14507   0.48719   0.00000  Uiso   1.00
C152   C     0.76298   0.14854   0.01471   0.00000  Uiso   1.00
Cu153  Cu    0.78645   0.16666   0.25000   0.00000  Uiso   1.00
Cu154  Cu    0.88022   0.16667   0.25000   0.00000  Uiso   1.00
H155   H     0.90983   0.03653   0.24676   0.00000  Uiso   1.00
H156   H     0.75713   0.03796   0.25235   0.00000  Uiso   1.00
H157   H     0.75692   0.29670   0.25250   0.00000  Uiso   1.00
H158   H     0.93997   0.21391   0.30732   0.00000  Uiso   1.00
H159   H     0.69338   0.21383   0.30738   0.00000  Uiso   1.00
H160   H     0.72800   0.11954   0.19363   0.00000  Uiso   1.00
H161   H     0.95236   0.15048   0.41046   0.00000  Uiso   1.00
H162   H     0.97009   0.18455   0.48337   0.00000  Uiso   1.00
H163   H     0.80279   0.15168   0.09248   0.00000  Uiso   1.00
H164   H     0.71605   0.14930   0.41342   0.00000  Uiso   1.00
H165   H     0.74822   0.14931   0.05650   0.00000  Uiso   1.00
H166   H     0.69086   0.14144   0.00817   0.00000  Uiso   1.00
H167   H     0.90965   0.29537   0.24697   0.00000  Uiso   1.00
N168   N     0.71598   0.16666   0.24999   0.00000  Uiso   1.00
N169   N     0.95069   0.16669   0.25000   0.00000  Uiso   1.00
O170   O     0.79375   0.22678   0.25001   0.00000  Uiso   1.00
O171   O     0.87294   0.22679   0.25001   0.00000  Uiso   1.00
O172   O     0.77441   0.16665   0.32549   0.00000  Uiso   1.00
O173   O     0.85360   0.16666   0.32549   0.00000  Uiso   1.00
O174   O     0.79373   0.10654   0.25000   0.00000  Uiso   1.00
O175   O     0.87292   0.10655   0.25000   0.00000  Uiso   1.00
O176   O     0.81306   0.16667   0.17451   0.00000  Uiso   1.00
O177   O     0.89225   0.16668   0.17451   0.00000  Uiso   1.00
C178   C     0.95950   0.19796   0.08496   0.00000  Uiso   1.00
H179   H     0.97310   0.17332   0.10542   0.00000  Uiso   1.00
H180   H     0.99151   0.21033   0.05461   0.00000  Uiso   1.00
H181   H     0.94344   0.22360   0.11245   0.00000  Uiso   1.00
C182   C     0.97496   0.10865   0.18142   0.00000  Uiso   1.00
H183   H     0.93854   0.11002   0.17662   0.00000  Uiso   1.00
H184   H     0.66782   0.11244   0.14195   0.00000  Uiso   1.00
H185   H     0.98050   0.07734   0.19501   0.00000  Uiso   1.00
I186   I     0.90459   0.09188   0.35252   0.00000  Uiso   1.00
C187   C     0.16655   0.57928   0.24999   0.00000  Uiso   1.00
C188   C     0.14692   0.48450   0.48820   0.00000  Uiso   1.00
C189   C     0.16229   0.48067   0.43311   0.00000  Uiso   1.00
C190   C     0.18299   0.49155   0.01401   0.00000  Uiso   1.00
C191   C     0.23222   0.49733   0.48406   0.00000  Uiso   1.00
C192   C     0.24706   0.48651   0.43155   0.00000  Uiso   1.00
C193   C     0.21270   0.47346   0.40807   0.00000  Uiso   1.00
C194   C     0.17205   0.49296   0.06826   0.00000  Uiso   1.00
C195   C     0.25499   0.51444   0.06175   0.00000  Uiso   1.00
C196   C     0.12692   0.48480   0.40562   0.00000  Uiso   1.00
C197   C     0.20949   0.64499   0.24816   0.00000  Uiso   1.00
C198   C     0.14101   0.49495   0.34946   0.00000  Uiso   1.00
C199   C     0.20964   0.35421   0.24802   0.00000  Uiso   1.00
C200   C     0.16687   0.37607   0.24962   0.00000  Uiso   1.00
C201   C     0.12395   0.35499   0.25114   0.00000  Uiso   1.00
C202   C     0.12380   0.64574   0.25122   0.00000  Uiso   1.00
C203   C     0.16655   0.62390   0.24979   0.00000  Uiso   1.00
C204   C     0.29930   0.52625   0.28177   0.00000  Uiso   1.00
C205   C     0.01550   0.52618   0.28182   0.00000  Uiso   1.00
C206   C     0.03461   0.47377   0.21857   0.00000  Uiso   1.00
C207   C     0.31877   0.47341   0.21803   0.00000  Uiso   1.00
C208   C     0.16683   0.42071   0.24977   0.00000  Uiso   1.00
C209   C     0.19284   0.50145   0.14992   0.00000  Uiso   1.00
C210   C     0.26690   0.51064   0.00758   0.00000  Uiso   1.00
C211   C     0.20768   0.50286   0.09257   0.00000  Uiso   1.00
C212   C     0.07713   0.48187   0.43332   0.00000  Uiso   1.00
C213   C     0.06242   0.47841   0.48719   0.00000  Uiso   1.00
C214   C     0.09631   0.48187   0.01471   0.00000  Uiso   1.00
Cu215  Cu    0.11978   0.49999   0.25000   0.00000  Uiso   1.00
Cu216  Cu    0.21355   0.50001   0.25000   0.00000  Uiso   1.00
H217   H     0.24317   0.36986   0.24676   0.00000  Uiso   1.00
H218   H     0.09046   0.37129   0.25235   0.00000  Uiso   1.00
H219   H     0.09025   0.63003   0.25250   0.00000  Uiso   1.00
H220   H     0.27330   0.54724   0.30732   0.00000  Uiso   1.00
H221   H     0.02672   0.54717   0.30738   0.00000  Uiso   1.00
H222   H     0.06133   0.45287   0.19363   0.00000  Uiso   1.00
H223   H     0.28569   0.48381   0.41046   0.00000  Uiso   1.00
H224   H     0.30342   0.51788   0.48337   0.00000  Uiso   1.00
H225   H     0.13612   0.48502   0.09248   0.00000  Uiso   1.00
H226   H     0.04938   0.48263   0.41342   0.00000  Uiso   1.00
H227   H     0.08155   0.48265   0.05650   0.00000  Uiso   1.00
H228   H     0.02419   0.47477   0.00817   0.00000  Uiso   1.00
H229   H     0.24298   0.62870   0.24697   0.00000  Uiso   1.00
N230   N     0.04931   0.49999   0.24999   0.00000  Uiso   1.00
N231   N     0.28402   0.50002   0.25000   0.00000  Uiso   1.00
O232   O     0.12708   0.56011   0.25001   0.00000  Uiso   1.00
O233   O     0.20627   0.56012   0.25001   0.00000  Uiso   1.00
O234   O     0.10775   0.49998   0.32549   0.00000  Uiso   1.00
O235   O     0.18694   0.49999   0.32549   0.00000  Uiso   1.00
O236   O     0.12706   0.43988   0.25000   0.00000  Uiso   1.00
O237   O     0.20625   0.43989   0.25000   0.00000  Uiso   1.00
O238   O     0.14640   0.50001   0.17451   0.00000  Uiso   1.00
O239   O     0.22559   0.50002   0.17451   0.00000  Uiso   1.00
C240   C     0.29283   0.53129   0.08496   0.00000  Uiso   1.00
H241   H     0.30643   0.50665   0.10542   0.00000  Uiso   1.00
H242   H     0.32484   0.54367   0.05461   0.00000  Uiso   1.00
H243   H     0.27677   0.55694   0.11245   0.00000  Uiso   1.00
C244   C     0.30829   0.44198   0.18142   0.00000  Uiso   1.00
H245   H     0.27188   0.44335   0.17662   0.00000  Uiso   1.00
H246   H     0.00115   0.44577   0.14195   0.00000  Uiso   1.00
H247   H     0.31384   0.41067   0.19501   0.00000  Uiso   1.00
I248   I     0.23793   0.42522   0.35252   0.00000  Uiso   1.00
C249   C     0.49989   0.57928   0.24999   0.00000  Uiso   1.00
C250   C     0.48025   0.48450   0.48820   0.00000  Uiso   1.00
C251   C     0.49562   0.48067   0.43311   0.00000  Uiso   1.00
C252   C     0.51632   0.49155   0.01401   0.00000  Uiso   1.00
C253   C     0.56556   0.49733   0.48406   0.00000  Uiso   1.00
C254   C     0.58039   0.48651   0.43155   0.00000  Uiso   1.00
C255   C     0.54603   0.47346   0.40807   0.00000  Uiso   1.00
C256   C     0.50539   0.49296   0.06826   0.00000  Uiso   1.00
C257   C     0.58832   0.51444   0.06175   0.00000  Uiso   1.00
C258   C     0.46025   0.48480   0.40562   0.00000  Uiso   1.00
C259   C     0.54282   0.64499   0.24816   0.00000  Uiso   1.00
C260   C     0.47434   0.49495   0.34946   0.00000  Uiso   1.00
C261   C     0.54297   0.35421   0.24802   0.00000  Uiso   1.00
C262   C     0.50021   0.37607   0.24962   0.00000  Uiso   1.00
C263   C     0.45729   0.35499   0.25114   0.00000  Uiso   1.00
C264   C     0.45713   0.64574   0.25122   0.00000  Uiso   1.00
C265   C     0.49988   0.62390   0.24979   0.00000  Uiso   1.00
C266   C     0.63264   0.52625   0.28177   0.00000  Uiso   1.00
C267   C     0.34884   0.52618   0.28182   0.00000  Uiso   1.00
C268   C     0.36795   0.47377   0.21857   0.00000  Uiso   1.00
C269   C     0.65210   0.47341   0.21803   0.00000  Uiso   1.00
C270   C     0.50016   0.42071   0.24977   0.00000  Uiso   1.00
C271   C     0.52617   0.50145   0.14992   0.00000  Uiso   1.00
C272   C     0.60023   0.51064   0.00758   0.00000  Uiso   1.00
C273   C     0.54102   0.50286   0.09257   0.00000  Uiso   1.00
C274   C     0.41046   0.48187   0.43332   0.00000  Uiso   1.00
C275   C     0.39575   0.47841   0.48719   0.00000  Uiso   1.00
C276   C     0.42965   0.48187   0.01471   0.00000  Uiso   1.00
Cu277  Cu    0.45311   0.49999   0.25000   0.00000  Uiso   1.00
Cu278  Cu    0.54689   0.50001   0.25000   0.00000  Uiso   1.00
H279   H     0.57650   0.36986   0.24676   0.00000  Uiso   1.00
H280   H     0.42379   0.37129   0.25235   0.00000  Uiso   1.00
H281   H     0.42359   0.63003   0.25250   0.00000  Uiso   1.00
H282   H     0.60664   0.54724   0.30732   0.00000  Uiso   1.00
H283   H     0.36005   0.54717   0.30738   0.00000  Uiso   1.00
H284   H     0.39466   0.45287   0.19363   0.00000  Uiso   1.00
H285   H     0.61902   0.48381   0.41046   0.00000  Uiso   1.00
H286   H     0.63675   0.51788   0.48337   0.00000  Uiso   1.00
H287   H     0.46946   0.48502   0.09248   0.00000  Uiso   1.00
H288   H     0.38272   0.48263   0.41342   0.00000  Uiso   1.00
H289   H     0.41489   0.48265   0.05650   0.00000  Uiso   1.00
H290   H     0.35753   0.47477   0.00817   0.00000  Uiso   1.00
H291   H     0.57632   0.62870   0.24697   0.00000  Uiso   1.00
N292   N     0.38265   0.49999   0.24999   0.00000  Uiso   1.00
N293   N     0.61735   0.50002   0.25000   0.00000  Uiso   1.00
O294   O     0.46042   0.56011   0.25001   0.00000  Uiso   1.00
O295   O     0.53961   0.56012   0.25001   0.00000  Uiso   1.00
O296   O     0.44108   0.49998   0.32549   0.00000  Uiso   1.00
O297   O     0.52027   0.49999   0.32549   0.00000  Uiso   1.00
O298   O     0.46039   0.43988   0.25000   0.00000  Uiso   1.00
O299   O     0.53958   0.43989   0.25000   0.00000  Uiso   1.00
O300   O     0.47973   0.50001   0.17451   0.00000  Uiso   1.00
O301   O     0.55892   0.50002   0.17451   0.00000  Uiso   1.00
C302   C     0.62616   0.53129   0.08496   0.00000  Uiso   1.00
H303   H     0.63977   0.50665   0.10542   0.00000  Uiso   1.00
H304   H     0.65818   0.54367   0.05461   0.00000  Uiso   1.00
H305   H     0.61010   0.55694   0.11245   0.00000  Uiso   1.00
C306   C     0.64163   0.44198   0.18142   0.00000  Uiso   1.00
H307   H     0.60521   0.44335   0.17662   0.00000  Uiso   1.00
H308   H     0.33448   0.44577   0.14195   0.00000  Uiso   1.00
H309   H     0.64717   0.41067   0.19501   0.00000  Uiso   1.00
I310   I     0.57126   0.42522   0.35252   0.00000  Uiso   1.00
C311   C     0.83322   0.57928   0.24999   0.00000  Uiso   1.00
C312   C     0.81358   0.48450   0.48820   0.00000  Uiso   1.00
C313   C     0.82896   0.48067   0.43311   0.00000  Uiso   1.00
C314   C     0.84966   0.49155   0.01401   0.00000  Uiso   1.00
C315   C     0.89889   0.49733   0.48406   0.00000  Uiso   1.00
C316   C     0.91372   0.48651   0.43155   0.00000  Uiso   1.00
C317   C     0.87937   0.47346   0.40807   0.00000  Uiso   1.00
C318   C     0.83872   0.49296   0.06826   0.00000  Uiso   1.00
C319   C     0.92166   0.51444   0.06175   0.00000  Uiso   1.00
C320   C     0.79359   0.48480   0.40562   0.00000  Uiso   1.00
C321   C     0.87615   0.64499   0.24816   0.00000  Uiso   1.00
C322   C     0.80768   0.49495   0.34946   0.00000  Uiso   1.00
C323   C     0.87631   0.35421   0.24802   0.00000  Uiso   1.00
C324   C     0.83354   0.37607   0.24962   0.00000  Uiso   1.00
C325   C     0.79062   0.35499   0.25114   0.00000  Uiso   1.00
C326   C     0.79046   0.64574   0.25122   0.00000  Uiso   1.00
C327   C     0.83322   0.62390   0.24979   0.00000  Uiso   1.00
C328   C     0.96597   0.52625   0.28177   0.00000  Uiso   1.00
C329   C     0.68217   0.52618   0.28182   0.00000  Uiso   1.00
C330   C     0.70128   0.47377   0.21857   0.00000  Uiso   1.00
C331   C     0.98544   0.47341   0.21803   0.00000  Uiso   1.00
C332   C     0.83350   0.42071   0.24977   0.00000  Uiso   1.00
C333   C     0.85950   0.50145   0.14992   0.00000  Uiso   1.00
C334   C     0.93356   0.51064   0.00758   0.00000  Uiso   1.00
C335   C     0.87435   0.50286   0.09257   0.00000  Uiso   1.00
C336   C     0.74380   0.48187   0.43332   0.00000  Uiso   1.00
C337   C     0.72909   0.47841   0.48719   0.00000  Uiso   1.00
C338   C     0.76298   0.48187   0.01471   0.00000  Uiso   1.00
Cu339  Cu    0.78645   0.49999   0.25000   0.00000  Uiso   1.00
Cu340  Cu    0.88022   0.50001   0.25000   0.00000  Uiso   1.00
H341   H     0.90983   0.36986   0.24676   0.00000  Uiso   1.00
H342   H     0.75713   0.37129   0.25235   0.00000  Uiso   1.00
H343   H     0.75692   0.63003   0.25250   0.00000  Uiso   1.00
H344   H     0.93997   0.54724   0.30732   0.00000  Uiso   1.00
H345   H     0.69338   0.54717   0.30738   0.00000  Uiso   1.00
H346   H     0.72800   0.45287   0.19363   0.00000  Uiso   1.00
H347   H     0.95236   0.48381   0.41046   0.00000  Uiso   1.00
H348   H     0.97009   0.51788   0.48337   0.00000  Uiso   1.00
H349   H     0.80279   0.48502   0.09248   0.00000  Uiso   1.00
H350   H     0.71605   0.48263   0.41342   0.00000  Uiso   1.00
H351   H     0.74822   0.48265   0.05650   0.00000  Uiso   1.00
H352   H     0.69086   0.47477   0.00817   0.00000  Uiso   1.00
H353   H     0.90965   0.62870   0.24697   0.00000  Uiso   1.00
N354   N     0.71598   0.49999   0.24999   0.00000  Uiso   1.00
N355   N     0.95069   0.50002   0.25000   0.00000  Uiso   1.00
O356   O     0.79375   0.56011   0.25001   0.00000  Uiso   1.00
O357   O     0.87294   0.56012   0.25001   0.00000  Uiso   1.00
O358   O     0.77441   0.49998   0.32549   0.00000  Uiso   1.00
O359   O     0.85360   0.49999   0.32549   0.00000  Uiso   1.00
O360   O     0.79373   0.43988   0.25000   0.00000  Uiso   1.00
O361   O     0.87292   0.43989   0.25000   0.00000  Uiso   1.00
O362   O     0.81306   0.50001   0.17451   0.00000  Uiso   1.00
O363   O     0.89225   0.50002   0.17451   0.00000  Uiso   1.00
C364   C     0.95950   0.53129   0.08496   0.00000  Uiso   1.00
H365   H     0.97310   0.50665   0.10542   0.00000  Uiso   1.00
H366   H     0.99151   0.54367   0.05461   0.00000  Uiso   1.00
H367   H     0.94344   0.55694   0.11245   0.00000  Uiso   1.00
C368   C     0.97496   0.44198   0.18142   0.00000  Uiso   1.00
H369   H     0.93854   0.44335   0.17662   0.00000  Uiso   1.00
H370   H     0.66782   0.44577   0.14195   0.00000  Uiso   1.00
H371   H     0.98050   0.41067   0.19501   0.00000  Uiso   1.00
I372   I     0.90459   0.42522   0.35252   0.00000  Uiso   1.00
C373   C     0.16655   0.91261   0.24999   0.00000  Uiso   1.00
C374   C     0.14692   0.81784   0.48820   0.00000  Uiso   1.00
C375   C     0.16229   0.81400   0.43311   0.00000  Uiso   1.00
C376   C     0.18299   0.82489   0.01401   0.00000  Uiso   1.00
C377   C     0.23222   0.83066   0.48406   0.00000  Uiso   1.00
C378   C     0.24706   0.81985   0.43155   0.00000  Uiso   1.00
C379   C     0.21270   0.80679   0.40807   0.00000  Uiso   1.00
C380   C     0.17205   0.82630   0.06826   0.00000  Uiso   1.00
C381   C     0.25499   0.84777   0.06175   0.00000  Uiso   1.00
C382   C     0.12692   0.81814   0.40562   0.00000  Uiso   1.00
C383   C     0.20949   0.97832   0.24816   0.00000  Uiso   1.00
C384   C     0.14101   0.82829   0.34946   0.00000  Uiso   1.00
C385   C     0.20964   0.68754   0.24802   0.00000  Uiso   1.00
C386   C     0.16687   0.70941   0.24962   0.00000  Uiso   1.00
C387   C     0.12395   0.68832   0.25114   0.00000  Uiso   1.00
C388   C     0.12380   0.97908   0.25122   0.00000  Uiso   1.00
C389   C     0.16655   0.95724   0.24979   0.00000  Uiso   1.00
C390   C     0.29930   0.85958   0.28177   0.00000  Uiso   1.00
C391   C     0.01550   0.85951   0.28182   0.00000  Uiso   1.00
C392   C     0.03461   0.80710   0.21857   0.00000  Uiso   1.00
C393   C     0.31877   0.80674   0.21803   0.00000  Uiso   1.00
C394   C     0.16683   0.75404   0.24977   0.00000  Uiso   1.00
C395   C     0.19284   0.83479   0.14992   0.00000  Uiso   1.00
C396   C     0.26690   0.84397   0.00758   0.00000  Uiso   1.00
C397   C     0.20768   0.83619   0.09257   0.00000  Uiso   1.00
C398   C     0.07713   0.81520   0.43332   0.00000  Uiso   1.00
C399   C     0.06242   0.81174   0.48719   0.00000  Uiso   1.00
C400   C     0.09631   0.81520   0.01471   0.00000  Uiso   1.00
Cu401  Cu    0.11978   0.83333   0.25000   0.00000  Uiso   1.00
Cu402  Cu    0.21355   0.83334   0.25000   0.00000  Uiso   1.00
H403   H     0.24317   0.70319   0.24676   0.00000  Uiso   1.00
H404   H     0.09046   0.70463   0.25235   0.00000  Uiso   1.00
H405   H     0.09025   0.96337   0.25250   0.00000  Uiso   1.00
H406   H     0.27330   0.88058   0.30732   0.00000  Uiso   1.00
H407   H     0.02672   0.88050   0.30738   0.00000  Uiso   1.00
H408   H     0.06133   0.78620   0.19363   0.00000  Uiso   1.00
H409   H     0.28569   0.81714   0.41046   0.00000  Uiso   1.00
H410   H     0.30342   0.85122   0.48337   0.00000  Uiso   1.00
H411   H     0.13612   0.81835   0.09248   0.00000  Uiso   1.00
H412   H     0.04938   0.81597   0.41342   0.00000  Uiso   1.00
H413   H     0.08155   0.81598   0.05650   0.00000  Uiso   1.00
H414   H     0.02419   0.80810   0.00817   0.00000  Uiso   1.00
H415   H     0.24298   0.96203   0.24697   0.00000  Uiso   1.00
N416   N     0.04931   0.83332   0.24999   0.00000  Uiso   1.00
N417   N     0.28402   0.83335   0.25000   0.00000  Uiso   1.00
O418   O     0.12708   0.89345   0.25001   0.00000  Uiso   1.00
O419   O     0.20627   0.89346   0.25001   0.00000  Uiso   1.00
O420   O     0.10775   0.83332   0.32549   0.00000  Uiso   1.00
O421   O     0.18694   0.83333   0.32549   0.00000  Uiso   1.00
O422   O     0.12706   0.77321   0.25000   0.00000  Uiso   1.00
O423   O     0.20625   0.77322   0.25000   0.00000  Uiso   1.00
O424   O     0.14640   0.83334   0.17451   0.00000  Uiso   1.00
O425   O     0.22559   0.83335   0.17451   0.00000  Uiso   1.00
C426   C     0.29283   0.86463   0.08496   0.00000  Uiso   1.00
H427   H     0.30643   0.83998   0.10542   0.00000  Uiso   1.00
H428   H     0.32484   0.87700   0.05461   0.00000  Uiso   1.00
H429   H     0.27677   0.89027   0.11245   0.00000  Uiso   1.00
C430   C     0.30829   0.77532   0.18142   0.00000  Uiso   1.00
H431   H     0.27188   0.77668   0.17662   0.00000  Uiso   1.00
H432   H     0.00115   0.77911   0.14195   0.00000  Uiso   1.00
H433   H     0.31384   0.74401   0.19501   0.00000  Uiso   1.00
I434   I     0.23793   0.75855   0.35252   0.00000  Uiso   1.00
C435   C     0.49989   0.91261   0.24999   0.00000  Uiso   1.00
C436   C     0.48025   0.81784   0.48820   0.00000  Uiso   1.00
C437   C     0.49562   0.81400   0.43311   0.00000  Uiso   1.00
C438   C     0.51632   0.82489   0.01401   0.00000  Uiso   1.00
C439   C     0.56556   0.83066   0.48406   0.00000  Uiso   1.00
C440   C     0.58039   0.81985   0.43155   0.00000  Uiso   1.00
C441   C     0.54603   0.80679   0.40807   0.00000  Uiso   1.00
C442   C     0.50539   0.82630   0.06826   0.00000  Uiso   1.00
C443   C     0.58832   0.84777   0.06175   0.00000  Uiso   1.00
C444   C     0.46025   0.81814   0.40562   0.00000  Uiso   1.00
C445   C     0.54282   0.97832   0.24816   0.00000  Uiso   1.00
C446   C     0.47434   0.82829   0.34946   0.00000  Uiso   1.00
C447   C     0.54297   0.68754   0.24802   0.00000  Uiso   1.00
C448   C     0.50021   0.70941   0.24962   0.00000  Uiso   1.00
C449   C     0.45729   0.68832   0.25114   0.00000  Uiso   1.00
C450   C     0.45713   0.97908   0.25122   0.00000  Uiso   1.00
C451   C     0.49988   0.95724   0.24979   0.00000  Uiso   1.00
C452   C     0.63264   0.85958   0.28177   0.00000  Uiso   1.00
C453   C     0.34884   0.85951   0.28182   0.00000  Uiso   1.00
C454   C     0.36795   0.80710   0.21857   0.00000  Uiso   1.00
C455   C     0.65210   0.80674   0.21803   0.00000  Uiso   1.00
C456   C     0.50016   0.75404   0.24977   0.00000  Uiso   1.00
C457   C     0.52617   0.83479   0.14992   0.00000  Uiso   1.00
C458   C     0.60023   0.84397   0.00758   0.00000  Uiso   1.00
C459   C     0.54102   0.83619   0.09257   0.00000  Uiso   1.00
C460   C     0.41046   0.81520   0.43332   0.00000  Uiso   1.00
C461   C     0.39575   0.81174   0.48719   0.00000  Uiso   1.00
C462   C     0.42965   0.81520   0.01471   0.00000  Uiso   1.00
Cu463  Cu    0.45311   0.83333   0.25000   0.00000  Uiso   1.00
Cu464  Cu    0.54689   0.83334   0.25000   0.00000  Uiso   1.00
H465   H     0.57650   0.70319   0.24676   0.00000  Uiso   1.00
H466   H     0.42379   0.70463   0.25235   0.00000  Uiso   1.00
H467   H     0.42359   0.96337   0.25250   0.00000  Uiso   1.00
H468   H     0.60664   0.88058   0.30732   0.00000  Uiso   1.00
H469   H     0.36005   0.88050   0.30738   0.00000  Uiso   1.00
H470   H     0.39466   0.78620   0.19363   0.00000  Uiso   1.00
H471   H     0.61902   0.81714   0.41046   0.00000  Uiso   1.00
H472   H     0.63675   0.85122   0.48337   0.00000  Uiso   1.00
H473   H     0.46946   0.81835   0.09248   0.00000  Uiso   1.00
H474   H     0.38272   0.81597   0.41342   0.00000  Uiso   1.00
H475   H     0.41489   0.81598   0.05650   0.00000  Uiso   1.00
H476   H     0.35753   0.80810   0.00817   0.00000  Uiso   1.00
H477   H     0.57632   0.96203   0.24697   0.00000  Uiso   1.00
N478   N     0.38265   0.83332   0.24999   0.00000  Uiso   1.00
N479   N     0.61735   0.83335   0.25000   0.00000  Uiso   1.00
O480   O     0.46042   0.89345   0.25001   0.00000  Uiso   1.00
O481   O     0.53961   0.89346   0.25001   0.00000  Uiso   1.00
O482   O     0.44108   0.83332   0.32549   0.00000  Uiso   1.00
O483   O     0.52027   0.83333   0.32549   0.00000  Uiso   1.00
O484   O     0.46039   0.77321   0.25000   0.00000  Uiso   1.00
O485   O     0.53958   0.77322   0.25000   0.00000  Uiso   1.00
O486   O     0.47973   0.83334   0.17451   0.00000  Uiso   1.00
O487   O     0.55892   0.83335   0.17451   0.00000  Uiso   1.00
C488   C     0.62616   0.86463   0.08496   0.00000  Uiso   1.00
H489   H     0.63977   0.83998   0.10542   0.00000  Uiso   1.00
H490   H     0.65818   0.87700   0.05461   0.00000  Uiso   1.00
H491   H     0.61010   0.89027   0.11245   0.00000  Uiso   1.00
C492   C     0.64163   0.77532   0.18142   0.00000  Uiso   1.00
H493   H     0.60521   0.77668   0.17662   0.00000  Uiso   1.00
H494   H     0.33448   0.77911   0.14195   0.00000  Uiso   1.00
H495   H     0.64717   0.74401   0.19501   0.00000  Uiso   1.00
I496   I     0.57126   0.75855   0.35252   0.00000  Uiso   1.00
C497   C     0.83322   0.91261   0.24999   0.00000  Uiso   1.00
C498   C     0.81358   0.81784   0.48820   0.00000  Uiso   1.00
C499   C     0.82896   0.81400   0.43311   0.00000  Uiso   1.00
C500   C     0.84966   0.82489   0.01401   0.00000  Uiso   1.00
C501   C     0.89889   0.83066   0.48406   0.00000  Uiso   1.00
C502   C     0.91372   0.81985   0.43155   0.00000  Uiso   1.00
C503   C     0.87937   0.80679   0.40807   0.00000  Uiso   1.00
C504   C     0.83872   0.82630   0.06826   0.00000  Uiso   1.00
C505   C     0.92166   0.84777   0.06175   0.00000  Uiso   1.00
C506   C     0.79359   0.81814   0.40562   0.00000  Uiso   1.00
C507   C     0.87615   0.97832   0.24816   0.00000  Uiso   1.00
C508   C     0.80768   0.82829   0.34946   0.00000  Uiso   1.00
C509   C     0.87631   0.68754   0.24802   0.00000  Uiso   1.00
C510   C     0.83354   0.70941   0.24962   0.00000  Uiso   1.00
C511   C     0.79062   0.68832   0.25114   0.00000  Uiso   1.00
C512   C     0.79046   0.97908   0.25122   0.00000  Uiso   1.00
C513   C     0.83322   0.95724   0.24979   0.00000  Uiso   1.00
C514   C     0.96597   0.85958   0.28177   0.00000  Uiso   1.00
C515   C     0.68217   0.85951   0.28182   0.00000  Uiso   1.00
C516   C     0.70128   0.80710   0.21857   0.00000  Uiso   1.00
C517   C     0.98544   0.80674   0.21803   0.00000  Uiso   1.00
C518   C     0.83350   0.75404   0.24977   0.00000  Uiso   1.00
C519   C     0.85950   0.83479   0.14992   0.00000  Uiso   1.00
C520   C     0.93356   0.84397   0.00758   0.00000  Uiso   1.00
C521   C     0.87435   0.83619   0.09257   0.00000  Uiso   1.00
C522   C     0.74380   0.81520   0.43332   0.00000  Uiso   1.00
C523   C     0.72909   0.81174   0.48719   0.00000  Uiso   1.00
C524   C     0.76298   0.81520   0.01471   0.00000  Uiso   1.00
Cu525  Cu    0.78645   0.83333   0.25000   0.00000  Uiso   1.00
Cu526  Cu    0.88022   0.83334   0.25000   0.00000  Uiso   1.00
H527   H     0.90983   0.70319   0.24676   0.00000  Uiso   1.00
H528   H     0.75713   0.70463   0.25235   0.00000  Uiso   1.00
H529   H     0.75692   0.96337   0.25250   0.00000  Uiso   1.00
H530   H     0.93997   0.88058   0.30732   0.00000  Uiso   1.00
H531   H     0.69338   0.88050   0.30738   0.00000  Uiso   1.00
H532   H     0.72800   0.78620   0.19363   0.00000  Uiso   1.00
H533   H     0.95236   0.81714   0.41046   0.00000  Uiso   1.00
H534   H     0.97009   0.85122   0.48337   0.00000  Uiso   1.00
H535   H     0.80279   0.81835   0.09248   0.00000  Uiso   1.00
H536   H     0.71605   0.81597   0.41342   0.00000  Uiso   1.00
H537   H     0.74822   0.81598   0.05650   0.00000  Uiso   1.00
H538   H     0.69086   0.80810   0.00817   0.00000  Uiso   1.00
H539   H     0.90965   0.96203   0.24697   0.00000  Uiso   1.00
N540   N     0.71598   0.83332   0.24999   0.00000  Uiso   1.00
N541   N     0.95069   0.83335   0.25000   0.00000  Uiso   1.00
O542   O     0.79375   0.89345   0.25001   0.00000  Uiso   1.00
O543   O     0.87294   0.89346   0.25001   0.00000  Uiso   1.00
O544   O     0.77441   0.83332   0.32549   0.00000  Uiso   1.00
O545   O     0.85360   0.83333   0.32549   0.00000  Uiso   1.00
O546   O     0.79373   0.77321   0.25000   0.00000  Uiso   1.00
O547   O     0.87292   0.77322   0.25000   0.00000  Uiso   1.00
O548   O     0.81306   0.83334   0.17451   0.00000  Uiso   1.00
O549   O     0.89225   0.83335   0.17451   0.00000  Uiso   1.00
C550   C     0.95950   0.86463   0.08496   0.00000  Uiso   1.00
H551   H     0.97310   0.83998   0.10542   0.00000  Uiso   1.00
H552   H     0.99151   0.87700   0.05461   0.00000  Uiso   1.00
H553   H     0.94344   0.89027   0.11245   0.00000  Uiso   1.00
C554   C     0.97496   0.77532   0.18142   0.00000  Uiso   1.00
H555   H     0.93854   0.77668   0.17662   0.00000  Uiso   1.00
H556   H     0.66782   0.77911   0.14195   0.00000  Uiso   1.00
H557   H     0.98050   0.74401   0.19501   0.00000  Uiso   1.00
I558   I     0.90459   0.75855   0.35252   0.00000  Uiso   1.00
C559   C     0.16655   0.24595   0.74999   0.00000  Uiso   1.00
C560   C     0.14692   0.15117   0.98820   0.00000  Uiso   1.00
C561   C     0.16229   0.14733   0.93311   0.00000  Uiso   1.00
C562   C     0.18299   0.15822   0.51401   0.00000  Uiso   1.00
C563   C     0.23222   0.16399   0.98406   0.00000  Uiso   1.00
C564   C     0.24706   0.15318   0.93155   0.00000  Uiso   1.00
C565   C     0.21270   0.14013   0.90807   0.00000  Uiso   1.00
C566   C     0.17205   0.15963   0.56826   0.00000  Uiso   1.00
C567   C     0.25499   0.18110   0.56175   0.00000  Uiso   1.00
C568   C     0.12692   0.15147   0.90562   0.00000  Uiso   1.00
C569   C     0.20949   0.31165   0.74816   0.00000  Uiso   1.00
C570   C     0.14101   0.16162   0.84946   0.00000  Uiso   1.00
C571   C     0.20964   0.02087   0.74802   0.00000  Uiso   1.00
C572   C     0.16687   0.04274   0.74962   0.00000  Uiso   1.00
C573   C     0.12395   0.02166   0.75114   0.00000  Uiso   1.00
C574   C     0.12380   0.31241   0.75122   0.00000  Uiso   1.00
C575   C     0.16655   0.29057   0.74979   0.00000  Uiso   1.00
C576   C     0.29930   0.19292   0.78177   0.00000  Uiso   1.00
C577   C     0.01550   0.19284   0.78182   0.00000  Uiso   1.00
C578   C     0.03461   0.14044   0.71857   0.00000  Uiso   1.00
C579   C     0.31877   0.14007   0.71803   0.00000  Uiso   1.00
C580   C     0.16683   0.08738   0.74977   0.00000  Uiso   1.00
C581   C     0.19284   0.16812   0.64992   0.00000  Uiso   1.00
C582   C     0.26690   0.17731   0.50758   0.00000  Uiso   1.00
C583   C     0.20768   0.16953   0.59257   0.00000  Uiso   1.00
C584   C     0.07713   0.14853   0.93332   0.00000  Uiso   1.00
C585   C     0.06242   0.14507   0.98719   0.00000  Uiso   1.00
C586   C     0.09631   0.14854   0.51471   0.00000  Uiso   1.00
Cu587  Cu    0.11978   0.16666   0.75000   0.00000  Uiso   1.00
Cu588  Cu    0.21355   0.16667   0.75000   0.00000  Uiso   1.00
H589   H     0.24317   0.03653   0.74676   0.00000  Uiso   1.00
H590   H     0.09046   0.03796   0.75235   0.00000  Uiso   1.00
H591   H     0.09025   0.29670   0.75250   0.00000  Uiso   1.00
H592   H     0.27330   0.21391   0.80732   0.00000  Uiso   1.00
H593   H     0.02672   0.21383   0.80738   0.00000  Uiso   1.00
H594   H     0.06133   0.11954   0.69363   0.00000  Uiso   1.00
H595   H     0.28569   0.15048   0.91046   0.00000  Uiso   1.00
H596   H     0.30342   0.18455   0.98337   0.00000  Uiso   1.00
H597   H     0.13612   0.15168   0.59248   0.00000  Uiso   1.00
H598   H     0.04938   0.14930   0.91342   0.00000  Uiso   1.00
H599   H     0.08155   0.14931   0.55650   0.00000  Uiso   1.00
H600   H     0.02419   0.14144   0.50817   0.00000  Uiso   1.00
H601   H     0.24298   0.29537   0.74697   0.00000  Uiso   1.00
N602   N     0.04931   0.16666   0.74999   0.00000  Uiso   1.00
N603   N     0.28402   0.16669   0.75000   0.00000  Uiso   1.00
O604   O     0.12708   0.22678   0.75001   0.00000  Uiso   1.00
O605   O     0.20627   0.22679   0.75001   0.00000  Uiso   1.00
O606   O     0.10775   0.16665   0.82549   0.00000  Uiso   1.00
O607   O     0.18694   0.16666   0.82549   0.00000  Uiso   1.00
O608   O     0.12706   0.10654   0.75000   0.00000  Uiso   1.00
O609   O     0.20625   0.10655   0.75000   0.00000  Uiso   1.00
O610   O     0.14640   0.16667   0.67451   0.00000  Uiso   1.00
O611   O     0.22559   0.16668   0.67451   0.00000  Uiso   1.00
C612   C     0.29283   0.19796   0.58496   0.00000  Uiso   1.00
H613   H     0.30643   0.17332   0.60542   0.00000  Uiso   1.00
H614   H     0.32484   0.21033   0.55461   0.00000  Uiso   1.00
H615   H     0.27677   0.22360   0.61245   0.00000  Uiso   1.00
C616   C     0.30829   0.10865   0.68142   0.00000  Uiso   1.00
H617   H     0.27188   0.11002   0.67662   0.00000  Uiso   1.00
H618   H     0.00115   0.11244   0.64195   0.00000  Uiso   1.00
H619   H     0.31384   0.07734   0.69501   0.00000  Uiso   1.00
I620   I     0.23793   0.09188   0.85252   0.00000  Uiso   1.00
C621   C     0.49989   0.24595   0.74999   0.00000  Uiso   1.00
C622   C     0.48025   0.15117   0.98820   0.00000  Uiso   1.00
C623   C     0.49562   0.14733   0.93311   0.00000  Uiso   1.00
C624   C     0.51632   0.15822   0.51401   0.00000  Uiso   1.00
C625   C     0.56556   0.16399   0.98406   0.00000  Uiso   1.00
C626   C     0.58039   0.15318   0.93155   0.00000  Uiso   1.00
C627   C     0.54603   0.14013   0.90807   0.00000  Uiso   1.00
C628   C     0.50539   0.15963   0.56826   0.00000  Uiso   1.00
C629   C     0.58832   0.18110   0.56175   0.00000  Uiso   1.00
C630   C     0.46025   0.15147   0.90562   0.00000  Uiso   1.00
C631   C     0.54282   0.31165   0.74816   0.00000  Uiso   1.00
C632   C     0.47434   0.16162   0.84946   0.00000  Uiso   1.00
C633   C     0.54297   0.02087   0.74802   0.00000  Uiso   1.00
C634   C     0.50021   0.04274   0.74962   0.00000  Uiso   1.00
C635   C     0.45729   0.02166   0.75114   0.00000  Uiso   1.00
C636   C     0.45713   0.31241   0.75122   0.00000  Uiso   1.00
C637   C     0.49988   0.29057   0.74979   0.00000  Uiso   1.00
C638   C     0.63264   0.19292   0.78177   0.00000  Uiso   1.00
C639   C     0.34884   0.19284   0.78182   0.00000  Uiso   1.00
C640   C     0.36795   0.14044   0.71857   0.00000  Uiso   1.00
C641   C     0.65210   0.14007   0.71803   0.00000  Uiso   1.00
C642   C     0.50016   0.08738   0.74977   0.00000  Uiso   1.00
C643   C     0.52617   0.16812   0.64992   0.00000  Uiso   1.00
C644   C     0.60023   0.17731   0.50758   0.00000  Uiso   1.00
C645   C     0.54102   0.16953   0.59257   0.00000  Uiso   1.00
C646   C     0.41046   0.14853   0.93332   0.00000  Uiso   1.00
C647   C     0.39575   0.14507   0.98719   0.00000  Uiso   1.00
C648   C     0.42965   0.14854   0.51471   0.00000  Uiso   1.00
Cu649  Cu    0.45311   0.16666   0.75000   0.00000  Uiso   1.00
Cu650  Cu    0.54689   0.16667   0.75000   0.00000  Uiso   1.00
H651   H     0.57650   0.03653   0.74676   0.00000  Uiso   1.00
H652   H     0.42379   0.03796   0.75235   0.00000  Uiso   1.00
H653   H     0.42359   0.29670   0.75250   0.00000  Uiso   1.00
H654   H     0.60664   0.21391   0.80732   0.00000  Uiso   1.00
H655   H     0.36005   0.21383   0.80738   0.00000  Uiso   1.00
H656   H     0.39466   0.11954   0.69363   0.00000  Uiso   1.00
H657   H     0.61902   0.15048   0.91046   0.00000  Uiso   1.00
H658   H     0.63675   0.18455   0.98337   0.00000  Uiso   1.00
H659   H     0.46946   0.15168   0.59248   0.00000  Uiso   1.00
H660   H     0.38272   0.14930   0.91342   0.00000  Uiso   1.00
H661   H     0.41489   0.14931   0.55650   0.00000  Uiso   1.00
H662   H     0.35753   0.14144   0.50817   0.00000  Uiso   1.00
H663   H     0.57632   0.29537   0.74697   0.00000  Uiso   1.00
N664   N     0.38265   0.16666   0.74999   0.00000  Uiso   1.00
N665   N     0.61735   0.16669   0.75000   0.00000  Uiso   1.00
O666   O     0.46042   0.22678   0.75001   0.00000  Uiso   1.00
O667   O     0.53961   0.22679   0.75001   0.00000  Uiso   1.00
O668   O     0.44108   0.16665   0.82549   0.00000  Uiso   1.00
O669   O     0.52027   0.16666   0.82549   0.00000  Uiso   1.00
O670   O     0.46039   0.10654   0.75000   0.00000  Uiso   1.00
O671   O     0.53958   0.10655   0.75000   0.00000  Uiso   1.00
O672   O     0.47973   0.16667   0.67451   0.00000  Uiso   1.00
O673   O     0.55892   0.16668   0.67451   0.00000  Uiso   1.00
C674   C     0.62616   0.19796   0.58496   0.00000  Uiso   1.00
H675   H     0.63977   0.17332   0.60542   0.00000  Uiso   1.00
H676   H     0.65818   0.21033   0.55461   0.00000  Uiso   1.00
H677   H     0.61010   0.22360   0.61245   0.00000  Uiso   1.00
C678   C     0.64163   0.10865   0.68142   0.00000  Uiso   1.00
H679   H     0.60521   0.11002   0.67662   0.00000  Uiso   1.00
H680   H     0.33448   0.11244   0.64195   0.00000  Uiso   1.00
H681   H     0.64717   0.07734   0.69501   0.00000  Uiso   1.00
I682   I     0.57126   0.09188   0.85252   0.00000  Uiso   1.00
C683   C     0.83322   0.24595   0.74999   0.00000  Uiso   1.00
C684   C     0.81358   0.15117   0.98820   0.00000  Uiso   1.00
C685   C     0.82896   0.14733   0.93311   0.00000  Uiso   1.00
C686   C     0.84966   0.15822   0.51401   0.00000  Uiso   1.00
C687   C     0.89889   0.16399   0.98406   0.00000  Uiso   1.00
C688   C     0.91372   0.15318   0.93155   0.00000  Uiso   1.00
C689   C     0.87937   0.14013   0.90807   0.00000  Uiso   1.00
C690   C     0.83872   0.15963   0.56826   0.00000  Uiso   1.00
C691   C     0.92166   0.18110   0.56175   0.00000  Uiso   1.00
C692   C     0.79359   0.15147   0.90562   0.00000  Uiso   1.00
C693   C     0.87615   0.31165   0.74816   0.00000  Uiso   1.00
C694   C     0.80768   0.16162   0.84946   0.00000  Uiso   1.00
C695   C     0.87631   0.02087   0.74802   0.00000  Uiso   1.00
C696   C     0.83354   0.04274   0.74962   0.00000  Uiso   1.00
C697   C     0.79062   0.02166   0.75114   0.00000  Uiso   1.00
C698   C     0.79046   0.31241   0.75122   0.00000  Uiso   1.00
C699   C     0.83322   0.29057   0.74979   0.00000  Uiso   1.00
C700   C     0.96597   0.19292   0.78177   0.00000  Uiso   1.00
C701   C     0.68217   0.19284   0.78182   0.00000  Uiso   1.00
C702   C     0.70128   0.14044   0.71857   0.00000  Uiso   1.00
C703   C     0.98544   0.14007   0.71803   0.00000  Uiso   1.00
C704   C     0.83350   0.08738   0.74977   0.00000  Uiso   1.00
C705   C     0.85950   0.16812   0.64992   0.00000  Uiso   1.00
C706   C     0.93356   0.17731   0.50758   0.00000  Uiso   1.00
C707   C     0.87435   0.16953   0.59257   0.00000  Uiso   1.00
C708   C     0.74380   0.14853   0.93332   0.00000  Uiso   1.00
C709   C     0.72909   0.14507   0.98719   0.00000  Uiso   1.00
C710   C     0.76298   0.14854   0.51471   0.00000  Uiso   1.00
Cu711  Cu    0.78645   0.16666   0.75000   0.00000  Uiso   1.00
Cu712  Cu    0.88022   0.16667   0.75000   0.00000  Uiso   1.00
H713   H     0.90983   0.03653   0.74676   0.00000  Uiso   1.00
H714   H     0.75713   0.03796   0.75235   0.00000  Uiso   1.00
H715   H     0.75692   0.29670   0.75250   0.00000  Uiso   1.00
H716   H     0.93997   0.21391   0.80732   0.00000  Uiso   1.00
H717   H     0.69338   0.21383   0.80738   0.00000  Uiso   1.00
H718   H     0.72800   0.11954   0.69363   0.00000  Uiso   1.00
H719   H     0.95236   0.15048   0.91046   0.00000  Uiso   1.00
H720   H     0.97009   0.18455   0.98337   0.00000  Uiso   1.00
H721   H     0.80279   0.15168   0.59248   0.00000  Uiso   1.00
H722   H     0.71605   0.14930   0.91342   0.00000  Uiso   1.00
H723   H     0.74822   0.14931   0.55650   0.00000  Uiso   1.00
H724   H     0.69086   0.14144   0.50817   0.00000  Uiso   1.00
H725   H     0.90965   0.29537   0.74697   0.00000  Uiso   1.00
N726   N     0.71598   0.16666   0.74999   0.00000  Uiso   1.00
N727   N     0.95069   0.16669   0.75000   0.00000  Uiso   1.00
O728   O     0.79375   0.22678   0.75001   0.00000  Uiso   1.00
O729   O     0.87294   0.22679   0.75001   0.00000  Uiso   1.00
O730   O     0.77441   0.16665   0.82549   0.00000  Uiso   1.00
O731   O     0.85360   0.16666   0.82549   0.00000  Uiso   1.00
O732   O     0.79373   0.10654   0.75000   0.00000  Uiso   1.00
O733   O     0.87292   0.10655   0.75000   0.00000  Uiso   1.00
O734   O     0.81306   0.16667   0.67451   0.00000  Uiso   1.00
O735   O     0.89225   0.16668   0.67451   0.00000  Uiso   1.00
C736   C     0.95950   0.19796   0.58496   0.00000  Uiso   1.00
H737   H     0.97310   0.17332   0.60542   0.00000  Uiso   1.00
H738   H     0.99151   0.21033   0.55461   0.00000  Uiso   1.00
H739   H     0.94344   0.22360   0.61245   0.00000  Uiso   1.00
C740   C     0.97496   0.10865   0.68142   0.00000  Uiso   1.00
H741   H     0.93854   0.11002   0.67662   0.00000  Uiso   1.00
H742   H     0.66782   0.11244   0.64195   0.00000  Uiso   1.00
H743   H     0.98050   0.07734   0.69501   0.00000  Uiso   1.00
I744   I     0.90459   0.09188   0.85252   0.00000  Uiso   1.00
C745   C     0.16655   0.57928   0.74999   0.00000  Uiso   1.00
C746   C     0.14692   0.48450   0.98820   0.00000  Uiso   1.00
C747   C     0.16229   0.48067   0.93311   0.00000  Uiso   1.00
C748   C     0.18299   0.49155   0.51401   0.00000  Uiso   1.00
C749   C     0.23222   0.49733   0.98406   0.00000  Uiso   1.00
C750   C     0.24706   0.48651   0.93155   0.00000  Uiso   1.00
C751   C     0.21270   0.47346   0.90807   0.00000  Uiso   1.00
C752   C     0.17205   0.49296   0.56826   0.00000  Uiso   1.00
C753   C     0.25499   0.51444   0.56175   0.00000  Uiso   1.00
C754   C     0.12692   0.48480   0.90562   0.00000  Uiso   1.00
C755   C     0.20949   0.64499   0.74816   0.00000  Uiso   1.00
C756   C     0.14101   0.49495   0.84946   0.00000  Uiso   1.00
C757   C     0.20964   0.35421   0.74802   0.00000  Uiso   1.00
C758   C     0.16687   0.37607   0.74962   0.00000  Uiso   1.00
C759   C     0.12395   0.35499   0.75114   0.00000  Uiso   1.00
C760   C     0.12380   0.64574   0.75122   0.00000  Uiso   1.00
C761   C     0.16655   0.62390   0.74979   0.00000  Uiso   1.00
C762   C     0.29930   0.52625   0.78177   0.00000  Uiso   1.00
C763   C     0.01550   0.52618   0.78182   0.00000  Uiso   1.00
C764   C     0.03461   0.47377   0.71857   0.00000  Uiso   1.00
C765   C     0.31877   0.47341   0.71803   0.00000  Uiso   1.00
C766   C     0.16683   0.42071   0.74977   0.00000  Uiso   1.00
C767   C     0.19284   0.50145   0.64992   0.00000  Uiso   1.00
C768   C     0.26690   0.51064   0.50758   0.00000  Uiso   1.00
C769   C     0.20768   0.50286   0.59257   0.00000  Uiso   1.00
C770   C     0.07713   0.48187   0.93332   0.00000  Uiso   1.00
C771   C     0.06242   0.47841   0.98719   0.00000  Uiso   1.00
C772   C     0.09631   0.48187   0.51471   0.00000  Uiso   1.00
Cu773  Cu    0.11978   0.49999   0.75000   0.00000  Uiso   1.00
Cu774  Cu    0.21355   0.50001   0.75000   0.00000  Uiso   1.00
H775   H     0.24317   0.36986   0.74676   0.00000  Uiso   1.00
H776   H     0.09046   0.37129   0.75235   0.00000  Uiso   1.00
H777   H     0.09025   0.63003   0.75250   0.00000  Uiso   1.00
H778   H     0.27330   0.54724   0.80732   0.00000  Uiso   1.00
H779   H     0.02672   0.54717   0.80738   0.00000  Uiso   1.00
H780   H     0.06133   0.45287   0.69363   0.00000  Uiso   1.00
H781   H     0.28569   0.48381   0.91046   0.00000  Uiso   1.00
H782   H     0.30342   0.51788   0.98337   0.00000  Uiso   1.00
H783   H     0.13612   0.48502   0.59248   0.00000  Uiso   1.00
H784   H     0.04938   0.48263   0.91342   0.00000  Uiso   1.00
H785   H     0.08155   0.48265   0.55650   0.00000  Uiso   1.00
H786   H     0.02419   0.47477   0.50817   0.00000  Uiso   1.00
H787   H     0.24298   0.62870   0.74697   0.00000  Uiso   1.00
N788   N     0.04931   0.49999   0.74999   0.00000  Uiso   1.00
N789   N     0.28402   0.50002   0.75000   0.00000  Uiso   1.00
O790   O     0.12708   0.56011   0.75001   0.00000  Uiso   1.00
O791   O     0.20627   0.56012   0.75001   0.00000  Uiso   1.00
O792   O     0.10775   0.49998   0.82549   0.00000  Uiso   1.00
O793   O     0.18694   0.49999   0.82549   0.00000  Uiso   1.00
O794   O     0.12706   0.43988   0.75000   0.00000  Uiso   1.00
O795   O     0.20625   0.43989   0.75000   0.00000  Uiso   1.00
O796   O     0.14640   0.50001   0.67451   0.00000  Uiso   1.00
O797   O     0.22559   0.50002   0.67451   0.00000  Uiso   1.00
C798   C     0.29283   0.53129   0.58496   0.00000  Uiso   1.00
H799   H     0.30643   0.50665   0.60542   0.00000  Uiso   1.00
H800   H     0.32484   0.54367   0.55461   0.00000  Uiso   1.00
H801   H     0.27677   0.55694   0.61245   0.00000  Uiso   1.00
C802   C     0.30829   0.44198   0.68142   0.00000  Uiso   1.00
H803   H     0.27188   0.44335   0.67662   0.00000  Uiso   1.00
H804   H     0.00115   0.44577   0.64195   0.00000  Uiso   1.00
H805   H     0.31384   0.41067   0.69501   0.00000  Uiso   1.00
I806   I     0.23793   0.42522   0.85252   0.00000  Uiso   1.00
C807   C     0.49989   0.57928   0.74999   0.00000  Uiso   1.00
C808   C     0.48025   0.48450   0.98820   0.00000  Uiso   1.00
C809   C     0.49562   0.48067   0.93311   0.00000  Uiso   1.00
C810   C     0.51632   0.49155   0.51401   0.00000  Uiso   1.00
C811   C     0.56556   0.49733   0.98406   0.00000  Uiso   1.00
C812   C     0.58039   0.48651   0.93155   0.00000  Uiso   1.00
C813   C     0.54603   0.47346   0.90807   0.00000  Uiso   1.00
C814   C     0.50539   0.49296   0.56826   0.00000  Uiso   1.00
C815   C     0.58832   0.51444   0.56175   0.00000  Uiso   1.00
C816   C     0.46025   0.48480   0.90562   0.00000  Uiso   1.00
C817   C     0.54282   0.64499   0.74816   0.00000  Uiso   1.00
C818   C     0.47434   0.49495   0.84946   0.00000  Uiso   1.00
C819   C     0.54297   0.35421   0.74802   0.00000  Uiso   1.00
C820   C     0.50021   0.37607   0.74962   0.00000  Uiso   1.00
C821   C     0.45729   0.35499   0.75114   0.00000  Uiso   1.00
C822   C     0.45713   0.64574   0.75122   0.00000  Uiso   1.00
C823   C     0.49988   0.62390   0.74979   0.00000  Uiso   1.00
C824   C     0.63264   0.52625   0.78177   0.00000  Uiso   1.00
C825   C     0.34884   0.52618   0.78182   0.00000  Uiso   1.00
C826   C     0.36795   0.47377   0.71857   0.00000  Uiso   1.00
C827   C     0.65210   0.47341   0.71803   0.00000  Uiso   1.00
C828   C     0.50016   0.42071   0.74977   0.00000  Uiso   1.00
C829   C     0.52617   0.50145   0.64992   0.00000  Uiso   1.00
C830   C     0.60023   0.51064   0.50758   0.00000  Uiso   1.00
C831   C     0.54102   0.50286   0.59257   0.00000  Uiso   1.00
C832   C     0.41046   0.48187   0.93332   0.00000  Uiso   1.00
C833   C     0.39575   0.47841   0.98719   0.00000  Uiso   1.00
C834   C     0.42965   0.48187   0.51471   0.00000  Uiso   1.00
Cu835  Cu    0.45311   0.49999   0.75000   0.00000  Uiso   1.00
Cu836  Cu    0.54689   0.50001   0.75000   0.00000  Uiso   1.00
H837   H     0.57650   0.36986   0.74676   0.00000  Uiso   1.00
H838   H     0.42379   0.37129   0.75235   0.00000  Uiso   1.00
H839   H     0.42359   0.63003   0.75250   0.00000  Uiso   1.00
H840   H     0.60664   0.54724   0.80732   0.00000  Uiso   1.00
H841   H     0.36005   0.54717   0.80738   0.00000  Uiso   1.00
H842   H     0.39466   0.45287   0.69363   0.00000  Uiso   1.00
H843   H     0.61902   0.48381   0.91046   0.00000  Uiso   1.00
H844   H     0.63675   0.51788   0.98337   0.00000  Uiso   1.00
H845   H     0.46946   0.48502   0.59248   0.00000  Uiso   1.00
H846   H     0.38272   0.48263   0.91342   0.00000  Uiso   1.00
H847   H     0.41489   0.48265   0.55650   0.00000  Uiso   1.00
H848   H     0.35753   0.47477   0.50817   0.00000  Uiso   1.00
H849   H     0.57632   0.62870   0.74697   0.00000  Uiso   1.00
N850   N     0.38265   0.49999   0.74999   0.00000  Uiso   1.00
N851   N     0.61735   0.50002   0.75000   0.00000  Uiso   1.00
O852   O     0.46042   0.56011   0.75001   0.00000  Uiso   1.00
O853   O     0.53961   0.56012   0.75001   0.00000  Uiso   1.00
O854   O     0.44108   0.49998   0.82549   0.00000  Uiso   1.00
O855   O     0.52027   0.49999   0.82549   0.00000  Uiso   1.00
O856   O     0.46039   0.43988   0.75000   0.00000  Uiso   1.00
O857   O     0.53958   0.43989   0.75000   0.00000  Uiso   1.00
O858   O     0.47973   0.50001   0.67451   0.00000  Uiso   1.00
O859   O     0.55892   0.50002   0.67451   0.00000  Uiso   1.00
C860   C     0.62616   0.53129   0.58496   0.00000  Uiso   1.00
H861   H     0.63977   0.50665   0.60542   0.00000  Uiso   1.00
H862   H     0.65818   0.54367   0.55461   0.00000  Uiso   1.00
H863   H     0.61010   0.55694   0.61245   0.00000  Uiso   1.00
C864   C     0.64163   0.44198   0.68142   0.00000  Uiso   1.00
H865   H     0.60521   0.44335   0.67662   0.00000  Uiso   1.00
H866   H     0.33448   0.44577   0.64195   0.00000  Uiso   1.00
H867   H     0.64717   0.41067   0.69501   0.00000  Uiso   1.00
I868   I     0.57126   0.42522   0.85252   0.00000  Uiso   1.00
C869   C     0.83322   0.57928   0.74999   0.00000  Uiso   1.00
C870   C     0.81358   0.48450   0.98820   0.00000  Uiso   1.00
C871   C     0.82896   0.48067   0.93311   0.00000  Uiso   1.00
C872   C     0.84966   0.49155   0.51401   0.00000  Uiso   1.00
C873   C     0.89889   0.49733   0.98406   0.00000  Uiso   1.00
C874   C     0.91372   0.48651   0.93155   0.00000  Uiso   1.00
C875   C     0.87937   0.47346   0.90807   0.00000  Uiso   1.00
C876   C     0.83872   0.49296   0.56826   0.00000  Uiso   1.00
C877   C     0.92166   0.51444   0.56175   0.00000  Uiso   1.00
C878   C     0.79359   0.48480   0.90562   0.00000  Uiso   1.00
C879   C     0.87615   0.64499   0.74816   0.00000  Uiso   1.00
C880   C     0.80768   0.49495   0.84946   0.00000  Uiso   1.00
C881   C     0.87631   0.35421   0.74802   0.00000  Uiso   1.00
C882   C     0.83354   0.37607   0.74962   0.00000  Uiso   1.00
C883   C     0.79062   0.35499   0.75114   0.00000  Uiso   1.00
C884   C     0.79046   0.64574   0.75122   0.00000  Uiso   1.00
C885   C     0.83322   0.62390   0.74979   0.00000  Uiso   1.00
C886   C     0.96597   0.52625   0.78177   0.00000  Uiso   1.00
C887   C     0.68217   0.52618   0.78182   0.00000  Uiso   1.00
C888   C     0.70128   0.47377   0.71857   0.00000  Uiso   1.00
C889   C     0.98544   0.47341   0.71803   0.00000  Uiso   1.00
C890   C     0.83350   0.42071   0.74977   0.00000  Uiso   1.00
C891   C     0.85950   0.50145   0.64992   0.00000  Uiso   1.00
C892   C     0.93356   0.51064   0.50758   0.00000  Uiso   1.00
C893   C     0.87435   0.50286   0.59257   0.00000  Uiso   1.00
C894   C     0.74380   0.48187   0.93332   0.00000  Uiso   1.00
C895   C     0.72909   0.47841   0.98719   0.00000  Uiso   1.00
C896   C     0.76298   0.48187   0.51471   0.00000  Uiso   1.00
Cu897  Cu    0.78645   0.49999   0.75000   0.00000  Uiso   1.00
Cu898  Cu    0.88022   0.50001   0.75000   0.00000  Uiso   1.00
H899   H     0.90983   0.36986   0.74676   0.00000  Uiso   1.00
H900   H     0.75713   0.37129   0.75235   0.00000  Uiso   1.00
H901   H     0.75692   0.63003   0.75250   0.00000  Uiso   1.00
H902   H     0.93997   0.54724   0.80732   0.00000  Uiso   1.00
H903   H     0.69338   0.54717   0.80738   0.00000  Uiso   1.00
H904   H     0.72800   0.45287   0.69363   0.00000  Uiso   1.00
H905   H     0.95236   0.48381   0.91046   0.00000  Uiso   1.00
H906   H     0.97009   0.51788   0.98337   0.00000  Uiso   1.00
H907   H     0.80279   0.48502   0.59248   0.00000  Uiso   1.00
H908   H     0.71605   0.48263   0.91342   0.00000  Uiso   1.00
H909   H     0.74822   0.48265   0.55650   0.00000  Uiso   1.00
H910   H     0.69086   0.47477   0.50817   0.00000  Uiso   1.00
H911   H     0.90965   0.62870   0.74697   0.00000  Uiso   1.00
N912   N     0.71598   0.49999   0.74999   0.00000  Uiso   1.00
N913   N     0.95069   0.50002   0.75000   0.00000  Uiso   1.00
O914   O     0.79375   0.56011   0.75001   0.00000  Uiso   1.00
O915   O     0.87294   0.56012   0.75001   0.00000  Uiso   1.00
O916   O     0.77441   0.49998   0.82549   0.00000  Uiso   1.00
O917   O     0.85360   0.49999   0.82549   0.00000  Uiso   1.00
O918   O     0.79373   0.43988   0.75000   0.00000  Uiso   1.00
O919   O     0.87292   0.43989   0.75000   0.00000  Uiso   1.00
O920   O     0.81306   0.50001   0.67451   0.00000  Uiso   1.00
O921   O     0.89225   0.50002   0.67451   0.00000  Uiso   1.00
C922   C     0.95950   0.53129   0.58496   0.00000  Uiso   1.00
H923   H     0.97310   0.50665   0.60542   0.00000  Uiso   1.00
H924   H     0.99151   0.54367   0.55461   0.00000  Uiso   1.00
H925   H     0.94344   0.55694   0.61245   0.00000  Uiso   1.00
C926   C     0.97496   0.44198   0.68142   0.00000  Uiso   1.00
H927   H     0.93854   0.44335   0.67662   0.00000  Uiso   1.00
H928   H     0.66782   0.44577   0.64195   0.00000  Uiso   1.00
H929   H     0.98050   0.41067   0.69501   0.00000  Uiso   1.00
I930   I     0.90459   0.42522   0.85252   0.00000  Uiso   1.00
C931   C     0.16655   0.91261   0.74999   0.00000  Uiso   1.00
C932   C     0.14692   0.81784   0.98820   0.00000  Uiso   1.00
C933   C     0.16229   0.81400   0.93311   0.00000  Uiso   1.00
C934   C     0.18299   0.82489   0.51401   0.00000  Uiso   1.00
C935   C     0.23222   0.83066   0.98406   0.00000  Uiso   1.00
C936   C     0.24706   0.81985   0.93155   0.00000  Uiso   1.00
C937   C     0.21270   0.80679   0.90807   0.00000  Uiso   1.00
C938   C     0.17205   0.82630   0.56826   0.00000  Uiso   1.00
C939   C     0.25499   0.84777   0.56175   0.00000  Uiso   1.00
C940   C     0.12692   0.81814   0.90562   0.00000  Uiso   1.00
C941   C     0.20949   0.97832   0.74816   0.00000  Uiso   1.00
C942   C     0.14101   0.82829   0.84946   0.00000  Uiso   1.00
C943   C     0.20964   0.68754   0.74802   0.00000  Uiso   1.00
C944   C     0.16687   0.70941   0.74962   0.00000  Uiso   1.00
C945   C     0.12395   0.68832   0.75114   0.00000  Uiso   1.00
C946   C     0.12380   0.97908   0.75122   0.00000  Uiso   1.00
C947   C     0.16655   0.95724   0.74979   0.00000  Uiso   1.00
C948   C     0.29930   0.85958   0.78177   0.00000  Uiso   1.00
C949   C     0.01550   0.85951   0.78182   0.00000  Uiso   1.00
C950   C     0.03461   0.80710   0.71857   0.00000  Uiso   1.00
C951   C     0.31877   0.80674   0.71803   0.00000  Uiso   1.00
C952   C     0.16683   0.75404   0.74977   0.00000  Uiso   1.00
C953   C     0.19284   0.83479   0.64992   0.00000  Uiso   1.00
C954   C     0.26690   0.84397   0.50758   0.00000  Uiso   1.00
C955   C     0.20768   0.83619   0.59257   0.00000  Uiso   1.00
C956   C     0.07713   0.81520   0.93332   0.00000  Uiso   1.00
C957   C     0.06242   0.81174   0.98719   0.00000  Uiso   1.00
C958   C     0.09631   0.81520   0.51471   0.00000  Uiso   1.00
Cu959  Cu    0.11978   0.83333   0.75000   0.00000  Uiso   1.00
Cu960  Cu    0.21355   0.83334   0.75000   0.00000  Uiso   1.00
H961   H     0.24317   0.70319   0.74676   0.00000  Uiso   1.00
H962   H     0.09046   0.70463   0.75235   0.00000  Uiso   1.00
H963   H     0.09025   0.96337   0.75250   0.00000  Uiso   1.00
H964   H     0.27330   0.88058   0.80732   0.00000  Uiso   1.00
H965   H     0.02672   0.88050   0.80738   0.00000  Uiso   1.00
H966   H     0.06133   0.78620   0.69363   0.00000  Uiso   1.00
H967   H     0.28569   0.81714   0.91046   0.00000  Uiso   1.00
H968   H     0.30342   0.85122   0.98337   0.00000  Uiso   1.00
H969   H     0.13612   0.81835   0.59248   0.00000  Uiso   1.00
H970   H     0.04938   0.81597   0.91342   0.00000  Uiso   1.00
H971   H     0.08155   0.81598   0.55650   0.00000  Uiso   1.00
H972   H     0.02419   0.80810   0.50817   0.00000  Uiso   1.00
H973   H     0.24298   0.96203   0.74697   0.00000  Uiso   1.00
N974   N     0.04931   0.83332   0.74999   0.00000  Uiso   1.00
N975   N     0.28402   0.83335   0.75000   0.00000  Uiso   1.00
O976   O     0.12708   0.89345   0.75001   0.00000  Uiso   1.00
O977   O     0.20627   0.89346   0.75001   0.00000  Uiso   1.00
O978   O     0.10775   0.83332   0.82549   0.00000  Uiso   1.00
O979   O     0.18694   0.83333   0.82549   0.00000  Uiso   1.00
O980   O     0.12706   0.77321   0.75000   0.00000  Uiso   1.00
O981   O     0.20625   0.77322   0.75000   0.00000  Uiso   1.00
O982   O     0.14640   0.83334   0.67451   0.00000  Uiso   1.00
O983   O     0.22559   0.83335   0.67451   0.00000  Uiso   1.00
C984   C     0.29283   0.86463   0.58496   0.00000  Uiso   1.00
H985   H     0.30643   0.83998   0.60542   0.00000  Uiso   1.00
H986   H     0.32484   0.87700   0.55461   0.00000  Uiso   1.00
H987   H     0.27677   0.89027   0.61245   0.00000  Uiso   1.00
C988   C     0.30829   0.77532   0.68142   0.00000  Uiso   1.00
H989   H     0.27188   0.77668   0.67662   0.00000  Uiso   1.00
H990   H     0.00115   0.77911   0.64195   0.00000  Uiso   1.00
H991   H     0.31384   0.74401   0.69501   0.00000  Uiso   1.00
I992   I     0.23793   0.75855   0.85252   0.00000  Uiso   1.00
C993   C     0.49989   0.91261   0.74999   0.00000  Uiso   1.00
C994   C     0.48025   0.81784   0.98820   0.00000  Uiso   1.00
C995   C     0.49562   0.81400   0.93311   0.00000  Uiso   1.00
C996   C     0.51632   0.82489   0.51401   0.00000  Uiso   1.00
C997   C     0.56556   0.83066   0.98406   0.00000  Uiso   1.00
C998   C     0.58039   0.81985   0.93155   0.00000  Uiso   1.00
C999   C     0.54603   0.80679   0.90807   0.00000  Uiso   1.00
C1000  C     0.50539   0.82630   0.56826   0.00000  Uiso   1.00
C1001  C     0.58832   0.84777   0.56175   0.00000  Uiso   1.00
C1002  C     0.46025   0.81814   0.90562   0.00000  Uiso   1.00
C1003  C     0.54282   0.97832   0.74816   0.00000  Uiso   1.00
C1004  C     0.47434   0.82829   0.84946   0.00000  Uiso   1.00
C1005  C     0.54297   0.68754   0.74802   0.00000  Uiso   1.00
C1006  C     0.50021   0.70941   0.74962   0.00000  Uiso   1.00
C1007  C     0.45729   0.68832   0.75114   0.00000  Uiso   1.00
C1008  C     0.45713   0.97908   0.75122   0.00000  Uiso   1.00
C1009  C     0.49988   0.95724   0.74979   0.00000  Uiso   1.00
C1010  C     0.63264   0.85958   0.78177   0.00000  Uiso   1.00
C1011  C     0.34884   0.85951   0.78182   0.00000  Uiso   1.00
C1012  C     0.36795   0.80710   0.71857   0.00000  Uiso   1.00
C1013  C     0.65210   0.80674   0.71803   0.00000  Uiso   1.00
C1014  C     0.50016   0.75404   0.74977   0.00000  Uiso   1.00
C1015  C     0.52617   0.83479   0.64992   0.00000  Uiso   1.00
C1016  C     0.60023   0.84397   0.50758   0.00000  Uiso   1.00
C1017  C     0.54102   0.83619   0.59257   0.00000  Uiso   1.00
C1018  C     0.41046   0.81520   0.93332   0.00000  Uiso   1.00
C1019  C     0.39575   0.81174   0.98719   0.00000  Uiso   1.00
C1020  C     0.42965   0.81520   0.51471   0.00000  Uiso   1.00
Cu1021 Cu    0.45311   0.83333   0.75000   0.00000  Uiso   1.00
Cu1022 Cu    0.54689   0.83334   0.75000   0.00000  Uiso   1.00
H1023  H     0.57650   0.70319   0.74676   0.00000  Uiso   1.00
H1024  H     0.42379   0.70463   0.75235   0.00000  Uiso   1.00
H1025  H     0.42359   0.96337   0.75250   0.00000  Uiso   1.00
H1026  H     0.60664   0.88058   0.80732   0.00000  Uiso   1.00
H1027  H     0.36005   0.88050   0.80738   0.00000  Uiso   1.00
H1028  H     0.39466   0.78620   0.69363   0.00000  Uiso   1.00
H1029  H     0.61902   0.81714   0.91046   0.00000  Uiso   1.00
H1030  H     0.63675   0.85122   0.98337   0.00000  Uiso   1.00
H1031  H     0.46946   0.81835   0.59248   0.00000  Uiso   1.00
H1032  H     0.38272   0.81597   0.91342   0.00000  Uiso   1.00
H1033  H     0.41489   0.81598   0.55650   0.00000  Uiso   1.00
H1034  H     0.35753   0.80810   0.50817   0.00000  Uiso   1.00
H1035  H     0.57632   0.96203   0.74697   0.00000  Uiso   1.00
N1036  N     0.38265   0.83332   0.74999   0.00000  Uiso   1.00
N1037  N     0.61735   0.83335   0.75000   0.00000  Uiso   1.00
O1038  O     0.46042   0.89345   0.75001   0.00000  Uiso   1.00
O1039  O     0.53961   0.89346   0.75001   0.00000  Uiso   1.00
O1040  O     0.44108   0.83332   0.82549   0.00000  Uiso   1.00
O1041  O     0.52027   0.83333   0.82549   0.00000  Uiso   1.00
O1042  O     0.46039   0.77321   0.75000   0.00000  Uiso   1.00
O1043  O     0.53958   0.77322   0.75000   0.00000  Uiso   1.00
O1044  O     0.47973   0.83334   0.67451   0.00000  Uiso   1.00
O1045  O     0.55892   0.83335   0.67451   0.00000  Uiso   1.00
C1046  C     0.62616   0.86463   0.58496   0.00000  Uiso   1.00
H1047  H     0.63977   0.83998   0.60542   0.00000  Uiso   1.00
H1048  H     0.65818   0.87700   0.55461   0.00000  Uiso   1.00
H1049  H     0.61010   0.89027   0.61245   0.00000  Uiso   1.00
C1050  C     0.64163   0.77532   0.68142   0.00000  Uiso   1.00
H1051  H     0.60521   0.77668   0.67662   0.00000  Uiso   1.00
H1052  H     0.33448   0.77911   0.64195   0.00000  Uiso   1.00
H1053  H     0.64717   0.74401   0.69501   0.00000  Uiso   1.00
I1054  I     0.57126   0.75855   0.85252   0.00000  Uiso   1.00
C1055  C     0.83322   0.91261   0.74999   0.00000  Uiso   1.00
C1056  C     0.81358   0.81784   0.98820   0.00000  Uiso   1.00
C1057  C     0.82896   0.81400   0.93311   0.00000  Uiso   1.00
C1058  C     0.84966   0.82489   0.51401   0.00000  Uiso   1.00
C1059  C     0.89889   0.83066   0.98406   0.00000  Uiso   1.00
C1060  C     0.91372   0.81985   0.93155   0.00000  Uiso   1.00
C1061  C     0.87937   0.80679   0.90807   0.00000  Uiso   1.00
C1062  C     0.83872   0.82630   0.56826   0.00000  Uiso   1.00
C1063  C     0.92166   0.84777   0.56175   0.00000  Uiso   1.00
C1064  C     0.79359   0.81814   0.90562   0.00000  Uiso   1.00
C1065  C     0.87615   0.97832   0.74816   0.00000  Uiso   1.00
C1066  C     0.80768   0.82829   0.84946   0.00000  Uiso   1.00
C1067  C     0.87631   0.68754   0.74802   0.00000  Uiso   1.00
C1068  C     0.83354   0.70941   0.74962   0.00000  Uiso   1.00
C1069  C     0.79062   0.68832   0.75114   0.00000  Uiso   1.00
C1070  C     0.79046   0.97908   0.75122   0.00000  Uiso   1.00
C1071  C     0.83322   0.95724   0.74979   0.00000  Uiso   1.00
C1072  C     0.96597   0.85958   0.78177   0.00000  Uiso   1.00
C1073  C     0.68217   0.85951   0.78182   0.00000  Uiso   1.00
C1074  C     0.70128   0.80710   0.71857   0.00000  Uiso   1.00
C1075  C     0.98544   0.80674   0.71803   0.00000  Uiso   1.00
C1076  C     0.83350   0.75404   0.74977   0.00000  Uiso   1.00
C1077  C     0.85950   0.83479   0.64992   0.00000  Uiso   1.00
C1078  C     0.93356   0.84397   0.50758   0.00000  Uiso   1.00
C1079  C     0.87435   0.83619   0.59257   0.00000  Uiso   1.00
C1080  C     0.74380   0.81520   0.93332   0.00000  Uiso   1.00
C1081  C     0.72909   0.81174   0.98719   0.00000  Uiso   1.00
C1082  C     0.76298   0.81520   0.51471   0.00000  Uiso   1.00
Cu1083 Cu    0.78645   0.83333   0.75000   0.00000  Uiso   1.00
Cu1084 Cu    0.88022   0.83334   0.75000   0.00000  Uiso   1.00
H1085  H     0.90983   0.70319   0.74676   0.00000  Uiso   1.00
H1086  H     0.75713   0.70463   0.75235   0.00000  Uiso   1.00
H1087  H     0.75692   0.96337   0.75250   0.00000  Uiso   1.00
H1088  H     0.93997   0.88058   0.80732   0.00000  Uiso   1.00
H1089  H     0.69338   0.88050   0.80738   0.00000  Uiso   1.00
H1090  H     0.72800   0.78620   0.69363   0.00000  Uiso   1.00
H1091  H     0.95236   0.81714   0.91046   0.00000  Uiso   1.00
H1092  H     0.97009   0.85122   0.98337   0.00000  Uiso   1.00
H1093  H     0.80279   0.81835   0.59248   0.00000  Uiso   1.00
H1094  H     0.71605   0.81597   0.91342   0.00000  Uiso   1.00
H1095  H     0.74822   0.81598   0.55650   0.00000  Uiso   1.00
H1096  H     0.69086   0.80810   0.50817   0.00000  Uiso   1.00
H1097  H     0.90965   0.96203   0.74697   0.00000  Uiso   1.00
N1098  N     0.71598   0.83332   0.74999   0.00000  Uiso   1.00
N1099  N     0.95069   0.83335   0.75000   0.00000  Uiso   1.00
O1100  O     0.79375   0.89345   0.75001   0.00000  Uiso   1.00
O1101  O     0.87294   0.89346   0.75001   0.00000  Uiso   1.00
O1102  O     0.77441   0.83332   0.82549   0.00000  Uiso   1.00
O1103  O     0.85360   0.83333   0.82549   0.00000  Uiso   1.00
O1104  O     0.79373   0.77321   0.75000   0.00000  Uiso   1.00
O1105  O     0.87292   0.77322   0.75000   0.00000  Uiso   1.00
O1106  O     0.81306   0.83334   0.67451   0.00000  Uiso   1.00
O1107  O     0.89225   0.83335   0.67451   0.00000  Uiso   1.00
C1108  C     0.95950   0.86463   0.58496   0.00000  Uiso   1.00
H1109  H     0.97310   0.83998   0.60542   0.00000  Uiso   1.00
H1110  H     0.99151   0.87700   0.55461   0.00000  Uiso   1.00
H1111  H     0.94344   0.89027   0.61245   0.00000  Uiso   1.00
C1112  C     0.97496   0.77532   0.68142   0.00000  Uiso   1.00
H1113  H     0.93854   0.77668   0.67662   0.00000  Uiso   1.00
H1114  H     0.66782   0.77911   0.64195   0.00000  Uiso   1.00
H1115  H     0.98050   0.74401   0.69501   0.00000  Uiso   1.00
I1116  I     0.90459   0.75855   0.85252   0.00000  Uiso   1.00
loop_
_geom_bond_atom_site_label_1
_geom_bond_atom_site_label_2
_geom_bond_distance
_geom_bond_site_symmetry_2
_ccdc_geom_bond_type
C1     C17     1.450   .     S
C1     O47     1.292   .     A
C1     O46     1.295   .     A
C2     C3      1.419   .     A
C2     C562    1.426   .     S
C2     C586    1.415   .     S
C3     C10     1.428   .     A
C3     C7      1.415   .     A
C4     C8      1.400   .     A
C4     C560    1.426   1_554 S
C4     C563    1.414   1_554 S
C5     C6      1.390   .     A
C5     C562    1.414   .     S
C5     C582    1.397   .     S
C6     C7      1.386   .     A
C6     H37     1.084   .     S
C7     I62     2.124   .     S
C8     H39     1.076   .     S
C8     C25     1.405   .     A
C9     C25     1.417   .     A
C9     C24     1.399   .     A
C9     C54     1.508   .     S
C10    C26     1.402   .     A
C10    C12     1.485   .     S
C11    H43     1.083   .     S
C11    C17     1.402   .     A
C11    C199    1.383   .     S
C12    O48     1.310   .     A
C12    O49     1.293   .     A
C13    C14     1.400   .     A
C13    H31     1.082   .     S
C13    C383    1.383   1_545 S
C14    C22     1.451   .     S
C14    C15     1.403   .     A
C15    H32     1.083   .     S
C15    C388    1.384   1_545 S
C16    H33     1.083   .     S
C16    C17     1.400   .     A
C16    C201    1.384   .     S
C18    H34     1.082   .     S
C18    N45     1.367   .     A
C18    C81     1.419   .     S
C19    H35     1.082   .     S
C19    N44     1.369   .     A
C19    C142    1.419   1_455 S
C20    N44     1.351   .     A
C20    H36     1.083   .     S
C20    C145    1.413   1_455 S
C21    C58     1.506   .     S
C21    N45     1.393   .     A
C21    C82     1.413   .     S
C22    O50     1.292   .     A
C22    O51     1.296   .     A
C23    O52     1.298   .     A
C23    O53     1.300   .     A
C23    C25     1.475   .     S
C24    C563    1.397   1_554 S
C24    H596    1.083   1_554 S
C26    C27     1.390   .     A
C26    H40     1.083   .     S
C27    C586    1.390   .     S
C27    H600    1.079   .     S
C28    H41     1.077   .     S
C28    C585    1.390   1_554 S
C28    C560    1.415   1_554 S
Cu29   O46     1.967   .     S
Cu29   Cu30    2.685   .     S
Cu29   O50     1.963   .     S
Cu29   N44     2.018   .     S
Cu29   O48     1.957   .     S
Cu29   O52     1.946   .     S
Cu30   O51     1.967   .     S
Cu30   N45     2.018   .     S
Cu30   O49     1.946   .     S
Cu30   O53     1.957   .     S
Cu30   O47     1.963   .     S
H38    C582    1.083   .     S
H42    C585    1.079   1_554 S
C54    H57     1.111   .     S
C54    H56     1.111   .     S
C54    H55     1.108   .     S
C58    H61     1.110   .     S
C58    H59     1.089   .     S
C58    H122    1.111   .     S
H60    C182    1.111   1_455 S
C63    C79     1.450   .     S
C63    O109    1.292   .     A
C63    O108    1.295   .     A
C64    C65     1.419   .     A
C64    C624    1.426   .     S
C64    C648    1.415   .     S
C65    C72     1.428   .     A
C65    C69     1.415   .     A
C66    C70     1.400   .     A
C66    C622    1.426   1_554 S
C66    C625    1.414   1_554 S
C67    C68     1.390   .     A
C67    C624    1.414   .     S
C67    C644    1.397   .     S
C68    C69     1.386   .     A
C68    H99     1.084   .     S
C69    I124    2.124   .     S
C70    H101    1.076   .     S
C70    C87     1.405   .     A
C71    C87     1.417   .     A
C71    C86     1.399   .     A
C71    C116    1.508   .     S
C72    C88     1.402   .     A
C72    C74     1.485   .     S
C73    H105    1.083   .     S
C73    C79     1.402   .     A
C73    C261    1.383   .     S
C74    O110    1.310   .     A
C74    O111    1.293   .     A
C75    C76     1.400   .     A
C75    H93     1.082   .     S
C75    C445    1.383   1_545 S
C76    C84     1.451   .     S
C76    C77     1.403   .     A
C77    H94     1.083   .     S
C77    C450    1.384   1_545 S
C78    H95     1.083   .     S
C78    C79     1.400   .     A
C78    C263    1.384   .     S
C80    H96     1.082   .     S
C80    N107    1.367   .     A
C80    C143    1.419   .     S
C81    H97     1.082   .     S
C81    N106    1.369   .     A
C82    N106    1.351   .     A
C82    H98     1.083   .     S
C83    C120    1.506   .     S
C83    N107    1.393   .     A
C83    C144    1.413   .     S
C84    O112    1.292   .     A
C84    O113    1.296   .     A
C85    O114    1.298   .     A
C85    O115    1.300   .     A
C85    C87     1.475   .     S
C86    C625    1.397   1_554 S
C86    H658    1.083   1_554 S
C88    C89     1.390   .     A
C88    H102    1.083   .     S
C89    C648    1.390   .     S
C89    H662    1.079   .     S
C90    H103    1.077   .     S
C90    C647    1.390   1_554 S
C90    C622    1.415   1_554 S
Cu91   O108    1.967   .     S
Cu91   Cu92    2.685   .     S
Cu91   O112    1.963   .     S
Cu91   N106    2.018   .     S
Cu91   O110    1.957   .     S
Cu91   O114    1.946   .     S
Cu92   O113    1.967   .     S
Cu92   N107    2.018   .     S
Cu92   O111    1.946   .     S
Cu92   O115    1.957   .     S
Cu92   O109    1.963   .     S
H100   C644    1.083   .     S
H104   C647    1.079   1_554 S
C116   H119    1.111   .     S
C116   H118    1.111   .     S
C116   H117    1.108   .     S
C120   H123    1.110   .     S
C120   H121    1.089   .     S
C120   H184    1.111   .     S
C125   C141    1.450   .     S
C125   O171    1.292   .     A
C125   O170    1.295   .     A
C126   C127    1.419   .     A
C126   C686    1.426   .     S
C126   C710    1.415   .     S
C127   C134    1.428   .     A
C127   C131    1.415   .     A
C128   C132    1.400   .     A
C128   C684    1.426   1_554 S
C128   C687    1.414   1_554 S
C129   C130    1.390   .     A
C129   C686    1.414   .     S
C129   C706    1.397   .     S
C130   C131    1.386   .     A
C130   H161    1.084   .     S
C131   I186    2.124   .     S
C132   H163    1.076   .     S
C132   C149    1.405   .     A
C133   C149    1.417   .     A
C133   C148    1.399   .     A
C133   C178    1.508   .     S
C134   C150    1.402   .     A
C134   C136    1.485   .     S
C135   H167    1.083   .     S
C135   C141    1.402   .     A
C135   C323    1.383   .     S
C136   O172    1.310   .     A
C136   O173    1.293   .     A
C137   C138    1.400   .     A
C137   H155    1.082   .     S
C137   C507    1.383   1_545 S
C138   C146    1.451   .     S
C138   C139    1.403   .     A
C139   H156    1.083   .     S
C139   C512    1.384   1_545 S
C140   H157    1.083   .     S
C140   C141    1.400   .     A
C140   C325    1.384   .     S
C142   H158    1.082   .     S
C142   N169    1.367   .     A
C142   C19     1.419   1_655 S
C143   H159    1.082   .     S
C143   N168    1.369   .     A
C144   N168    1.351   .     A
C144   H160    1.083   .     S
C145   C182    1.506   .     S
C145   N169    1.393   .     A
C145   C20     1.413   1_655 S
C146   O174    1.292   .     A
C146   O175    1.296   .     A
C147   O176    1.298   .     A
C147   O177    1.300   .     A
C147   C149    1.475   .     S
C148   C687    1.397   1_554 S
C148   H720    1.083   1_554 S
C150   C151    1.390   .     A
C150   H164    1.083   .     S
C151   C710    1.390   .     S
C151   H724    1.079   .     S
C152   H165    1.077   .     S
C152   C709    1.390   1_554 S
C152   C684    1.415   1_554 S
Cu153  O170    1.967   .     S
Cu153  Cu154   2.685   .     S
Cu153  O174    1.963   .     S
Cu153  N168    2.018   .     S
Cu153  O172    1.957   .     S
Cu153  O176    1.946   .     S
Cu154  O175    1.967   .     S
Cu154  N169    2.018   .     S
Cu154  O173    1.946   .     S
Cu154  O177    1.957   .     S
Cu154  O171    1.963   .     S
H162   C706    1.083   .     S
H166   C709    1.079   1_554 S
C178   H181    1.111   .     S
C178   H180    1.111   .     S
C178   H179    1.108   .     S
C182   H185    1.110   .     S
C182   H183    1.089   .     S
C182   H60     1.111   1_655 S
C187   C203    1.450   .     S
C187   O233    1.292   .     A
C187   O232    1.295   .     A
C188   C189    1.419   .     A
C188   C748    1.426   .     S
C188   C772    1.415   .     S
C189   C196    1.428   .     A
C189   C193    1.415   .     A
C190   C194    1.400   .     A
C190   C746    1.426   1_554 S
C190   C749    1.414   1_554 S
C191   C192    1.390   .     A
C191   C748    1.414   .     S
C191   C768    1.397   .     S
C192   C193    1.386   .     A
C192   H223    1.084   .     S
C193   I248    2.124   .     S
C194   H225    1.076   .     S
C194   C211    1.405   .     A
C195   C211    1.417   .     A
C195   C210    1.399   .     A
C195   C240    1.508   .     S
C196   C212    1.402   .     A
C196   C198    1.485   .     S
C197   H229    1.083   .     S
C197   C203    1.402   .     A
C197   C385    1.383   .     S
C198   O234    1.310   .     A
C198   O235    1.293   .     A
C199   C200    1.400   .     A
C199   H217    1.082   .     S
C200   C208    1.451   .     S
C200   C201    1.403   .     A
C201   H218    1.083   .     S
C202   H219    1.083   .     S
C202   C203    1.400   .     A
C202   C387    1.384   .     S
C204   H220    1.082   .     S
C204   N231    1.367   .     A
C204   C267    1.419   .     S
C205   H221    1.082   .     S
C205   N230    1.369   .     A
C205   C328    1.419   1_455 S
C206   N230    1.351   .     A
C206   H222    1.083   .     S
C206   C331    1.413   1_455 S
C207   C244    1.506   .     S
C207   N231    1.393   .     A
C207   C268    1.413   .     S
C208   O236    1.292   .     A
C208   O237    1.296   .     A
C209   O238    1.298   .     A
C209   O239    1.300   .     A
C209   C211    1.475   .     S
C210   C749    1.397   1_554 S
C210   H782    1.083   1_554 S
C212   C213    1.390   .     A
C212   H226    1.083   .     S
C213   C772    1.390   .     S
C213   H786    1.079   .     S
C214   H227    1.077   .     S
C214   C771    1.390   1_554 S
C214   C746    1.415   1_554 S
Cu215  O232    1.967   .     S
Cu215  Cu216   2.685   .     S
Cu215  O236    1.963   .     S
Cu215  N230    2.018   .     S
Cu215  O234    1.957   .     S
Cu215  O238    1.946   .     S
Cu216  O237    1.967   .     S
Cu216  N231    2.018   .     S
Cu216  O235    1.946   .     S
Cu216  O239    1.957   .     S
Cu216  O233    1.963   .     S
H224   C768    1.083   .     S
H228   C771    1.079   1_554 S
C240   H243    1.111   .     S
C240   H242    1.111   .     S
C240   H241    1.108   .     S
C244   H247    1.110   .     S
C244   H245    1.089   .     S
C244   H308    1.111   .     S
H246   C368    1.111   1_455 S
C249   C265    1.450   .     S
C249   O295    1.292   .     A
C249   O294    1.295   .     A
C250   C251    1.419   .     A
C250   C810    1.426   .     S
C250   C834    1.415   .     S
C251   C258    1.428   .     A
C251   C255    1.415   .     A
C252   C256    1.400   .     A
C252   C808    1.426   1_554 S
C252   C811    1.414   1_554 S
C253   C254    1.390   .     A
C253   C810    1.414   .     S
C253   C830    1.397   .     S
C254   C255    1.386   .     A
C254   H285    1.084   .     S
C255   I310    2.124   .     S
C256   H287    1.076   .     S
C256   C273    1.405   .     A
C257   C273    1.417   .     A
C257   C272    1.399   .     A
C257   C302    1.508   .     S
C258   C274    1.402   .     A
C258   C260    1.485   .     S
C259   H291    1.083   .     S
C259   C265    1.402   .     A
C259   C447    1.383   .     S
C260   O296    1.310   .     A
C260   O297    1.293   .     A
C261   C262    1.400   .     A
C261   H279    1.082   .     S
C262   C270    1.451   .     S
C262   C263    1.403   .     A
C263   H280    1.083   .     S
C264   H281    1.083   .     S
C264   C265    1.400   .     A
C264   C449    1.384   .     S
C266   H282    1.082   .     S
C266   N293    1.367   .     A
C266   C329    1.419   .     S
C267   H283    1.082   .     S
C267   N292    1.369   .     A
C268   N292    1.351   .     A
C268   H284    1.083   .     S
C269   C306    1.506   .     S
C269   N293    1.393   .     A
C269   C330    1.413   .     S
C270   O298    1.292   .     A
C270   O299    1.296   .     A
C271   O300    1.298   .     A
C271   O301    1.300   .     A
C271   C273    1.475   .     S
C272   C811    1.397   1_554 S
C272   H844    1.083   1_554 S
C274   C275    1.390   .     A
C274   H288    1.083   .     S
C275   C834    1.390   .     S
C275   H848    1.079   .     S
C276   H289    1.077   .     S
C276   C833    1.390   1_554 S
C276   C808    1.415   1_554 S
Cu277  O294    1.967   .     S
Cu277  Cu278   2.685   .     S
Cu277  O298    1.963   .     S
Cu277  N292    2.018   .     S
Cu277  O296    1.957   .     S
Cu277  O300    1.946   .     S
Cu278  O299    1.967   .     S
Cu278  N293    2.018   .     S
Cu278  O297    1.946   .     S
Cu278  O301    1.957   .     S
Cu278  O295    1.963   .     S
H286   C830    1.083   .     S
H290   C833    1.079   1_554 S
C302   H305    1.111   .     S
C302   H304    1.111   .     S
C302   H303    1.108   .     S
C306   H309    1.110   .     S
C306   H307    1.089   .     S
C306   H370    1.111   .     S
C311   C327    1.450   .     S
C311   O357    1.292   .     A
C311   O356    1.295   .     A
C312   C313    1.419   .     A
C312   C872    1.426   .     S
C312   C896    1.415   .     S
C313   C320    1.428   .     A
C313   C317    1.415   .     A
C314   C318    1.400   .     A
C314   C870    1.426   1_554 S
C314   C873    1.414   1_554 S
C315   C316    1.390   .     A
C315   C872    1.414   .     S
C315   C892    1.397   .     S
C316   C317    1.386   .     A
C316   H347    1.084   .     S
C317   I372    2.124   .     S
C318   H349    1.076   .     S
C318   C335    1.405   .     A
C319   C335    1.417   .     A
C319   C334    1.399   .     A
C319   C364    1.508   .     S
C320   C336    1.402   .     A
C320   C322    1.485   .     S
C321   H353    1.083   .     S
C321   C327    1.402   .     A
C321   C509    1.383   .     S
C322   O358    1.310   .     A
C322   O359    1.293   .     A
C323   C324    1.400   .     A
C323   H341    1.082   .     S
C324   C332    1.451   .     S
C324   C325    1.403   .     A
C325   H342    1.083   .     S
C326   H343    1.083   .     S
C326   C327    1.400   .     A
C326   C511    1.384   .     S
C328   H344    1.082   .     S
C328   N355    1.367   .     A
C328   C205    1.419   1_655 S
C329   H345    1.082   .     S
C329   N354    1.369   .     A
C330   N354    1.351   .     A
C330   H346    1.083   .     S
C331   C368    1.506   .     S
C331   N355    1.393   .     A
C331   C206    1.413   1_655 S
C332   O360    1.292   .     A
C332   O361    1.296   .     A
C333   O362    1.298   .     A
C333   O363    1.300   .     A
C333   C335    1.475   .     S
C334   C873    1.397   1_554 S
C334   H906    1.083   1_554 S
C336   C337    1.390   .     A
C336   H350    1.083   .     S
C337   C896    1.390   .     S
C337   H910    1.079   .     S
C338   H351    1.077   .     S
C338   C895    1.390   1_554 S
C338   C870    1.415   1_554 S
Cu339  O356    1.967   .     S
Cu339  Cu340   2.685   .     S
Cu339  O360    1.963   .     S
Cu339  N354    2.018   .     S
Cu339  O358    1.957   .     S
Cu339  O362    1.946   .     S
Cu340  O361    1.967   .     S
Cu340  N355    2.018   .     S
Cu340  O359    1.946   .     S
Cu340  O363    1.957   .     S
Cu340  O357    1.963   .     S
H348   C892    1.083   .     S
H352   C895    1.079   1_554 S
C364   H367    1.111   .     S
C364   H366    1.111   .     S
C364   H365    1.108   .     S
C368   H371    1.110   .     S
C368   H369    1.089   .     S
C368   H246    1.111   1_655 S
C373   C389    1.450   .     S
C373   O419    1.292   .     A
C373   O418    1.295   .     A
C374   C375    1.419   .     A
C374   C934    1.426   .     S
C374   C958    1.415   .     S
C375   C382    1.428   .     A
C375   C379    1.415   .     A
C376   C380    1.400   .     A
C376   C932    1.426   1_554 S
C376   C935    1.414   1_554 S
C377   C378    1.390   .     A
C377   C934    1.414   .     S
C377   C954    1.397   .     S
C378   C379    1.386   .     A
C378   H409    1.084   .     S
C379   I434    2.124   .     S
C380   H411    1.076   .     S
C380   C397    1.405   .     A
C381   C397    1.417   .     A
C381   C396    1.399   .     A
C381   C426    1.508   .     S
C382   C398    1.402   .     A
C382   C384    1.485   .     S
C383   H415    1.083   .     S
C383   C389    1.402   .     A
C383   C13     1.383   1_565 S
C384   O420    1.310   .     A
C384   O421    1.293   .     A
C385   C386    1.400   .     A
C385   H403    1.082   .     S
C386   C394    1.451   .     S
C386   C387    1.403   .     A
C387   H404    1.083   .     S
C388   H405    1.083   .     S
C388   C389    1.400   .     A
C388   C15     1.384   1_565 S
C390   H406    1.082   .     S
C390   N417    1.367   .     A
C390   C453    1.419   .     S
C391   H407    1.082   .     S
C391   N416    1.369   .     A
C391   C514    1.419   1_455 S
C392   N416    1.351   .     A
C392   H408    1.083   .     S
C392   C517    1.413   1_455 S
C393   C430    1.506   .     S
C393   N417    1.393   .     A
C393   C454    1.413   .     S
C394   O422    1.292   .     A
C394   O423    1.296   .     A
C395   O424    1.298   .     A
C395   O425    1.300   .     A
C395   C397    1.475   .     S
C396   C935    1.397   1_554 S
C396   H968    1.083   1_554 S
C398   C399    1.390   .     A
C398   H412    1.083   .     S
C399   C958    1.390   .     S
C399   H972    1.079   .     S
C400   H413    1.077   .     S
C400   C957    1.390   1_554 S
C400   C932    1.415   1_554 S
Cu401  O418    1.967   .     S
Cu401  Cu402   2.685   .     S
Cu401  O422    1.963   .     S
Cu401  N416    2.018   .     S
Cu401  O420    1.957   .     S
Cu401  O424    1.946   .     S
Cu402  O423    1.967   .     S
Cu402  N417    2.018   .     S
Cu402  O421    1.946   .     S
Cu402  O425    1.957   .     S
Cu402  O419    1.963   .     S
H410   C954    1.083   .     S
H414   C957    1.079   1_554 S
C426   H429    1.111   .     S
C426   H428    1.111   .     S
C426   H427    1.108   .     S
C430   H433    1.110   .     S
C430   H431    1.089   .     S
C430   H494    1.111   .     S
H432   C554    1.111   1_455 S
C435   C451    1.450   .     S
C435   O481    1.292   .     A
C435   O480    1.295   .     A
C436   C437    1.419   .     A
C436   C996    1.426   .     S
C436   C1020   1.415   .     S
C437   C444    1.428   .     A
C437   C441    1.415   .     A
C438   C442    1.400   .     A
C438   C994    1.426   1_554 S
C438   C997    1.414   1_554 S
C439   C440    1.390   .     A
C439   C996    1.414   .     S
C439   C1016   1.397   .     S
C440   C441    1.386   .     A
C440   H471    1.084   .     S
C441   I496    2.124   .     S
C442   H473    1.076   .     S
C442   C459    1.405   .     A
C443   C459    1.417   .     A
C443   C458    1.399   .     A
C443   C488    1.508   .     S
C444   C460    1.402   .     A
C444   C446    1.485   .     S
C445   H477    1.083   .     S
C445   C451    1.402   .     A
C445   C75     1.383   1_565 S
C446   O482    1.310   .     A
C446   O483    1.293   .     A
C447   C448    1.400   .     A
C447   H465    1.082   .     S
C448   C456    1.451   .     S
C448   C449    1.403   .     A
C449   H466    1.083   .     S
C450   H467    1.083   .     S
C450   C451    1.400   .     A
C450   C77     1.384   1_565 S
C452   H468    1.082   .     S
C452   N479    1.367   .     A
C452   C515    1.419   .     S
C453   H469    1.082   .     S
C453   N478    1.369   .     A
C454   N478    1.351   .     A
C454   H470    1.083   .     S
C455   C492    1.506   .     S
C455   N479    1.393   .     A
C455   C516    1.413   .     S
C456   O484    1.292   .     A
C456   O485    1.296   .     A
C457   O486    1.298   .     A
C457   O487    1.300   .     A
C457   C459    1.475   .     S
C458   C997    1.397   1_554 S
C458   H1030   1.083   1_554 S
C460   C461    1.390   .     A
C460   H474    1.083   .     S
C461   C1020   1.390   .     S
C461   H1034   1.079   .     S
C462   H475    1.077   .     S
C462   C1019   1.390   1_554 S
C462   C994    1.415   1_554 S
Cu463  O480    1.967   .     S
Cu463  Cu464   2.685   .     S
Cu463  O484    1.963   .     S
Cu463  N478    2.018   .     S
Cu463  O482    1.957   .     S
Cu463  O486    1.946   .     S
Cu464  O485    1.967   .     S
Cu464  N479    2.018   .     S
Cu464  O483    1.946   .     S
Cu464  O487    1.957   .     S
Cu464  O481    1.963   .     S
H472   C1016   1.083   .     S
H476   C1019   1.079   1_554 S
C488   H491    1.111   .     S
C488   H490    1.111   .     S
C488   H489    1.108   .     S
C492   H495    1.110   .     S
C492   H493    1.089   .     S
C492   H556    1.111   .     S
C497   C513    1.450   .     S
C497   O543    1.292   .     A
C497   O542    1.295   .     A
C498   C499    1.419   .     A
C498   C1058   1.426   .     S
C498   C1082   1.415   .     S
C499   C506    1.428   .     A
C499   C503    1.415   .     A
C500   C504    1.400   .     A
C500   C1056   1.426   1_554 S
C500   C1059   1.414   1_554 S
C501   C502    1.390   .     A
C501   C1058   1.414   .     S
C501   C1078   1.397   .     S
C502   C503    1.386   .     A
C502   H533    1.084   .     S
C503   I558    2.124   .     S
C504   H535    1.076   .     S
C504   C521    1.405   .     A
C505   C521    1.417   .     A
C505   C520    1.399   .     A
C505   C550    1.508   .     S
C506   C522    1.402   .     A
C506   C508    1.485   .     S
C507   H539    1.083   .     S
C507   C513    1.402   .     A
C507   C137    1.383   1_565 S
C508   O544    1.310   .     A
C508   O545    1.293   .     A
C509   C510    1.400   .     A
C509   H527    1.082   .     S
C510   C518    1.451   .     S
C510   C511    1.403   .     A
C511   H528    1.083   .     S
C512   H529    1.083   .     S
C512   C513    1.400   .     A
C512   C139    1.384   1_565 S
C514   H530    1.082   .     S
C514   N541    1.367   .     A
C514   C391    1.419   1_655 S
C515   H531    1.082   .     S
C515   N540    1.369   .     A
C516   N540    1.351   .     A
C516   H532    1.083   .     S
C517   C554    1.506   .     S
C517   N541    1.393   .     A
C517   C392    1.413   1_655 S
C518   O546    1.292   .     A
C518   O547    1.296   .     A
C519   O548    1.298   .     A
C519   O549    1.300   .     A
C519   C521    1.475   .     S
C520   C1059   1.397   1_554 S
C520   H1092   1.083   1_554 S
C522   C523    1.390   .     A
C522   H536    1.083   .     S
C523   C1082   1.390   .     S
C523   H1096   1.079   .     S
C524   H537    1.077   .     S
C524   C1081   1.390   1_554 S
C524   C1056   1.415   1_554 S
Cu525  O542    1.967   .     S
Cu525  Cu526   2.685   .     S
Cu525  O546    1.963   .     S
Cu525  N540    2.018   .     S
Cu525  O544    1.957   .     S
Cu525  O548    1.946   .     S
Cu526  O547    1.967   .     S
Cu526  N541    2.018   .     S
Cu526  O545    1.946   .     S
Cu526  O549    1.957   .     S
Cu526  O543    1.963   .     S
H534   C1078   1.083   .     S
H538   C1081   1.079   1_554 S
C550   H553    1.111   .     S
C550   H552    1.111   .     S
C550   H551    1.108   .     S
C554   H557    1.110   .     S
C554   H555    1.089   .     S
C554   H432    1.111   1_655 S
C559   C575    1.450   .     S
C559   O605    1.292   .     A
C559   O604    1.295   .     A
C560   C561    1.419   .     A
C560   C4      1.426   1_556 S
C560   C28     1.415   1_556 S
C561   C568    1.428   .     A
C561   C565    1.415   .     A
C562   C566    1.400   .     A
C563   C564    1.390   .     A
C563   C4      1.414   1_556 S
C563   C24     1.397   1_556 S
C564   C565    1.386   .     A
C564   H595    1.084   .     S
C565   I620    2.124   .     S
C566   H597    1.076   .     S
C566   C583    1.405   .     A
C567   C583    1.417   .     A
C567   C582    1.399   .     A
C567   C612    1.508   .     S
C568   C584    1.402   .     A
C568   C570    1.485   .     S
C569   H601    1.083   .     S
C569   C575    1.402   .     A
C569   C757    1.383   .     S
C570   O606    1.310   .     A
C570   O607    1.293   .     A
C571   C572    1.400   .     A
C571   H589    1.082   .     S
C571   C941    1.383   1_545 S
C572   C580    1.451   .     S
C572   C573    1.403   .     A
C573   H590    1.083   .     S
C573   C946    1.384   1_545 S
C574   H591    1.083   .     S
C574   C575    1.400   .     A
C574   C759    1.384   .     S
C576   H592    1.082   .     S
C576   N603    1.367   .     A
C576   C639    1.419   .     S
C577   H593    1.082   .     S
C577   N602    1.369   .     A
C577   C700    1.419   1_455 S
C578   N602    1.351   .     A
C578   H594    1.083   .     S
C578   C703    1.413   1_455 S
C579   C616    1.506   .     S
C579   N603    1.393   .     A
C579   C640    1.413   .     S
C580   O608    1.292   .     A
C580   O609    1.296   .     A
C581   O610    1.298   .     A
C581   O611    1.300   .     A
C581   C583    1.475   .     S
C584   C585    1.390   .     A
C584   H598    1.083   .     S
C585   C28     1.390   1_556 S
C585   H42     1.079   1_556 S
C586   H599    1.077   .     S
Cu587  O604    1.967   .     S
Cu587  Cu588   2.685   .     S
Cu587  O608    1.963   .     S
Cu587  N602    2.018   .     S
Cu587  O606    1.957   .     S
Cu587  O610    1.946   .     S
Cu588  O609    1.967   .     S
Cu588  N603    2.018   .     S
Cu588  O607    1.946   .     S
Cu588  O611    1.957   .     S
Cu588  O605    1.963   .     S
H596   C24     1.083   1_556 S
C612   H615    1.111   .     S
C612   H614    1.111   .     S
C612   H613    1.108   .     S
C616   H619    1.110   .     S
C616   H617    1.089   .     S
C616   H680    1.111   .     S
H618   C740    1.111   1_455 S
C621   C637    1.450   .     S
C621   O667    1.292   .     A
C621   O666    1.295   .     A
C622   C623    1.419   .     A
C622   C66     1.426   1_556 S
C622   C90     1.415   1_556 S
C623   C630    1.428   .     A
C623   C627    1.415   .     A
C624   C628    1.400   .     A
C625   C626    1.390   .     A
C625   C66     1.414   1_556 S
C625   C86     1.397   1_556 S
C626   C627    1.386   .     A
C626   H657    1.084   .     S
C627   I682    2.124   .     S
C628   H659    1.076   .     S
C628   C645    1.405   .     A
C629   C645    1.417   .     A
C629   C644    1.399   .     A
C629   C674    1.508   .     S
C630   C646    1.402   .     A
C630   C632    1.485   .     S
C631   H663    1.083   .     S
C631   C637    1.402   .     A
C631   C819    1.383   .     S
C632   O668    1.310   .     A
C632   O669    1.293   .     A
C633   C634    1.400   .     A
C633   H651    1.082   .     S
C633   C1003   1.383   1_545 S
C634   C642    1.451   .     S
C634   C635    1.403   .     A
C635   H652    1.083   .     S
C635   C1008   1.384   1_545 S
C636   H653    1.083   .     S
C636   C637    1.400   .     A
C636   C821    1.384   .     S
C638   H654    1.082   .     S
C638   N665    1.367   .     A
C638   C701    1.419   .     S
C639   H655    1.082   .     S
C639   N664    1.369   .     A
C640   N664    1.351   .     A
C640   H656    1.083   .     S
C641   C678    1.506   .     S
C641   N665    1.393   .     A
C641   C702    1.413   .     S
C642   O670    1.292   .     A
C642   O671    1.296   .     A
C643   O672    1.298   .     A
C643   O673    1.300   .     A
C643   C645    1.475   .     S
C646   C647    1.390   .     A
C646   H660    1.083   .     S
C647   C90     1.390   1_556 S
C647   H104    1.079   1_556 S
C648   H661    1.077   .     S
Cu649  O666    1.967   .     S
Cu649  Cu650   2.685   .     S
Cu649  O670    1.963   .     S
Cu649  N664    2.018   .     S
Cu649  O668    1.957   .     S
Cu649  O672    1.946   .     S
Cu650  O671    1.967   .     S
Cu650  N665    2.018   .     S
Cu650  O669    1.946   .     S
Cu650  O673    1.957   .     S
Cu650  O667    1.963   .     S
H658   C86     1.083   1_556 S
C674   H677    1.111   .     S
C674   H676    1.111   .     S
C674   H675    1.108   .     S
C678   H681    1.110   .     S
C678   H679    1.089   .     S
C678   H742    1.111   .     S
C683   C699    1.450   .     S
C683   O729    1.292   .     A
C683   O728    1.295   .     A
C684   C685    1.419   .     A
C684   C128    1.426   1_556 S
C684   C152    1.415   1_556 S
C685   C692    1.428   .     A
C685   C689    1.415   .     A
C686   C690    1.400   .     A
C687   C688    1.390   .     A
C687   C128    1.414   1_556 S
C687   C148    1.397   1_556 S
C688   C689    1.386   .     A
C688   H719    1.084   .     S
C689   I744    2.124   .     S
C690   H721    1.076   .     S
C690   C707    1.405   .     A
C691   C707    1.417   .     A
C691   C706    1.399   .     A
C691   C736    1.508   .     S
C692   C708    1.402   .     A
C692   C694    1.485   .     S
C693   H725    1.083   .     S
C693   C699    1.402   .     A
C693   C881    1.383   .     S
C694   O730    1.310   .     A
C694   O731    1.293   .     A
C695   C696    1.400   .     A
C695   H713    1.082   .     S
C695   C1065   1.383   1_545 S
C696   C704    1.451   .     S
C696   C697    1.403   .     A
C697   H714    1.083   .     S
C697   C1070   1.384   1_545 S
C698   H715    1.083   .     S
C698   C699    1.400   .     A
C698   C883    1.384   .     S
C700   H716    1.082   .     S
C700   N727    1.367   .     A
C700   C577    1.419   1_655 S
C701   H717    1.082   .     S
C701   N726    1.369   .     A
C702   N726    1.351   .     A
C702   H718    1.083   .     S
C703   C740    1.506   .     S
C703   N727    1.393   .     A
C703   C578    1.413   1_655 S
C704   O732    1.292   .     A
C704   O733    1.296   .     A
C705   O734    1.298   .     A
C705   O735    1.300   .     A
C705   C707    1.475   .     S
C708   C709    1.390   .     A
C708   H722    1.083   .     S
C709   C152    1.390   1_556 S
C709   H166    1.079   1_556 S
C710   H723    1.077   .     S
Cu711  O728    1.967   .     S
Cu711  Cu712   2.685   .     S
Cu711  O732    1.963   .     S
Cu711  N726    2.018   .     S
Cu711  O730    1.957   .     S
Cu711  O734    1.946   .     S
Cu712  O733    1.967   .     S
Cu712  N727    2.018   .     S
Cu712  O731    1.946   .     S
Cu712  O735    1.957   .     S
Cu712  O729    1.963   .     S
H720   C148    1.083   1_556 S
C736   H739    1.111   .     S
C736   H738    1.111   .     S
C736   H737    1.108   .     S
C740   H743    1.110   .     S
C740   H741    1.089   .     S
C740   H618    1.111   1_655 S
C745   C761    1.450   .     S
C745   O791    1.292   .     A
C745   O790    1.295   .     A
C746   C747    1.419   .     A
C746   C190    1.426   1_556 S
C746   C214    1.415   1_556 S
C747   C754    1.428   .     A
C747   C751    1.415   .     A
C748   C752    1.400   .     A
C749   C750    1.390   .     A
C749   C190    1.414   1_556 S
C749   C210    1.397   1_556 S
C750   C751    1.386   .     A
C750   H781    1.084   .     S
C751   I806    2.124   .     S
C752   H783    1.076   .     S
C752   C769    1.405   .     A
C753   C769    1.417   .     A
C753   C768    1.399   .     A
C753   C798    1.508   .     S
C754   C770    1.402   .     A
C754   C756    1.485   .     S
C755   H787    1.083   .     S
C755   C761    1.402   .     A
C755   C943    1.383   .     S
C756   O792    1.310   .     A
C756   O793    1.293   .     A
C757   C758    1.400   .     A
C757   H775    1.082   .     S
C758   C766    1.451   .     S
C758   C759    1.403   .     A
C759   H776    1.083   .     S
C760   H777    1.083   .     S
C760   C761    1.400   .     A
C760   C945    1.384   .     S
C762   H778    1.082   .     S
C762   N789    1.367   .     A
C762   C825    1.419   .     S
C763   H779    1.082   .     S
C763   N788    1.369   .     A
C763   C886    1.419   1_455 S
C764   N788    1.351   .     A
C764   H780    1.083   .     S
C764   C889    1.413   1_455 S
C765   C802    1.506   .     S
C765   N789    1.393   .     A
C765   C826    1.413   .     S
C766   O794    1.292   .     A
C766   O795    1.296   .     A
C767   O796    1.298   .     A
C767   O797    1.300   .     A
C767   C769    1.475   .     S
C770   C771    1.390   .     A
C770   H784    1.083   .     S
C771   C214    1.390   1_556 S
C771   H228    1.079   1_556 S
C772   H785    1.077   .     S
Cu773  O790    1.967   .     S
Cu773  Cu774   2.685   .     S
Cu773  O794    1.963   .     S
Cu773  N788    2.018   .     S
Cu773  O792    1.957   .     S
Cu773  O796    1.946   .     S
Cu774  O795    1.967   .     S
Cu774  N789    2.018   .     S
Cu774  O793    1.946   .     S
Cu774  O797    1.957   .     S
Cu774  O791    1.963   .     S
H782   C210    1.083   1_556 S
C798   H801    1.111   .     S
C798   H800    1.111   .     S
C798   H799    1.108   .     S
C802   H805    1.110   .     S
C802   H803    1.089   .     S
C802   H866    1.111   .     S
H804   C926    1.111   1_455 S
C807   C823    1.450   .     S
C807   O853    1.292   .     A
C807   O852    1.295   .     A
C808   C809    1.419   .     A
C808   C252    1.426   1_556 S
C808   C276    1.415   1_556 S
C809   C816    1.428   .     A
C809   C813    1.415   .     A
C810   C814    1.400   .     A
C811   C812    1.390   .     A
C811   C252    1.414   1_556 S
C811   C272    1.397   1_556 S
C812   C813    1.386   .     A
C812   H843    1.084   .     S
C813   I868    2.124   .     S
C814   H845    1.076   .     S
C814   C831    1.405   .     A
C815   C831    1.417   .     A
C815   C830    1.399   .     A
C815   C860    1.508   .     S
C816   C832    1.402   .     A
C816   C818    1.485   .     S
C817   H849    1.083   .     S
C817   C823    1.402   .     A
C817   C1005   1.383   .     S
C818   O854    1.310   .     A
C818   O855    1.293   .     A
C819   C820    1.400   .     A
C819   H837    1.082   .     S
C820   C828    1.451   .     S
C820   C821    1.403   .     A
C821   H838    1.083   .     S
C822   H839    1.083   .     S
C822   C823    1.400   .     A
C822   C1007   1.384   .     S
C824   H840    1.082   .     S
C824   N851    1.367   .     A
C824   C887    1.419   .     S
C825   H841    1.082   .     S
C825   N850    1.369   .     A
C826   N850    1.351   .     A
C826   H842    1.083   .     S
C827   C864    1.506   .     S
C827   N851    1.393   .     A
C827   C888    1.413   .     S
C828   O856    1.292   .     A
C828   O857    1.296   .     A
C829   O858    1.298   .     A
C829   O859    1.300   .     A
C829   C831    1.475   .     S
C832   C833    1.390   .     A
C832   H846    1.083   .     S
C833   C276    1.390   1_556 S
C833   H290    1.079   1_556 S
C834   H847    1.077   .     S
Cu835  O852    1.967   .     S
Cu835  Cu836   2.685   .     S
Cu835  O856    1.963   .     S
Cu835  N850    2.018   .     S
Cu835  O854    1.957   .     S
Cu835  O858    1.946   .     S
Cu836  O857    1.967   .     S
Cu836  N851    2.018   .     S
Cu836  O855    1.946   .     S
Cu836  O859    1.957   .     S
Cu836  O853    1.963   .     S
H844   C272    1.083   1_556 S
C860   H863    1.111   .     S
C860   H862    1.111   .     S
C860   H861    1.108   .     S
C864   H867    1.110   .     S
C864   H865    1.089   .     S
C864   H928    1.111   .     S
C869   C885    1.450   .     S
C869   O915    1.292   .     A
C869   O914    1.295   .     A
C870   C871    1.419   .     A
C870   C314    1.426   1_556 S
C870   C338    1.415   1_556 S
C871   C878    1.428   .     A
C871   C875    1.415   .     A
C872   C876    1.400   .     A
C873   C874    1.390   .     A
C873   C314    1.414   1_556 S
C873   C334    1.397   1_556 S
C874   C875    1.386   .     A
C874   H905    1.084   .     S
C875   I930    2.124   .     S
C876   H907    1.076   .     S
C876   C893    1.405   .     A
C877   C893    1.417   .     A
C877   C892    1.399   .     A
C877   C922    1.508   .     S
C878   C894    1.402   .     A
C878   C880    1.485   .     S
C879   H911    1.083   .     S
C879   C885    1.402   .     A
C879   C1067   1.383   .     S
C880   O916    1.310   .     A
C880   O917    1.293   .     A
C881   C882    1.400   .     A
C881   H899    1.082   .     S
C882   C890    1.451   .     S
C882   C883    1.403   .     A
C883   H900    1.083   .     S
C884   H901    1.083   .     S
C884   C885    1.400   .     A
C884   C1069   1.384   .     S
C886   H902    1.082   .     S
C886   N913    1.367   .     A
C886   C763    1.419   1_655 S
C887   H903    1.082   .     S
C887   N912    1.369   .     A
C888   N912    1.351   .     A
C888   H904    1.083   .     S
C889   C926    1.506   .     S
C889   N913    1.393   .     A
C889   C764    1.413   1_655 S
C890   O918    1.292   .     A
C890   O919    1.296   .     A
C891   O920    1.298   .     A
C891   O921    1.300   .     A
C891   C893    1.475   .     S
C894   C895    1.390   .     A
C894   H908    1.083   .     S
C895   C338    1.390   1_556 S
C895   H352    1.079   1_556 S
C896   H909    1.077   .     S
Cu897  O914    1.967   .     S
Cu897  Cu898   2.685   .     S
Cu897  O918    1.963   .     S
Cu897  N912    2.018   .     S
Cu897  O916    1.957   .     S
Cu897  O920    1.946   .     S
Cu898  O919    1.967   .     S
Cu898  N913    2.018   .     S
Cu898  O917    1.946   .     S
Cu898  O921    1.957   .     S
Cu898  O915    1.963   .     S
H906   C334    1.083   1_556 S
C922   H925    1.111   .     S
C922   H924    1.111   .     S
C922   H923    1.108   .     S
C926   H929    1.110   .     S
C926   H927    1.089   .     S
C926   H804    1.111   1_655 S
C931   C947    1.450   .     S
C931   O977    1.292   .     A
C931   O976    1.295   .     A
C932   C933    1.419   .     A
C932   C376    1.426   1_556 S
C932   C400    1.415   1_556 S
C933   C940    1.428   .     A
C933   C937    1.415   .     A
C934   C938    1.400   .     A
C935   C936    1.390   .     A
C935   C376    1.414   1_556 S
C935   C396    1.397   1_556 S
C936   C937    1.386   .     A
C936   H967    1.084   .     S
C937   I992    2.124   .     S
C938   H969    1.076   .     S
C938   C955    1.405   .     A
C939   C955    1.417   .     A
C939   C954    1.399   .     A
C939   C984    1.508   .     S
C940   C956    1.402   .     A
C940   C942    1.485   .     S
C941   H973    1.083   .     S
C941   C947    1.402   .     A
C941   C571    1.383   1_565 S
C942   O978    1.310   .     A
C942   O979    1.293   .     A
C943   C944    1.400   .     A
C943   H961    1.082   .     S
C944   C952    1.451   .     S
C944   C945    1.403   .     A
C945   H962    1.083   .     S
C946   H963    1.083   .     S
C946   C947    1.400   .     A
C946   C573    1.384   1_565 S
C948   H964    1.082   .     S
C948   N975    1.367   .     A
C948   C1011   1.419   .     S
C949   H965    1.082   .     S
C949   N974    1.369   .     A
C949   C1072   1.419   1_455 S
C950   N974    1.351   .     A
C950   H966    1.083   .     S
C950   C1075   1.413   1_455 S
C951   C988    1.506   .     S
C951   N975    1.393   .     A
C951   C1012   1.413   .     S
C952   O980    1.292   .     A
C952   O981    1.296   .     A
C953   O982    1.298   .     A
C953   O983    1.300   .     A
C953   C955    1.475   .     S
C956   C957    1.390   .     A
C956   H970    1.083   .     S
C957   C400    1.390   1_556 S
C957   H414    1.079   1_556 S
C958   H971    1.077   .     S
Cu959  O976    1.967   .     S
Cu959  Cu960   2.685   .     S
Cu959  O980    1.963   .     S
Cu959  N974    2.018   .     S
Cu959  O978    1.957   .     S
Cu959  O982    1.946   .     S
Cu960  O981    1.967   .     S
Cu960  N975    2.018   .     S
Cu960  O979    1.946   .     S
Cu960  O983    1.957   .     S
Cu960  O977    1.963   .     S
H968   C396    1.083   1_556 S
C984   H987    1.111   .     S
C984   H986    1.111   .     S
C984   H985    1.108   .     S
C988   H991    1.110   .     S
C988   H989    1.089   .     S
C988   H1052   1.111   .     S
H990   C1112   1.111   1_455 S
C993   C1009   1.450   .     S
C993   O1039   1.292   .     A
C993   O1038   1.295   .     A
C994   C995    1.419   .     A
C994   C438    1.426   1_556 S
C994   C462    1.415   1_556 S
C995   C1002   1.428   .     A
C995   C999    1.415   .     A
C996   C1000   1.400   .     A
C997   C998    1.390   .     A
C997   C438    1.414   1_556 S
C997   C458    1.397   1_556 S
C998   C999    1.386   .     A
C998   H1029   1.084   .     S
C999   I1054   2.124   .     S
C1000  H1031   1.076   .     S
C1000  C1017   1.405   .     A
C1001  C1017   1.417   .     A
C1001  C1016   1.399   .     A
C1001  C1046   1.508   .     S
C1002  C1018   1.402   .     A
C1002  C1004   1.485   .     S
C1003  H1035   1.083   .     S
C1003  C1009   1.402   .     A
C1003  C633    1.383   1_565 S
C1004  O1040   1.310   .     A
C1004  O1041   1.293   .     A
C1005  C1006   1.400   .     A
C1005  H1023   1.082   .     S
C1006  C1014   1.451   .     S
C1006  C1007   1.403   .     A
C1007  H1024   1.083   .     S
C1008  H1025   1.083   .     S
C1008  C1009   1.400   .     A
C1008  C635    1.384   1_565 S
C1010  H1026   1.082   .     S
C1010  N1037   1.367   .     A
C1010  C1073   1.419   .     S
C1011  H1027   1.082   .     S
C1011  N1036   1.369   .     A
C1012  N1036   1.351   .     A
C1012  H1028   1.083   .     S
C1013  C1050   1.506   .     S
C1013  N1037   1.393   .     A
C1013  C1074   1.413   .     S
C1014  O1042   1.292   .     A
C1014  O1043   1.296   .     A
C1015  O1044   1.298   .     A
C1015  O1045   1.300   .     A
C1015  C1017   1.475   .     S
C1018  C1019   1.390   .     A
C1018  H1032   1.083   .     S
C1019  C462    1.390   1_556 S
C1019  H476    1.079   1_556 S
C1020  H1033   1.077   .     S
Cu1021 O1038   1.967   .     S
Cu1021 Cu1022  2.685   .     S
Cu1021 O1042   1.963   .     S
Cu1021 N1036   2.018   .     S
Cu1021 O1040   1.957   .     S
Cu1021 O1044   1.946   .     S
Cu1022 O1043   1.967   .     S
Cu1022 N1037   2.018   .     S
Cu1022 O1041   1.946   .     S
Cu1022 O1045   1.957   .     S
Cu1022 O1039   1.963   .     S
H1030  C458    1.083   1_556 S
C1046  H1049   1.111   .     S
C1046  H1048   1.111   .     S
C1046  H1047   1.108   .     S
C1050  H1053   1.110   .     S
C1050  H1051   1.089   .     S
C1050  H1114   1.111   .     S
C1055  C1071   1.450   .     S
C1055  O1101   1.292   .     A
C1055  O1100   1.295   .     A
C1056  C1057   1.419   .     A
C1056  C500    1.426   1_556 S
C1056  C524    1.415   1_556 S
C1057  C1064   1.428   .     A
C1057  C1061   1.415   .     A
C1058  C1062   1.400   .     A
C1059  C1060   1.390   .     A
C1059  C500    1.414   1_556 S
C1059  C520    1.397   1_556 S
C1060  C1061   1.386   .     A
C1060  H1091   1.084   .     S
C1061  I1116   2.124   .     S
C1062  H1093   1.076   .     S
C1062  C1079   1.405   .     A
C1063  C1079   1.417   .     A
C1063  C1078   1.399   .     A
C1063  C1108   1.508   .     S
C1064  C1080   1.402   .     A
C1064  C1066   1.485   .     S
C1065  H1097   1.083   .     S
C1065  C1071   1.402   .     A
C1065  C695    1.383   1_565 S
C1066  O1102   1.310   .     A
C1066  O1103   1.293   .     A
C1067  C1068   1.400   .     A
C1067  H1085   1.082   .     S
C1068  C1076   1.451   .     S
C1068  C1069   1.403   .     A
C1069  H1086   1.083   .     S
C1070  H1087   1.083   .     S
C1070  C1071   1.400   .     A
C1070  C697    1.384   1_565 S
C1072  H1088   1.082   .     S
C1072  N1099   1.367   .     A
C1072  C949    1.419   1_655 S
C1073  H1089   1.082   .     S
C1073  N1098   1.369   .     A
C1074  N1098   1.351   .     A
C1074  H1090   1.083   .     S
C1075  C1112   1.506   .     S
C1075  N1099   1.393   .     A
C1075  C950    1.413   1_655 S
C1076  O1104   1.292   .     A
C1076  O1105   1.296   .     A
C1077  O1106   1.298   .     A
C1077  O1107   1.300   .     A
C1077  C1079   1.475   .     S
C1080  C1081   1.390   .     A
C1080  H1094   1.083   .     S
C1081  C524    1.390   1_556 S
C1081  H538    1.079   1_556 S
C1082  H1095   1.077   .     S
Cu1083 O1100   1.967   .     S
Cu1083 Cu1084  2.685   .     S
Cu1083 O1104   1.963   .     S
Cu1083 N1098   2.018   .     S
Cu1083 O1102   1.957   .     S
Cu1083 O1106   1.946   .     S
Cu1084 O1105   1.967   .     S
Cu1084 N1099   2.018   .     S
Cu1084 O1103   1.946   .     S
Cu1084 O1107   1.957   .     S
Cu1084 O1101   1.963   .     S
H1092  C520    1.083   1_556 S
C1108  H1111   1.111   .     S
C1108  H1110   1.111   .     S
C1108  H1109   1.108   .     S
C1112  H1115   1.110   .     S
C1112  H1113   1.089   .     S
C1112  H990    1.111   1_655 S
