data_str_m1_o10_o18_pcu_sym.57
_audit_creation_date              2020-01-03
_audit_creation_method            'Materials Studio'
_symmetry_space_group_name_H-M    'P1'
_symmetry_Int_Tables_number       1
_symmetry_cell_setting            triclinic
loop_
_symmetry_equiv_pos_as_xyz
  x,y,z
_cell_length_a                    32.5113
_cell_length_b                    32.6170
_cell_length_c                    35.8202
_cell_angle_alpha                 98.1672
_cell_angle_beta                  72.6788
_cell_angle_gamma                 98.5142
loop_
_atom_site_label
_atom_site_type_symbol
_atom_site_fract_x
_atom_site_fract_y
_atom_site_fract_z
_atom_site_U_iso_or_equiv
_atom_site_adp_type
_atom_site_occupancy
C1     C     0.05251   0.16008   0.25872   0.00000  Uiso   1.00
C2     C     0.21237   0.14962   0.45974   0.00000  Uiso   1.00
C3     C     0.23642   0.13388   0.47933   0.00000  Uiso   1.00
C4     C     0.28108   0.17361   0.24115   0.00000  Uiso   1.00
C5     C     0.22274   0.13456   0.01997   0.00000  Uiso   1.00
C6     C     0.18395   0.15179   0.04195   0.00000  Uiso   1.00
C7     C     0.24838   0.11915   0.03895   0.00000  Uiso   1.00
C8     C     0.23657   0.12148   0.07971   0.00000  Uiso   1.00
C9     C     0.17169   0.15177   0.08319   0.00000  Uiso   1.00
C10    C     0.32718   0.17623   0.23743   0.00000  Uiso   1.00
C11    C     0.00706   0.15799   0.26226   0.00000  Uiso   1.00
C12    C     0.09775   0.21453   0.42095   0.00000  Uiso   1.00
C13    C     0.17965   0.32225   0.23794   0.00000  Uiso   1.00
C14    C     0.15025   0.01237   0.26319   0.00000  Uiso   1.00
C15    C     0.15585   0.05638   0.25898   0.00000  Uiso   1.00
C16    C     0.17646   0.27765   0.24114   0.00000  Uiso   1.00
C17    C     0.18857   0.14521   0.14411   0.00000  Uiso   1.00
C18    C     0.14515   0.18758   0.35615   0.00000  Uiso   1.00
C19    C     0.13383   0.19437   0.39931   0.00000  Uiso   1.00
C20    C     0.19824   0.13769   0.10168   0.00000  Uiso   1.00
C21    C     0.08495   0.21769   0.46204   0.00000  Uiso   1.00
C22    C     0.20780   0.00118   0.17372   0.00000  Uiso   1.00
C23    C     0.15810   0.17830   0.41882   0.00000  Uiso   1.00
C24    C     0.24167   0.02895   0.14624   0.00000  Uiso   1.00
C25    C     0.09797   0.01997   0.32369   0.00000  Uiso   1.00
C26    C     0.06399   0.32793   0.35335   0.00000  Uiso   1.00
C27    C     0.04425   0.23637   0.48294   0.00000  Uiso   1.00
C28    C     0.04075   0.27793   0.47923   0.00000  Uiso   1.00
C29    C     0.00212   0.29533   0.49827   0.00000  Uiso   1.00
C30    C     0.30002   0.27135   0.02092   0.00000  Uiso   1.00
C31    C     0.30308   0.22986   0.02442   0.00000  Uiso   1.00
C32    C     0.00826   0.21227   0.00532   0.00000  Uiso   1.00
C33    C     0.14768   0.18233   0.46012   0.00000  Uiso   1.00
C34    C     0.11016   0.20191   0.48193   0.00000  Uiso   1.00
C35    C     0.17319   0.16674   0.48016   0.00000  Uiso   1.00
C36    C     0.15951   0.16898   0.02201   0.00000  Uiso   1.00
C37    C     0.12263   0.18939   0.04256   0.00000  Uiso   1.00
C38    C     0.09901   0.20585   0.02300   0.00000  Uiso   1.00
H39    H     0.07175   0.22191   0.04071   0.00000  Uiso   1.00
H40    H     0.11136   0.19416   0.07413   0.00000  Uiso   1.00
H41    H     0.22642   0.14867   0.42845   0.00000  Uiso   1.00
H42    H     0.17521   0.00934   0.17506   0.00000  Uiso   1.00
H43    H     0.21055   0.30149   0.16113   0.00000  Uiso   1.00
H44    H     0.27468   0.02132   0.14354   0.00000  Uiso   1.00
H45    H     0.23628   0.02405   0.11665   0.00000  Uiso   1.00
H46    H     0.23922   0.06221   0.15787   0.00000  Uiso   1.00
H47    H     0.08281   0.04613   0.31823   0.00000  Uiso   1.00
H48    H     0.12501   0.03254   0.33675   0.00000  Uiso   1.00
H49    H     0.07830   0.30165   0.35956   0.00000  Uiso   1.00
H50    H     0.27826   0.10647   0.02227   0.00000  Uiso   1.00
H51    H     0.05211   0.01467   0.38120   0.00000  Uiso   1.00
H52    H     0.03618   0.31528   0.34155   0.00000  Uiso   1.00
H53    H     0.06797   0.29682   0.46173   0.00000  Uiso   1.00
H54    H     0.33298   0.32742   0.49546   0.00000  Uiso   1.00
H55    H     0.27017   0.28489   0.03569   0.00000  Uiso   1.00
H56    H     0.27558   0.21138   0.04193   0.00000  Uiso   1.00
H57    H     0.01009   0.17996   0.00796   0.00000  Uiso   1.00
H58    H     0.01710   0.19296   0.21443   0.00000  Uiso   1.00
H59    H     0.31779   0.14137   0.28564   0.00000  Uiso   1.00
H60    H     0.14252   0.16362   0.10211   0.00000  Uiso   1.00
H61    H     0.25753   0.11114   0.09417   0.00000  Uiso   1.00
H62    H     0.26635   0.12138   0.46242   0.00000  Uiso   1.00
H63    H     0.07831   0.22632   0.40582   0.00000  Uiso   1.00
H64    H     0.18461   0.16197   0.40072   0.00000  Uiso   1.00
O65    O     0.16667   0.16667   0.25000   0.00000  Uiso   1.00
O66    O     0.15693   0.12393   0.16625   0.00000  Uiso   1.00
O67    O     0.12687   0.20646   0.33749   0.00000  Uiso   1.00
O68    O     0.21088   0.17493   0.15877   0.00000  Uiso   1.00
O69    O     0.17198   0.16135   0.33749   0.00000  Uiso   1.00
O70    O     0.21527   0.00755   0.21112   0.00000  Uiso   1.00
O71    O     0.11263   0.32732   0.28844   0.00000  Uiso   1.00
O72    O     0.17849   0.08101   0.27820   0.00000  Uiso   1.00
O73    O     0.14581   0.26136   0.26767   0.00000  Uiso   1.00
O74    O     0.07452   0.13251   0.23607   0.00000  Uiso   1.00
O75    O     0.26785   0.19179   0.21805   0.00000  Uiso   1.00
O76    O     0.06990   0.18960   0.27820   0.00000  Uiso   1.00
O77    O     0.25440   0.15277   0.26767   0.00000  Uiso   1.00
O78    O     0.13800   0.06903   0.23607   0.00000  Uiso   1.00
O79    O     0.20437   0.25527   0.21805   0.00000  Uiso   1.00
Zn80   Zn    0.19244   0.14090   0.28277   0.00000  Uiso   1.00
Zn81   Zn    0.13459   0.12378   0.22257   0.00000  Uiso   1.00
Zn82   Zn    0.21166   0.19664   0.21188   0.00000  Uiso   1.00
Zn83   Zn    0.12798   0.20535   0.28277   0.00000  Uiso   1.00
C84    C     0.38584   0.16008   0.25872   0.00000  Uiso   1.00
C85    C     0.54570   0.14962   0.45974   0.00000  Uiso   1.00
C86    C     0.56975   0.13388   0.47933   0.00000  Uiso   1.00
C87    C     0.61442   0.17361   0.24115   0.00000  Uiso   1.00
C88    C     0.55607   0.13456   0.01997   0.00000  Uiso   1.00
C89    C     0.51729   0.15179   0.04195   0.00000  Uiso   1.00
C90    C     0.58171   0.11915   0.03895   0.00000  Uiso   1.00
C91    C     0.56990   0.12148   0.07971   0.00000  Uiso   1.00
C92    C     0.50503   0.15177   0.08319   0.00000  Uiso   1.00
C93    C     0.66051   0.17623   0.23743   0.00000  Uiso   1.00
C94    C     0.34040   0.15799   0.26226   0.00000  Uiso   1.00
C95    C     0.43108   0.21453   0.42095   0.00000  Uiso   1.00
C96    C     0.51299   0.32225   0.23794   0.00000  Uiso   1.00
C97    C     0.48359   0.01237   0.26319   0.00000  Uiso   1.00
C98    C     0.48918   0.05638   0.25898   0.00000  Uiso   1.00
C99    C     0.50980   0.27765   0.24114   0.00000  Uiso   1.00
C100   C     0.52190   0.14521   0.14411   0.00000  Uiso   1.00
C101   C     0.47848   0.18758   0.35615   0.00000  Uiso   1.00
C102   C     0.46716   0.19437   0.39931   0.00000  Uiso   1.00
C103   C     0.53157   0.13769   0.10168   0.00000  Uiso   1.00
C104   C     0.41829   0.21769   0.46204   0.00000  Uiso   1.00
C105   C     0.54114   0.00118   0.17372   0.00000  Uiso   1.00
C106   C     0.49143   0.17830   0.41882   0.00000  Uiso   1.00
C107   C     0.57500   0.02895   0.14624   0.00000  Uiso   1.00
C108   C     0.43131   0.01997   0.32369   0.00000  Uiso   1.00
C109   C     0.39732   0.32793   0.35335   0.00000  Uiso   1.00
C110   C     0.37759   0.23637   0.48294   0.00000  Uiso   1.00
C111   C     0.37409   0.27793   0.47923   0.00000  Uiso   1.00
C112   C     0.33545   0.29533   0.49827   0.00000  Uiso   1.00
C113   C     0.63335   0.27135   0.02092   0.00000  Uiso   1.00
C114   C     0.63641   0.22986   0.02442   0.00000  Uiso   1.00
C115   C     0.34160   0.21227   0.00532   0.00000  Uiso   1.00
C116   C     0.48102   0.18233   0.46012   0.00000  Uiso   1.00
C117   C     0.44349   0.20191   0.48193   0.00000  Uiso   1.00
C118   C     0.50652   0.16674   0.48016   0.00000  Uiso   1.00
C119   C     0.49285   0.16898   0.02201   0.00000  Uiso   1.00
C120   C     0.45597   0.18939   0.04256   0.00000  Uiso   1.00
C121   C     0.43234   0.20585   0.02300   0.00000  Uiso   1.00
H122   H     0.40508   0.22191   0.04071   0.00000  Uiso   1.00
H123   H     0.44469   0.19416   0.07413   0.00000  Uiso   1.00
H124   H     0.55975   0.14867   0.42845   0.00000  Uiso   1.00
H125   H     0.50855   0.00934   0.17506   0.00000  Uiso   1.00
H126   H     0.54388   0.30149   0.16113   0.00000  Uiso   1.00
H127   H     0.60801   0.02132   0.14354   0.00000  Uiso   1.00
H128   H     0.56962   0.02405   0.11665   0.00000  Uiso   1.00
H129   H     0.57256   0.06221   0.15787   0.00000  Uiso   1.00
H130   H     0.41614   0.04613   0.31823   0.00000  Uiso   1.00
H131   H     0.45834   0.03254   0.33675   0.00000  Uiso   1.00
H132   H     0.41163   0.30165   0.35956   0.00000  Uiso   1.00
H133   H     0.61159   0.10647   0.02227   0.00000  Uiso   1.00
H134   H     0.38545   0.01467   0.38120   0.00000  Uiso   1.00
H135   H     0.36951   0.31528   0.34155   0.00000  Uiso   1.00
H136   H     0.40130   0.29682   0.46173   0.00000  Uiso   1.00
H137   H     0.66631   0.32742   0.49546   0.00000  Uiso   1.00
H138   H     0.60350   0.28489   0.03569   0.00000  Uiso   1.00
H139   H     0.60892   0.21138   0.04193   0.00000  Uiso   1.00
H140   H     0.34343   0.17996   0.00796   0.00000  Uiso   1.00
H141   H     0.35043   0.19296   0.21443   0.00000  Uiso   1.00
H142   H     0.65112   0.14137   0.28564   0.00000  Uiso   1.00
H143   H     0.47586   0.16362   0.10211   0.00000  Uiso   1.00
H144   H     0.59086   0.11114   0.09417   0.00000  Uiso   1.00
H145   H     0.59969   0.12138   0.46242   0.00000  Uiso   1.00
H146   H     0.41164   0.22632   0.40582   0.00000  Uiso   1.00
H147   H     0.51794   0.16197   0.40072   0.00000  Uiso   1.00
O148   O     0.50000   0.16667   0.25000   0.00000  Uiso   1.00
O149   O     0.49027   0.12393   0.16625   0.00000  Uiso   1.00
O150   O     0.46020   0.20646   0.33749   0.00000  Uiso   1.00
O151   O     0.54421   0.17493   0.15877   0.00000  Uiso   1.00
O152   O     0.50532   0.16135   0.33749   0.00000  Uiso   1.00
O153   O     0.54861   0.00755   0.21112   0.00000  Uiso   1.00
O154   O     0.44596   0.32732   0.28844   0.00000  Uiso   1.00
O155   O     0.51182   0.08101   0.27820   0.00000  Uiso   1.00
O156   O     0.47914   0.26136   0.26767   0.00000  Uiso   1.00
O157   O     0.40785   0.13251   0.23607   0.00000  Uiso   1.00
O158   O     0.60119   0.19179   0.21805   0.00000  Uiso   1.00
O159   O     0.40323   0.18960   0.27820   0.00000  Uiso   1.00
O160   O     0.58773   0.15277   0.26767   0.00000  Uiso   1.00
O161   O     0.47133   0.06903   0.23607   0.00000  Uiso   1.00
O162   O     0.53771   0.25527   0.21805   0.00000  Uiso   1.00
Zn163  Zn    0.52577   0.14090   0.28277   0.00000  Uiso   1.00
Zn164  Zn    0.46792   0.12378   0.22257   0.00000  Uiso   1.00
Zn165  Zn    0.54500   0.19664   0.21188   0.00000  Uiso   1.00
Zn166  Zn    0.46131   0.20535   0.28277   0.00000  Uiso   1.00
C167   C     0.71918   0.16008   0.25872   0.00000  Uiso   1.00
C168   C     0.87904   0.14962   0.45974   0.00000  Uiso   1.00
C169   C     0.90309   0.13388   0.47933   0.00000  Uiso   1.00
C170   C     0.94775   0.17361   0.24115   0.00000  Uiso   1.00
C171   C     0.88940   0.13456   0.01997   0.00000  Uiso   1.00
C172   C     0.85062   0.15179   0.04195   0.00000  Uiso   1.00
C173   C     0.91504   0.11915   0.03895   0.00000  Uiso   1.00
C174   C     0.90324   0.12148   0.07971   0.00000  Uiso   1.00
C175   C     0.83836   0.15177   0.08319   0.00000  Uiso   1.00
C176   C     0.99385   0.17623   0.23743   0.00000  Uiso   1.00
C177   C     0.67373   0.15799   0.26226   0.00000  Uiso   1.00
C178   C     0.76442   0.21453   0.42095   0.00000  Uiso   1.00
C179   C     0.84632   0.32225   0.23794   0.00000  Uiso   1.00
C180   C     0.81692   0.01237   0.26319   0.00000  Uiso   1.00
C181   C     0.82251   0.05638   0.25898   0.00000  Uiso   1.00
C182   C     0.84313   0.27765   0.24114   0.00000  Uiso   1.00
C183   C     0.85524   0.14521   0.14411   0.00000  Uiso   1.00
C184   C     0.81181   0.18758   0.35615   0.00000  Uiso   1.00
C185   C     0.80049   0.19437   0.39931   0.00000  Uiso   1.00
C186   C     0.86491   0.13769   0.10168   0.00000  Uiso   1.00
C187   C     0.75162   0.21769   0.46204   0.00000  Uiso   1.00
C188   C     0.87447   0.00118   0.17372   0.00000  Uiso   1.00
C189   C     0.82477   0.17830   0.41882   0.00000  Uiso   1.00
C190   C     0.90834   0.02895   0.14624   0.00000  Uiso   1.00
C191   C     0.76464   0.01997   0.32369   0.00000  Uiso   1.00
C192   C     0.73066   0.32793   0.35335   0.00000  Uiso   1.00
C193   C     0.71092   0.23637   0.48294   0.00000  Uiso   1.00
C194   C     0.70742   0.27793   0.47923   0.00000  Uiso   1.00
C195   C     0.66879   0.29533   0.49827   0.00000  Uiso   1.00
C196   C     0.96669   0.27135   0.02092   0.00000  Uiso   1.00
C197   C     0.96975   0.22986   0.02442   0.00000  Uiso   1.00
C198   C     0.67493   0.21227   0.00532   0.00000  Uiso   1.00
C199   C     0.81435   0.18233   0.46012   0.00000  Uiso   1.00
C200   C     0.77683   0.20191   0.48193   0.00000  Uiso   1.00
C201   C     0.83986   0.16674   0.48016   0.00000  Uiso   1.00
C202   C     0.82618   0.16898   0.02201   0.00000  Uiso   1.00
C203   C     0.78930   0.18939   0.04256   0.00000  Uiso   1.00
C204   C     0.76568   0.20585   0.02300   0.00000  Uiso   1.00
H205   H     0.73842   0.22191   0.04071   0.00000  Uiso   1.00
H206   H     0.77803   0.19416   0.07413   0.00000  Uiso   1.00
H207   H     0.89309   0.14867   0.42845   0.00000  Uiso   1.00
H208   H     0.84188   0.00934   0.17506   0.00000  Uiso   1.00
H209   H     0.87721   0.30149   0.16113   0.00000  Uiso   1.00
H210   H     0.94135   0.02132   0.14354   0.00000  Uiso   1.00
H211   H     0.90295   0.02405   0.11665   0.00000  Uiso   1.00
H212   H     0.90589   0.06221   0.15787   0.00000  Uiso   1.00
H213   H     0.74948   0.04613   0.31823   0.00000  Uiso   1.00
H214   H     0.79167   0.03254   0.33675   0.00000  Uiso   1.00
H215   H     0.74497   0.30165   0.35956   0.00000  Uiso   1.00
H216   H     0.94493   0.10647   0.02227   0.00000  Uiso   1.00
H217   H     0.71878   0.01467   0.38120   0.00000  Uiso   1.00
H218   H     0.70285   0.31528   0.34155   0.00000  Uiso   1.00
H219   H     0.73463   0.29682   0.46173   0.00000  Uiso   1.00
H220   H     0.99965   0.32742   0.49546   0.00000  Uiso   1.00
H221   H     0.93683   0.28489   0.03569   0.00000  Uiso   1.00
H222   H     0.94225   0.21138   0.04193   0.00000  Uiso   1.00
H223   H     0.67676   0.17996   0.00796   0.00000  Uiso   1.00
H224   H     0.68376   0.19296   0.21443   0.00000  Uiso   1.00
H225   H     0.98445   0.14137   0.28564   0.00000  Uiso   1.00
H226   H     0.80919   0.16362   0.10211   0.00000  Uiso   1.00
H227   H     0.92419   0.11114   0.09417   0.00000  Uiso   1.00
H228   H     0.93302   0.12138   0.46242   0.00000  Uiso   1.00
H229   H     0.74497   0.22632   0.40582   0.00000  Uiso   1.00
H230   H     0.85128   0.16197   0.40072   0.00000  Uiso   1.00
O231   O     0.83333   0.16667   0.25000   0.00000  Uiso   1.00
O232   O     0.82360   0.12393   0.16625   0.00000  Uiso   1.00
O233   O     0.79354   0.20646   0.33749   0.00000  Uiso   1.00
O234   O     0.87755   0.17493   0.15877   0.00000  Uiso   1.00
O235   O     0.83865   0.16135   0.33749   0.00000  Uiso   1.00
O236   O     0.88194   0.00755   0.21112   0.00000  Uiso   1.00
O237   O     0.77929   0.32732   0.28844   0.00000  Uiso   1.00
O238   O     0.84515   0.08101   0.27820   0.00000  Uiso   1.00
O239   O     0.81247   0.26136   0.26767   0.00000  Uiso   1.00
O240   O     0.74119   0.13251   0.23607   0.00000  Uiso   1.00
O241   O     0.93452   0.19179   0.21805   0.00000  Uiso   1.00
O242   O     0.73656   0.18960   0.27820   0.00000  Uiso   1.00
O243   O     0.92106   0.15277   0.26767   0.00000  Uiso   1.00
O244   O     0.80467   0.06903   0.23607   0.00000  Uiso   1.00
O245   O     0.87104   0.25527   0.21805   0.00000  Uiso   1.00
Zn246  Zn    0.85910   0.14090   0.28277   0.00000  Uiso   1.00
Zn247  Zn    0.80125   0.12378   0.22257   0.00000  Uiso   1.00
Zn248  Zn    0.87833   0.19664   0.21188   0.00000  Uiso   1.00
Zn249  Zn    0.79465   0.20535   0.28277   0.00000  Uiso   1.00
C250   C     0.05251   0.49342   0.25872   0.00000  Uiso   1.00
C251   C     0.21237   0.48295   0.45974   0.00000  Uiso   1.00
C252   C     0.23642   0.46721   0.47933   0.00000  Uiso   1.00
C253   C     0.28108   0.50695   0.24115   0.00000  Uiso   1.00
C254   C     0.22274   0.46789   0.01997   0.00000  Uiso   1.00
C255   C     0.18395   0.48512   0.04195   0.00000  Uiso   1.00
C256   C     0.24838   0.45249   0.03895   0.00000  Uiso   1.00
C257   C     0.23657   0.45481   0.07971   0.00000  Uiso   1.00
C258   C     0.17169   0.48510   0.08319   0.00000  Uiso   1.00
C259   C     0.32718   0.50956   0.23743   0.00000  Uiso   1.00
C260   C     0.00706   0.49132   0.26226   0.00000  Uiso   1.00
C261   C     0.09775   0.54787   0.42095   0.00000  Uiso   1.00
C262   C     0.17965   0.65558   0.23794   0.00000  Uiso   1.00
C263   C     0.15025   0.34570   0.26319   0.00000  Uiso   1.00
C264   C     0.15585   0.38972   0.25898   0.00000  Uiso   1.00
C265   C     0.17646   0.61099   0.24114   0.00000  Uiso   1.00
C266   C     0.18857   0.47854   0.14411   0.00000  Uiso   1.00
C267   C     0.14515   0.52092   0.35615   0.00000  Uiso   1.00
C268   C     0.13383   0.52771   0.39931   0.00000  Uiso   1.00
C269   C     0.19824   0.47102   0.10168   0.00000  Uiso   1.00
C270   C     0.08495   0.55103   0.46204   0.00000  Uiso   1.00
C271   C     0.20780   0.33451   0.17372   0.00000  Uiso   1.00
C272   C     0.15810   0.51164   0.41882   0.00000  Uiso   1.00
C273   C     0.24167   0.36228   0.14624   0.00000  Uiso   1.00
C274   C     0.09797   0.35331   0.32369   0.00000  Uiso   1.00
C275   C     0.06399   0.66126   0.35335   0.00000  Uiso   1.00
C276   C     0.04425   0.56971   0.48294   0.00000  Uiso   1.00
C277   C     0.04075   0.61126   0.47923   0.00000  Uiso   1.00
C278   C     0.00212   0.62867   0.49827   0.00000  Uiso   1.00
C279   C     0.30002   0.60469   0.02092   0.00000  Uiso   1.00
C280   C     0.30308   0.56320   0.02442   0.00000  Uiso   1.00
C281   C     0.00826   0.54560   0.00532   0.00000  Uiso   1.00
C282   C     0.14768   0.51566   0.46012   0.00000  Uiso   1.00
C283   C     0.11016   0.53524   0.48193   0.00000  Uiso   1.00
C284   C     0.17319   0.50007   0.48016   0.00000  Uiso   1.00
C285   C     0.15951   0.50231   0.02201   0.00000  Uiso   1.00
C286   C     0.12263   0.52272   0.04256   0.00000  Uiso   1.00
C287   C     0.09901   0.53918   0.02300   0.00000  Uiso   1.00
H288   H     0.07175   0.55524   0.04071   0.00000  Uiso   1.00
H289   H     0.11136   0.52750   0.07413   0.00000  Uiso   1.00
H290   H     0.22642   0.48200   0.42845   0.00000  Uiso   1.00
H291   H     0.17521   0.34267   0.17506   0.00000  Uiso   1.00
H292   H     0.21055   0.63482   0.16113   0.00000  Uiso   1.00
H293   H     0.27468   0.35465   0.14354   0.00000  Uiso   1.00
H294   H     0.23628   0.35738   0.11665   0.00000  Uiso   1.00
H295   H     0.23922   0.39555   0.15787   0.00000  Uiso   1.00
H296   H     0.08281   0.37946   0.31823   0.00000  Uiso   1.00
H297   H     0.12501   0.36588   0.33675   0.00000  Uiso   1.00
H298   H     0.07830   0.63498   0.35956   0.00000  Uiso   1.00
H299   H     0.27826   0.43980   0.02227   0.00000  Uiso   1.00
H300   H     0.05211   0.34800   0.38120   0.00000  Uiso   1.00
H301   H     0.03618   0.64862   0.34155   0.00000  Uiso   1.00
H302   H     0.06797   0.63015   0.46173   0.00000  Uiso   1.00
H303   H     0.33298   0.66075   0.49546   0.00000  Uiso   1.00
H304   H     0.27017   0.61823   0.03569   0.00000  Uiso   1.00
H305   H     0.27558   0.54471   0.04193   0.00000  Uiso   1.00
H306   H     0.01009   0.51329   0.00796   0.00000  Uiso   1.00
H307   H     0.01710   0.52630   0.21443   0.00000  Uiso   1.00
H308   H     0.31779   0.47470   0.28564   0.00000  Uiso   1.00
H309   H     0.14252   0.49695   0.10211   0.00000  Uiso   1.00
H310   H     0.25753   0.44447   0.09417   0.00000  Uiso   1.00
H311   H     0.26635   0.45472   0.46242   0.00000  Uiso   1.00
H312   H     0.07831   0.55965   0.40582   0.00000  Uiso   1.00
H313   H     0.18461   0.49530   0.40072   0.00000  Uiso   1.00
O314   O     0.16667   0.50000   0.25000   0.00000  Uiso   1.00
O315   O     0.15693   0.45726   0.16625   0.00000  Uiso   1.00
O316   O     0.12687   0.53979   0.33749   0.00000  Uiso   1.00
O317   O     0.21088   0.50826   0.15877   0.00000  Uiso   1.00
O318   O     0.17198   0.49468   0.33749   0.00000  Uiso   1.00
O319   O     0.21527   0.34088   0.21112   0.00000  Uiso   1.00
O320   O     0.11263   0.66066   0.28844   0.00000  Uiso   1.00
O321   O     0.17849   0.41434   0.27820   0.00000  Uiso   1.00
O322   O     0.14581   0.59469   0.26767   0.00000  Uiso   1.00
O323   O     0.07452   0.46584   0.23607   0.00000  Uiso   1.00
O324   O     0.26785   0.52512   0.21805   0.00000  Uiso   1.00
O325   O     0.06990   0.52293   0.27820   0.00000  Uiso   1.00
O326   O     0.25440   0.48610   0.26767   0.00000  Uiso   1.00
O327   O     0.13800   0.40236   0.23607   0.00000  Uiso   1.00
O328   O     0.20437   0.58860   0.21805   0.00000  Uiso   1.00
Zn329  Zn    0.19244   0.47423   0.28277   0.00000  Uiso   1.00
Zn330  Zn    0.13459   0.45711   0.22257   0.00000  Uiso   1.00
Zn331  Zn    0.21166   0.52997   0.21188   0.00000  Uiso   1.00
Zn332  Zn    0.12798   0.53868   0.28277   0.00000  Uiso   1.00
C333   C     0.38584   0.49342   0.25872   0.00000  Uiso   1.00
C334   C     0.54570   0.48295   0.45974   0.00000  Uiso   1.00
C335   C     0.56975   0.46721   0.47933   0.00000  Uiso   1.00
C336   C     0.61442   0.50695   0.24115   0.00000  Uiso   1.00
C337   C     0.55607   0.46789   0.01997   0.00000  Uiso   1.00
C338   C     0.51729   0.48512   0.04195   0.00000  Uiso   1.00
C339   C     0.58171   0.45249   0.03895   0.00000  Uiso   1.00
C340   C     0.56990   0.45481   0.07971   0.00000  Uiso   1.00
C341   C     0.50503   0.48510   0.08319   0.00000  Uiso   1.00
C342   C     0.66051   0.50956   0.23743   0.00000  Uiso   1.00
C343   C     0.34040   0.49132   0.26226   0.00000  Uiso   1.00
C344   C     0.43108   0.54787   0.42095   0.00000  Uiso   1.00
C345   C     0.51299   0.65558   0.23794   0.00000  Uiso   1.00
C346   C     0.48359   0.34570   0.26319   0.00000  Uiso   1.00
C347   C     0.48918   0.38972   0.25898   0.00000  Uiso   1.00
C348   C     0.50980   0.61099   0.24114   0.00000  Uiso   1.00
C349   C     0.52190   0.47854   0.14411   0.00000  Uiso   1.00
C350   C     0.47848   0.52092   0.35615   0.00000  Uiso   1.00
C351   C     0.46716   0.52771   0.39931   0.00000  Uiso   1.00
C352   C     0.53157   0.47102   0.10168   0.00000  Uiso   1.00
C353   C     0.41829   0.55103   0.46204   0.00000  Uiso   1.00
C354   C     0.54114   0.33451   0.17372   0.00000  Uiso   1.00
C355   C     0.49143   0.51164   0.41882   0.00000  Uiso   1.00
C356   C     0.57500   0.36228   0.14624   0.00000  Uiso   1.00
C357   C     0.43131   0.35331   0.32369   0.00000  Uiso   1.00
C358   C     0.39732   0.66126   0.35335   0.00000  Uiso   1.00
C359   C     0.37759   0.56971   0.48294   0.00000  Uiso   1.00
C360   C     0.37409   0.61126   0.47923   0.00000  Uiso   1.00
C361   C     0.33545   0.62867   0.49827   0.00000  Uiso   1.00
C362   C     0.63335   0.60469   0.02092   0.00000  Uiso   1.00
C363   C     0.63641   0.56320   0.02442   0.00000  Uiso   1.00
C364   C     0.34160   0.54560   0.00532   0.00000  Uiso   1.00
C365   C     0.48102   0.51566   0.46012   0.00000  Uiso   1.00
C366   C     0.44349   0.53524   0.48193   0.00000  Uiso   1.00
C367   C     0.50652   0.50007   0.48016   0.00000  Uiso   1.00
C368   C     0.49285   0.50231   0.02201   0.00000  Uiso   1.00
C369   C     0.45597   0.52272   0.04256   0.00000  Uiso   1.00
C370   C     0.43234   0.53918   0.02300   0.00000  Uiso   1.00
H371   H     0.40508   0.55524   0.04071   0.00000  Uiso   1.00
H372   H     0.44469   0.52750   0.07413   0.00000  Uiso   1.00
H373   H     0.55975   0.48200   0.42845   0.00000  Uiso   1.00
H374   H     0.50855   0.34267   0.17506   0.00000  Uiso   1.00
H375   H     0.54388   0.63482   0.16113   0.00000  Uiso   1.00
H376   H     0.60801   0.35465   0.14354   0.00000  Uiso   1.00
H377   H     0.56962   0.35738   0.11665   0.00000  Uiso   1.00
H378   H     0.57256   0.39555   0.15787   0.00000  Uiso   1.00
H379   H     0.41614   0.37946   0.31823   0.00000  Uiso   1.00
H380   H     0.45834   0.36588   0.33675   0.00000  Uiso   1.00
H381   H     0.41163   0.63498   0.35956   0.00000  Uiso   1.00
H382   H     0.61159   0.43980   0.02227   0.00000  Uiso   1.00
H383   H     0.38545   0.34800   0.38120   0.00000  Uiso   1.00
H384   H     0.36951   0.64862   0.34155   0.00000  Uiso   1.00
H385   H     0.40130   0.63015   0.46173   0.00000  Uiso   1.00
H386   H     0.66631   0.66075   0.49546   0.00000  Uiso   1.00
H387   H     0.60350   0.61823   0.03569   0.00000  Uiso   1.00
H388   H     0.60892   0.54471   0.04193   0.00000  Uiso   1.00
H389   H     0.34343   0.51329   0.00796   0.00000  Uiso   1.00
H390   H     0.35043   0.52630   0.21443   0.00000  Uiso   1.00
H391   H     0.65112   0.47470   0.28564   0.00000  Uiso   1.00
H392   H     0.47586   0.49695   0.10211   0.00000  Uiso   1.00
H393   H     0.59086   0.44447   0.09417   0.00000  Uiso   1.00
H394   H     0.59969   0.45472   0.46242   0.00000  Uiso   1.00
H395   H     0.41164   0.55965   0.40582   0.00000  Uiso   1.00
H396   H     0.51794   0.49530   0.40072   0.00000  Uiso   1.00
O397   O     0.50000   0.50000   0.25000   0.00000  Uiso   1.00
O398   O     0.49027   0.45726   0.16625   0.00000  Uiso   1.00
O399   O     0.46020   0.53979   0.33749   0.00000  Uiso   1.00
O400   O     0.54421   0.50826   0.15877   0.00000  Uiso   1.00
O401   O     0.50532   0.49468   0.33749   0.00000  Uiso   1.00
O402   O     0.54861   0.34088   0.21112   0.00000  Uiso   1.00
O403   O     0.44596   0.66066   0.28844   0.00000  Uiso   1.00
O404   O     0.51182   0.41434   0.27820   0.00000  Uiso   1.00
O405   O     0.47914   0.59469   0.26767   0.00000  Uiso   1.00
O406   O     0.40785   0.46584   0.23607   0.00000  Uiso   1.00
O407   O     0.60119   0.52512   0.21805   0.00000  Uiso   1.00
O408   O     0.40323   0.52293   0.27820   0.00000  Uiso   1.00
O409   O     0.58773   0.48610   0.26767   0.00000  Uiso   1.00
O410   O     0.47133   0.40236   0.23607   0.00000  Uiso   1.00
O411   O     0.53771   0.58860   0.21805   0.00000  Uiso   1.00
Zn412  Zn    0.52577   0.47423   0.28277   0.00000  Uiso   1.00
Zn413  Zn    0.46792   0.45711   0.22257   0.00000  Uiso   1.00
Zn414  Zn    0.54500   0.52997   0.21188   0.00000  Uiso   1.00
Zn415  Zn    0.46131   0.53868   0.28277   0.00000  Uiso   1.00
C416   C     0.71918   0.49342   0.25872   0.00000  Uiso   1.00
C417   C     0.87904   0.48295   0.45974   0.00000  Uiso   1.00
C418   C     0.90309   0.46721   0.47933   0.00000  Uiso   1.00
C419   C     0.94775   0.50695   0.24115   0.00000  Uiso   1.00
C420   C     0.88940   0.46789   0.01997   0.00000  Uiso   1.00
C421   C     0.85062   0.48512   0.04195   0.00000  Uiso   1.00
C422   C     0.91504   0.45249   0.03895   0.00000  Uiso   1.00
C423   C     0.90324   0.45481   0.07971   0.00000  Uiso   1.00
C424   C     0.83836   0.48510   0.08319   0.00000  Uiso   1.00
C425   C     0.99385   0.50956   0.23743   0.00000  Uiso   1.00
C426   C     0.67373   0.49132   0.26226   0.00000  Uiso   1.00
C427   C     0.76442   0.54787   0.42095   0.00000  Uiso   1.00
C428   C     0.84632   0.65558   0.23794   0.00000  Uiso   1.00
C429   C     0.81692   0.34570   0.26319   0.00000  Uiso   1.00
C430   C     0.82251   0.38972   0.25898   0.00000  Uiso   1.00
C431   C     0.84313   0.61099   0.24114   0.00000  Uiso   1.00
C432   C     0.85524   0.47854   0.14411   0.00000  Uiso   1.00
C433   C     0.81181   0.52092   0.35615   0.00000  Uiso   1.00
C434   C     0.80049   0.52771   0.39931   0.00000  Uiso   1.00
C435   C     0.86491   0.47102   0.10168   0.00000  Uiso   1.00
C436   C     0.75162   0.55103   0.46204   0.00000  Uiso   1.00
C437   C     0.87447   0.33451   0.17372   0.00000  Uiso   1.00
C438   C     0.82477   0.51164   0.41882   0.00000  Uiso   1.00
C439   C     0.90834   0.36228   0.14624   0.00000  Uiso   1.00
C440   C     0.76464   0.35331   0.32369   0.00000  Uiso   1.00
C441   C     0.73066   0.66126   0.35335   0.00000  Uiso   1.00
C442   C     0.71092   0.56971   0.48294   0.00000  Uiso   1.00
C443   C     0.70742   0.61126   0.47923   0.00000  Uiso   1.00
C444   C     0.66879   0.62867   0.49827   0.00000  Uiso   1.00
C445   C     0.96669   0.60469   0.02092   0.00000  Uiso   1.00
C446   C     0.96975   0.56320   0.02442   0.00000  Uiso   1.00
C447   C     0.67493   0.54560   0.00532   0.00000  Uiso   1.00
C448   C     0.81435   0.51566   0.46012   0.00000  Uiso   1.00
C449   C     0.77683   0.53524   0.48193   0.00000  Uiso   1.00
C450   C     0.83986   0.50007   0.48016   0.00000  Uiso   1.00
C451   C     0.82618   0.50231   0.02201   0.00000  Uiso   1.00
C452   C     0.78930   0.52272   0.04256   0.00000  Uiso   1.00
C453   C     0.76568   0.53918   0.02300   0.00000  Uiso   1.00
H454   H     0.73842   0.55524   0.04071   0.00000  Uiso   1.00
H455   H     0.77803   0.52750   0.07413   0.00000  Uiso   1.00
H456   H     0.89309   0.48200   0.42845   0.00000  Uiso   1.00
H457   H     0.84188   0.34267   0.17506   0.00000  Uiso   1.00
H458   H     0.87721   0.63482   0.16113   0.00000  Uiso   1.00
H459   H     0.94135   0.35465   0.14354   0.00000  Uiso   1.00
H460   H     0.90295   0.35738   0.11665   0.00000  Uiso   1.00
H461   H     0.90589   0.39555   0.15787   0.00000  Uiso   1.00
H462   H     0.74948   0.37946   0.31823   0.00000  Uiso   1.00
H463   H     0.79167   0.36588   0.33675   0.00000  Uiso   1.00
H464   H     0.74497   0.63498   0.35956   0.00000  Uiso   1.00
H465   H     0.94493   0.43980   0.02227   0.00000  Uiso   1.00
H466   H     0.71878   0.34800   0.38120   0.00000  Uiso   1.00
H467   H     0.70285   0.64862   0.34155   0.00000  Uiso   1.00
H468   H     0.73463   0.63015   0.46173   0.00000  Uiso   1.00
H469   H     0.99965   0.66075   0.49546   0.00000  Uiso   1.00
H470   H     0.93683   0.61823   0.03569   0.00000  Uiso   1.00
H471   H     0.94225   0.54471   0.04193   0.00000  Uiso   1.00
H472   H     0.67676   0.51329   0.00796   0.00000  Uiso   1.00
H473   H     0.68376   0.52630   0.21443   0.00000  Uiso   1.00
H474   H     0.98445   0.47470   0.28564   0.00000  Uiso   1.00
H475   H     0.80919   0.49695   0.10211   0.00000  Uiso   1.00
H476   H     0.92419   0.44447   0.09417   0.00000  Uiso   1.00
H477   H     0.93302   0.45472   0.46242   0.00000  Uiso   1.00
H478   H     0.74497   0.55965   0.40582   0.00000  Uiso   1.00
H479   H     0.85128   0.49530   0.40072   0.00000  Uiso   1.00
O480   O     0.83333   0.50000   0.25000   0.00000  Uiso   1.00
O481   O     0.82360   0.45726   0.16625   0.00000  Uiso   1.00
O482   O     0.79354   0.53979   0.33749   0.00000  Uiso   1.00
O483   O     0.87755   0.50826   0.15877   0.00000  Uiso   1.00
O484   O     0.83865   0.49468   0.33749   0.00000  Uiso   1.00
O485   O     0.88194   0.34088   0.21112   0.00000  Uiso   1.00
O486   O     0.77929   0.66066   0.28844   0.00000  Uiso   1.00
O487   O     0.84515   0.41434   0.27820   0.00000  Uiso   1.00
O488   O     0.81247   0.59469   0.26767   0.00000  Uiso   1.00
O489   O     0.74119   0.46584   0.23607   0.00000  Uiso   1.00
O490   O     0.93452   0.52512   0.21805   0.00000  Uiso   1.00
O491   O     0.73656   0.52293   0.27820   0.00000  Uiso   1.00
O492   O     0.92106   0.48610   0.26767   0.00000  Uiso   1.00
O493   O     0.80467   0.40236   0.23607   0.00000  Uiso   1.00
O494   O     0.87104   0.58860   0.21805   0.00000  Uiso   1.00
Zn495  Zn    0.85910   0.47423   0.28277   0.00000  Uiso   1.00
Zn496  Zn    0.80125   0.45711   0.22257   0.00000  Uiso   1.00
Zn497  Zn    0.87833   0.52997   0.21188   0.00000  Uiso   1.00
Zn498  Zn    0.79465   0.53868   0.28277   0.00000  Uiso   1.00
C499   C     0.05251   0.82675   0.25872   0.00000  Uiso   1.00
C500   C     0.21237   0.81629   0.45974   0.00000  Uiso   1.00
C501   C     0.23642   0.80054   0.47933   0.00000  Uiso   1.00
C502   C     0.28108   0.84028   0.24115   0.00000  Uiso   1.00
C503   C     0.22274   0.80122   0.01997   0.00000  Uiso   1.00
C504   C     0.18395   0.81846   0.04195   0.00000  Uiso   1.00
C505   C     0.24838   0.78582   0.03895   0.00000  Uiso   1.00
C506   C     0.23657   0.78815   0.07971   0.00000  Uiso   1.00
C507   C     0.17169   0.81843   0.08319   0.00000  Uiso   1.00
C508   C     0.32718   0.84290   0.23743   0.00000  Uiso   1.00
C509   C     0.00706   0.82466   0.26226   0.00000  Uiso   1.00
C510   C     0.09775   0.88120   0.42095   0.00000  Uiso   1.00
C511   C     0.17965   0.98892   0.23794   0.00000  Uiso   1.00
C512   C     0.15025   0.67903   0.26319   0.00000  Uiso   1.00
C513   C     0.15585   0.72305   0.25898   0.00000  Uiso   1.00
C514   C     0.17646   0.94432   0.24114   0.00000  Uiso   1.00
C515   C     0.18857   0.81187   0.14411   0.00000  Uiso   1.00
C516   C     0.14515   0.85425   0.35615   0.00000  Uiso   1.00
C517   C     0.13383   0.86104   0.39931   0.00000  Uiso   1.00
C518   C     0.19824   0.80436   0.10168   0.00000  Uiso   1.00
C519   C     0.08495   0.88436   0.46204   0.00000  Uiso   1.00
C520   C     0.20780   0.66785   0.17372   0.00000  Uiso   1.00
C521   C     0.15810   0.84497   0.41882   0.00000  Uiso   1.00
C522   C     0.24167   0.69562   0.14624   0.00000  Uiso   1.00
C523   C     0.09797   0.68664   0.32369   0.00000  Uiso   1.00
C524   C     0.06399   0.99459   0.35335   0.00000  Uiso   1.00
C525   C     0.04425   0.90304   0.48294   0.00000  Uiso   1.00
C526   C     0.04075   0.94459   0.47923   0.00000  Uiso   1.00
C527   C     0.00212   0.96200   0.49827   0.00000  Uiso   1.00
C528   C     0.30002   0.93802   0.02092   0.00000  Uiso   1.00
C529   C     0.30308   0.89653   0.02442   0.00000  Uiso   1.00
C530   C     0.00826   0.87894   0.00532   0.00000  Uiso   1.00
C531   C     0.14768   0.84899   0.46012   0.00000  Uiso   1.00
C532   C     0.11016   0.86857   0.48193   0.00000  Uiso   1.00
C533   C     0.17319   0.83340   0.48016   0.00000  Uiso   1.00
C534   C     0.15951   0.83565   0.02201   0.00000  Uiso   1.00
C535   C     0.12263   0.85606   0.04256   0.00000  Uiso   1.00
C536   C     0.09901   0.87251   0.02300   0.00000  Uiso   1.00
H537   H     0.07175   0.88857   0.04071   0.00000  Uiso   1.00
H538   H     0.11136   0.86083   0.07413   0.00000  Uiso   1.00
H539   H     0.22642   0.81533   0.42845   0.00000  Uiso   1.00
H540   H     0.17521   0.67600   0.17506   0.00000  Uiso   1.00
H541   H     0.21055   0.96816   0.16113   0.00000  Uiso   1.00
H542   H     0.27468   0.68798   0.14354   0.00000  Uiso   1.00
H543   H     0.23628   0.69072   0.11665   0.00000  Uiso   1.00
H544   H     0.23922   0.72888   0.15787   0.00000  Uiso   1.00
H545   H     0.08281   0.71280   0.31823   0.00000  Uiso   1.00
H546   H     0.12501   0.69921   0.33675   0.00000  Uiso   1.00
H547   H     0.07830   0.96831   0.35956   0.00000  Uiso   1.00
H548   H     0.27826   0.77314   0.02227   0.00000  Uiso   1.00
H549   H     0.05211   0.68134   0.38120   0.00000  Uiso   1.00
H550   H     0.03618   0.98195   0.34155   0.00000  Uiso   1.00
H551   H     0.06797   0.96348   0.46173   0.00000  Uiso   1.00
H552   H     0.33298   0.99409   0.49546   0.00000  Uiso   1.00
H553   H     0.27017   0.95156   0.03569   0.00000  Uiso   1.00
H554   H     0.27558   0.87804   0.04193   0.00000  Uiso   1.00
H555   H     0.01009   0.84663   0.00796   0.00000  Uiso   1.00
H556   H     0.01710   0.85963   0.21443   0.00000  Uiso   1.00
H557   H     0.31779   0.80804   0.28564   0.00000  Uiso   1.00
H558   H     0.14252   0.83029   0.10211   0.00000  Uiso   1.00
H559   H     0.25753   0.77781   0.09417   0.00000  Uiso   1.00
H560   H     0.26635   0.78805   0.46242   0.00000  Uiso   1.00
H561   H     0.07831   0.89299   0.40582   0.00000  Uiso   1.00
H562   H     0.18461   0.82863   0.40072   0.00000  Uiso   1.00
O563   O     0.16667   0.83333   0.25000   0.00000  Uiso   1.00
O564   O     0.15693   0.79060   0.16625   0.00000  Uiso   1.00
O565   O     0.12687   0.87313   0.33749   0.00000  Uiso   1.00
O566   O     0.21088   0.84159   0.15877   0.00000  Uiso   1.00
O567   O     0.17198   0.82802   0.33749   0.00000  Uiso   1.00
O568   O     0.21527   0.67422   0.21112   0.00000  Uiso   1.00
O569   O     0.11263   0.99399   0.28844   0.00000  Uiso   1.00
O570   O     0.17849   0.74768   0.27820   0.00000  Uiso   1.00
O571   O     0.14581   0.92803   0.26767   0.00000  Uiso   1.00
O572   O     0.07452   0.79917   0.23607   0.00000  Uiso   1.00
O573   O     0.26785   0.85845   0.21805   0.00000  Uiso   1.00
O574   O     0.06990   0.85627   0.27820   0.00000  Uiso   1.00
O575   O     0.25440   0.81944   0.26767   0.00000  Uiso   1.00
O576   O     0.13800   0.73570   0.23607   0.00000  Uiso   1.00
O577   O     0.20437   0.92193   0.21805   0.00000  Uiso   1.00
Zn578  Zn    0.19244   0.80756   0.28277   0.00000  Uiso   1.00
Zn579  Zn    0.13459   0.79044   0.22257   0.00000  Uiso   1.00
Zn580  Zn    0.21166   0.86331   0.21188   0.00000  Uiso   1.00
Zn581  Zn    0.12798   0.87202   0.28277   0.00000  Uiso   1.00
C582   C     0.38584   0.82675   0.25872   0.00000  Uiso   1.00
C583   C     0.54570   0.81629   0.45974   0.00000  Uiso   1.00
C584   C     0.56975   0.80054   0.47933   0.00000  Uiso   1.00
C585   C     0.61442   0.84028   0.24115   0.00000  Uiso   1.00
C586   C     0.55607   0.80122   0.01997   0.00000  Uiso   1.00
C587   C     0.51729   0.81846   0.04195   0.00000  Uiso   1.00
C588   C     0.58171   0.78582   0.03895   0.00000  Uiso   1.00
C589   C     0.56990   0.78815   0.07971   0.00000  Uiso   1.00
C590   C     0.50503   0.81843   0.08319   0.00000  Uiso   1.00
C591   C     0.66051   0.84290   0.23743   0.00000  Uiso   1.00
C592   C     0.34040   0.82466   0.26226   0.00000  Uiso   1.00
C593   C     0.43108   0.88120   0.42095   0.00000  Uiso   1.00
C594   C     0.51299   0.98892   0.23794   0.00000  Uiso   1.00
C595   C     0.48359   0.67903   0.26319   0.00000  Uiso   1.00
C596   C     0.48918   0.72305   0.25898   0.00000  Uiso   1.00
C597   C     0.50980   0.94432   0.24114   0.00000  Uiso   1.00
C598   C     0.52190   0.81187   0.14411   0.00000  Uiso   1.00
C599   C     0.47848   0.85425   0.35615   0.00000  Uiso   1.00
C600   C     0.46716   0.86104   0.39931   0.00000  Uiso   1.00
C601   C     0.53157   0.80436   0.10168   0.00000  Uiso   1.00
C602   C     0.41829   0.88436   0.46204   0.00000  Uiso   1.00
C603   C     0.54114   0.66785   0.17372   0.00000  Uiso   1.00
C604   C     0.49143   0.84497   0.41882   0.00000  Uiso   1.00
C605   C     0.57500   0.69562   0.14624   0.00000  Uiso   1.00
C606   C     0.43131   0.68664   0.32369   0.00000  Uiso   1.00
C607   C     0.39732   0.99459   0.35335   0.00000  Uiso   1.00
C608   C     0.37759   0.90304   0.48294   0.00000  Uiso   1.00
C609   C     0.37409   0.94459   0.47923   0.00000  Uiso   1.00
C610   C     0.33545   0.96200   0.49827   0.00000  Uiso   1.00
C611   C     0.63335   0.93802   0.02092   0.00000  Uiso   1.00
C612   C     0.63641   0.89653   0.02442   0.00000  Uiso   1.00
C613   C     0.34160   0.87894   0.00532   0.00000  Uiso   1.00
C614   C     0.48102   0.84899   0.46012   0.00000  Uiso   1.00
C615   C     0.44349   0.86857   0.48193   0.00000  Uiso   1.00
C616   C     0.50652   0.83340   0.48016   0.00000  Uiso   1.00
C617   C     0.49285   0.83565   0.02201   0.00000  Uiso   1.00
C618   C     0.45597   0.85606   0.04256   0.00000  Uiso   1.00
C619   C     0.43234   0.87251   0.02300   0.00000  Uiso   1.00
H620   H     0.40508   0.88857   0.04071   0.00000  Uiso   1.00
H621   H     0.44469   0.86083   0.07413   0.00000  Uiso   1.00
H622   H     0.55975   0.81533   0.42845   0.00000  Uiso   1.00
H623   H     0.50855   0.67600   0.17506   0.00000  Uiso   1.00
H624   H     0.54388   0.96816   0.16113   0.00000  Uiso   1.00
H625   H     0.60801   0.68798   0.14354   0.00000  Uiso   1.00
H626   H     0.56962   0.69072   0.11665   0.00000  Uiso   1.00
H627   H     0.57256   0.72888   0.15787   0.00000  Uiso   1.00
H628   H     0.41614   0.71280   0.31823   0.00000  Uiso   1.00
H629   H     0.45834   0.69921   0.33675   0.00000  Uiso   1.00
H630   H     0.41163   0.96831   0.35956   0.00000  Uiso   1.00
H631   H     0.61159   0.77314   0.02227   0.00000  Uiso   1.00
H632   H     0.38545   0.68134   0.38120   0.00000  Uiso   1.00
H633   H     0.36951   0.98195   0.34155   0.00000  Uiso   1.00
H634   H     0.40130   0.96348   0.46173   0.00000  Uiso   1.00
H635   H     0.66631   0.99409   0.49546   0.00000  Uiso   1.00
H636   H     0.60350   0.95156   0.03569   0.00000  Uiso   1.00
H637   H     0.60892   0.87804   0.04193   0.00000  Uiso   1.00
H638   H     0.34343   0.84663   0.00796   0.00000  Uiso   1.00
H639   H     0.35043   0.85963   0.21443   0.00000  Uiso   1.00
H640   H     0.65112   0.80804   0.28564   0.00000  Uiso   1.00
H641   H     0.47586   0.83029   0.10211   0.00000  Uiso   1.00
H642   H     0.59086   0.77781   0.09417   0.00000  Uiso   1.00
H643   H     0.59969   0.78805   0.46242   0.00000  Uiso   1.00
H644   H     0.41164   0.89299   0.40582   0.00000  Uiso   1.00
H645   H     0.51794   0.82863   0.40072   0.00000  Uiso   1.00
O646   O     0.50000   0.83333   0.25000   0.00000  Uiso   1.00
O647   O     0.49027   0.79060   0.16625   0.00000  Uiso   1.00
O648   O     0.46020   0.87313   0.33749   0.00000  Uiso   1.00
O649   O     0.54421   0.84159   0.15877   0.00000  Uiso   1.00
O650   O     0.50532   0.82802   0.33749   0.00000  Uiso   1.00
O651   O     0.54861   0.67422   0.21112   0.00000  Uiso   1.00
O652   O     0.44596   0.99399   0.28844   0.00000  Uiso   1.00
O653   O     0.51182   0.74768   0.27820   0.00000  Uiso   1.00
O654   O     0.47914   0.92803   0.26767   0.00000  Uiso   1.00
O655   O     0.40785   0.79917   0.23607   0.00000  Uiso   1.00
O656   O     0.60119   0.85845   0.21805   0.00000  Uiso   1.00
O657   O     0.40323   0.85627   0.27820   0.00000  Uiso   1.00
O658   O     0.58773   0.81944   0.26767   0.00000  Uiso   1.00
O659   O     0.47133   0.73570   0.23607   0.00000  Uiso   1.00
O660   O     0.53771   0.92193   0.21805   0.00000  Uiso   1.00
Zn661  Zn    0.52577   0.80756   0.28277   0.00000  Uiso   1.00
Zn662  Zn    0.46792   0.79044   0.22257   0.00000  Uiso   1.00
Zn663  Zn    0.54500   0.86331   0.21188   0.00000  Uiso   1.00
Zn664  Zn    0.46131   0.87202   0.28277   0.00000  Uiso   1.00
C665   C     0.71918   0.82675   0.25872   0.00000  Uiso   1.00
C666   C     0.87904   0.81629   0.45974   0.00000  Uiso   1.00
C667   C     0.90309   0.80054   0.47933   0.00000  Uiso   1.00
C668   C     0.94775   0.84028   0.24115   0.00000  Uiso   1.00
C669   C     0.88940   0.80122   0.01997   0.00000  Uiso   1.00
C670   C     0.85062   0.81846   0.04195   0.00000  Uiso   1.00
C671   C     0.91504   0.78582   0.03895   0.00000  Uiso   1.00
C672   C     0.90324   0.78815   0.07971   0.00000  Uiso   1.00
C673   C     0.83836   0.81843   0.08319   0.00000  Uiso   1.00
C674   C     0.99385   0.84290   0.23743   0.00000  Uiso   1.00
C675   C     0.67373   0.82466   0.26226   0.00000  Uiso   1.00
C676   C     0.76442   0.88120   0.42095   0.00000  Uiso   1.00
C677   C     0.84632   0.98892   0.23794   0.00000  Uiso   1.00
C678   C     0.81692   0.67903   0.26319   0.00000  Uiso   1.00
C679   C     0.82251   0.72305   0.25898   0.00000  Uiso   1.00
C680   C     0.84313   0.94432   0.24114   0.00000  Uiso   1.00
C681   C     0.85524   0.81187   0.14411   0.00000  Uiso   1.00
C682   C     0.81181   0.85425   0.35615   0.00000  Uiso   1.00
C683   C     0.80049   0.86104   0.39931   0.00000  Uiso   1.00
C684   C     0.86491   0.80436   0.10168   0.00000  Uiso   1.00
C685   C     0.75162   0.88436   0.46204   0.00000  Uiso   1.00
C686   C     0.87447   0.66785   0.17372   0.00000  Uiso   1.00
C687   C     0.82477   0.84497   0.41882   0.00000  Uiso   1.00
C688   C     0.90834   0.69562   0.14624   0.00000  Uiso   1.00
C689   C     0.76464   0.68664   0.32369   0.00000  Uiso   1.00
C690   C     0.73066   0.99459   0.35335   0.00000  Uiso   1.00
C691   C     0.71092   0.90304   0.48294   0.00000  Uiso   1.00
C692   C     0.70742   0.94459   0.47923   0.00000  Uiso   1.00
C693   C     0.66879   0.96200   0.49827   0.00000  Uiso   1.00
C694   C     0.96669   0.93802   0.02092   0.00000  Uiso   1.00
C695   C     0.96975   0.89653   0.02442   0.00000  Uiso   1.00
C696   C     0.67493   0.87894   0.00532   0.00000  Uiso   1.00
C697   C     0.81435   0.84899   0.46012   0.00000  Uiso   1.00
C698   C     0.77683   0.86857   0.48193   0.00000  Uiso   1.00
C699   C     0.83986   0.83340   0.48016   0.00000  Uiso   1.00
C700   C     0.82618   0.83565   0.02201   0.00000  Uiso   1.00
C701   C     0.78930   0.85606   0.04256   0.00000  Uiso   1.00
C702   C     0.76568   0.87251   0.02300   0.00000  Uiso   1.00
H703   H     0.73842   0.88857   0.04071   0.00000  Uiso   1.00
H704   H     0.77803   0.86083   0.07413   0.00000  Uiso   1.00
H705   H     0.89309   0.81533   0.42845   0.00000  Uiso   1.00
H706   H     0.84188   0.67600   0.17506   0.00000  Uiso   1.00
H707   H     0.87721   0.96816   0.16113   0.00000  Uiso   1.00
H708   H     0.94135   0.68798   0.14354   0.00000  Uiso   1.00
H709   H     0.90295   0.69072   0.11665   0.00000  Uiso   1.00
H710   H     0.90589   0.72888   0.15787   0.00000  Uiso   1.00
H711   H     0.74948   0.71280   0.31823   0.00000  Uiso   1.00
H712   H     0.79167   0.69921   0.33675   0.00000  Uiso   1.00
H713   H     0.74497   0.96831   0.35956   0.00000  Uiso   1.00
H714   H     0.94493   0.77314   0.02227   0.00000  Uiso   1.00
H715   H     0.71878   0.68134   0.38120   0.00000  Uiso   1.00
H716   H     0.70285   0.98195   0.34155   0.00000  Uiso   1.00
H717   H     0.73463   0.96348   0.46173   0.00000  Uiso   1.00
H718   H     0.99965   0.99409   0.49546   0.00000  Uiso   1.00
H719   H     0.93683   0.95156   0.03569   0.00000  Uiso   1.00
H720   H     0.94225   0.87804   0.04193   0.00000  Uiso   1.00
H721   H     0.67676   0.84663   0.00796   0.00000  Uiso   1.00
H722   H     0.68376   0.85963   0.21443   0.00000  Uiso   1.00
H723   H     0.98445   0.80804   0.28564   0.00000  Uiso   1.00
H724   H     0.80919   0.83029   0.10211   0.00000  Uiso   1.00
H725   H     0.92419   0.77781   0.09417   0.00000  Uiso   1.00
H726   H     0.93302   0.78805   0.46242   0.00000  Uiso   1.00
H727   H     0.74497   0.89299   0.40582   0.00000  Uiso   1.00
H728   H     0.85128   0.82863   0.40072   0.00000  Uiso   1.00
O729   O     0.83333   0.83333   0.25000   0.00000  Uiso   1.00
O730   O     0.82360   0.79060   0.16625   0.00000  Uiso   1.00
O731   O     0.79354   0.87313   0.33749   0.00000  Uiso   1.00
O732   O     0.87755   0.84159   0.15877   0.00000  Uiso   1.00
O733   O     0.83865   0.82802   0.33749   0.00000  Uiso   1.00
O734   O     0.88194   0.67422   0.21112   0.00000  Uiso   1.00
O735   O     0.77929   0.99399   0.28844   0.00000  Uiso   1.00
O736   O     0.84515   0.74768   0.27820   0.00000  Uiso   1.00
O737   O     0.81247   0.92803   0.26767   0.00000  Uiso   1.00
O738   O     0.74119   0.79917   0.23607   0.00000  Uiso   1.00
O739   O     0.93452   0.85845   0.21805   0.00000  Uiso   1.00
O740   O     0.73656   0.85627   0.27820   0.00000  Uiso   1.00
O741   O     0.92106   0.81944   0.26767   0.00000  Uiso   1.00
O742   O     0.80467   0.73570   0.23607   0.00000  Uiso   1.00
O743   O     0.87104   0.92193   0.21805   0.00000  Uiso   1.00
Zn744  Zn    0.85910   0.80756   0.28277   0.00000  Uiso   1.00
Zn745  Zn    0.80125   0.79044   0.22257   0.00000  Uiso   1.00
Zn746  Zn    0.87833   0.86331   0.21188   0.00000  Uiso   1.00
Zn747  Zn    0.79465   0.87202   0.28277   0.00000  Uiso   1.00
C748   C     0.05251   0.16008   0.75872   0.00000  Uiso   1.00
C749   C     0.21237   0.14962   0.95974   0.00000  Uiso   1.00
C750   C     0.23642   0.13388   0.97933   0.00000  Uiso   1.00
C751   C     0.28108   0.17361   0.74115   0.00000  Uiso   1.00
C752   C     0.22274   0.13456   0.51997   0.00000  Uiso   1.00
C753   C     0.18395   0.15179   0.54195   0.00000  Uiso   1.00
C754   C     0.24838   0.11915   0.53895   0.00000  Uiso   1.00
C755   C     0.23657   0.12148   0.57971   0.00000  Uiso   1.00
C756   C     0.17169   0.15177   0.58319   0.00000  Uiso   1.00
C757   C     0.32718   0.17623   0.73743   0.00000  Uiso   1.00
C758   C     0.00706   0.15799   0.76226   0.00000  Uiso   1.00
C759   C     0.09775   0.21453   0.92095   0.00000  Uiso   1.00
C760   C     0.17965   0.32225   0.73794   0.00000  Uiso   1.00
C761   C     0.15025   0.01237   0.76319   0.00000  Uiso   1.00
C762   C     0.15585   0.05638   0.75898   0.00000  Uiso   1.00
C763   C     0.17646   0.27765   0.74114   0.00000  Uiso   1.00
C764   C     0.18857   0.14521   0.64411   0.00000  Uiso   1.00
C765   C     0.14515   0.18758   0.85615   0.00000  Uiso   1.00
C766   C     0.13383   0.19437   0.89931   0.00000  Uiso   1.00
C767   C     0.19824   0.13769   0.60168   0.00000  Uiso   1.00
C768   C     0.08495   0.21769   0.96204   0.00000  Uiso   1.00
C769   C     0.20780   0.00118   0.67372   0.00000  Uiso   1.00
C770   C     0.15810   0.17830   0.91882   0.00000  Uiso   1.00
C771   C     0.24167   0.02895   0.64624   0.00000  Uiso   1.00
C772   C     0.09797   0.01997   0.82369   0.00000  Uiso   1.00
C773   C     0.06399   0.32793   0.85335   0.00000  Uiso   1.00
C774   C     0.04425   0.23637   0.98294   0.00000  Uiso   1.00
C775   C     0.04075   0.27793   0.97923   0.00000  Uiso   1.00
C776   C     0.00212   0.29533   0.99827   0.00000  Uiso   1.00
C777   C     0.30002   0.27135   0.52092   0.00000  Uiso   1.00
C778   C     0.30308   0.22986   0.52442   0.00000  Uiso   1.00
C779   C     0.00826   0.21227   0.50532   0.00000  Uiso   1.00
C780   C     0.14768   0.18233   0.96012   0.00000  Uiso   1.00
C781   C     0.11016   0.20191   0.98193   0.00000  Uiso   1.00
C782   C     0.17319   0.16674   0.98016   0.00000  Uiso   1.00
C783   C     0.15951   0.16898   0.52201   0.00000  Uiso   1.00
C784   C     0.12263   0.18939   0.54256   0.00000  Uiso   1.00
C785   C     0.09901   0.20585   0.52300   0.00000  Uiso   1.00
H786   H     0.07175   0.22191   0.54071   0.00000  Uiso   1.00
H787   H     0.11136   0.19416   0.57413   0.00000  Uiso   1.00
H788   H     0.22642   0.14867   0.92845   0.00000  Uiso   1.00
H789   H     0.17521   0.00934   0.67506   0.00000  Uiso   1.00
H790   H     0.21055   0.30149   0.66113   0.00000  Uiso   1.00
H791   H     0.27468   0.02132   0.64354   0.00000  Uiso   1.00
H792   H     0.23628   0.02405   0.61665   0.00000  Uiso   1.00
H793   H     0.23922   0.06221   0.65787   0.00000  Uiso   1.00
H794   H     0.08281   0.04613   0.81823   0.00000  Uiso   1.00
H795   H     0.12501   0.03254   0.83675   0.00000  Uiso   1.00
H796   H     0.07830   0.30165   0.85956   0.00000  Uiso   1.00
H797   H     0.27826   0.10647   0.52227   0.00000  Uiso   1.00
H798   H     0.05211   0.01467   0.88120   0.00000  Uiso   1.00
H799   H     0.03618   0.31528   0.84155   0.00000  Uiso   1.00
H800   H     0.06797   0.29682   0.96173   0.00000  Uiso   1.00
H801   H     0.33298   0.32742   0.99546   0.00000  Uiso   1.00
H802   H     0.27017   0.28489   0.53569   0.00000  Uiso   1.00
H803   H     0.27558   0.21138   0.54193   0.00000  Uiso   1.00
H804   H     0.01009   0.17996   0.50796   0.00000  Uiso   1.00
H805   H     0.01710   0.19296   0.71443   0.00000  Uiso   1.00
H806   H     0.31779   0.14137   0.78564   0.00000  Uiso   1.00
H807   H     0.14252   0.16362   0.60211   0.00000  Uiso   1.00
H808   H     0.25753   0.11114   0.59417   0.00000  Uiso   1.00
H809   H     0.26635   0.12138   0.96242   0.00000  Uiso   1.00
H810   H     0.07831   0.22632   0.90582   0.00000  Uiso   1.00
H811   H     0.18461   0.16197   0.90072   0.00000  Uiso   1.00
O812   O     0.16667   0.16667   0.75000   0.00000  Uiso   1.00
O813   O     0.15693   0.12393   0.66625   0.00000  Uiso   1.00
O814   O     0.12687   0.20646   0.83749   0.00000  Uiso   1.00
O815   O     0.21088   0.17493   0.65877   0.00000  Uiso   1.00
O816   O     0.17198   0.16135   0.83749   0.00000  Uiso   1.00
O817   O     0.21527   0.00755   0.71112   0.00000  Uiso   1.00
O818   O     0.11263   0.32732   0.78844   0.00000  Uiso   1.00
O819   O     0.17849   0.08101   0.77820   0.00000  Uiso   1.00
O820   O     0.14581   0.26136   0.76767   0.00000  Uiso   1.00
O821   O     0.07452   0.13251   0.73607   0.00000  Uiso   1.00
O822   O     0.26785   0.19179   0.71805   0.00000  Uiso   1.00
O823   O     0.06990   0.18960   0.77820   0.00000  Uiso   1.00
O824   O     0.25440   0.15277   0.76767   0.00000  Uiso   1.00
O825   O     0.13800   0.06903   0.73607   0.00000  Uiso   1.00
O826   O     0.20437   0.25527   0.71805   0.00000  Uiso   1.00
Zn827  Zn    0.19244   0.14090   0.78277   0.00000  Uiso   1.00
Zn828  Zn    0.13459   0.12378   0.72257   0.00000  Uiso   1.00
Zn829  Zn    0.21166   0.19664   0.71188   0.00000  Uiso   1.00
Zn830  Zn    0.12798   0.20535   0.78277   0.00000  Uiso   1.00
C831   C     0.38584   0.16008   0.75872   0.00000  Uiso   1.00
C832   C     0.54570   0.14962   0.95974   0.00000  Uiso   1.00
C833   C     0.56975   0.13388   0.97933   0.00000  Uiso   1.00
C834   C     0.61442   0.17361   0.74115   0.00000  Uiso   1.00
C835   C     0.55607   0.13456   0.51997   0.00000  Uiso   1.00
C836   C     0.51729   0.15179   0.54195   0.00000  Uiso   1.00
C837   C     0.58171   0.11915   0.53895   0.00000  Uiso   1.00
C838   C     0.56990   0.12148   0.57971   0.00000  Uiso   1.00
C839   C     0.50503   0.15177   0.58319   0.00000  Uiso   1.00
C840   C     0.66051   0.17623   0.73743   0.00000  Uiso   1.00
C841   C     0.34040   0.15799   0.76226   0.00000  Uiso   1.00
C842   C     0.43108   0.21453   0.92095   0.00000  Uiso   1.00
C843   C     0.51299   0.32225   0.73794   0.00000  Uiso   1.00
C844   C     0.48359   0.01237   0.76319   0.00000  Uiso   1.00
C845   C     0.48918   0.05638   0.75898   0.00000  Uiso   1.00
C846   C     0.50980   0.27765   0.74114   0.00000  Uiso   1.00
C847   C     0.52190   0.14521   0.64411   0.00000  Uiso   1.00
C848   C     0.47848   0.18758   0.85615   0.00000  Uiso   1.00
C849   C     0.46716   0.19437   0.89931   0.00000  Uiso   1.00
C850   C     0.53157   0.13769   0.60168   0.00000  Uiso   1.00
C851   C     0.41829   0.21769   0.96204   0.00000  Uiso   1.00
C852   C     0.54114   0.00118   0.67372   0.00000  Uiso   1.00
C853   C     0.49143   0.17830   0.91882   0.00000  Uiso   1.00
C854   C     0.57500   0.02895   0.64624   0.00000  Uiso   1.00
C855   C     0.43131   0.01997   0.82369   0.00000  Uiso   1.00
C856   C     0.39732   0.32793   0.85335   0.00000  Uiso   1.00
C857   C     0.37759   0.23637   0.98294   0.00000  Uiso   1.00
C858   C     0.37409   0.27793   0.97923   0.00000  Uiso   1.00
C859   C     0.33545   0.29533   0.99827   0.00000  Uiso   1.00
C860   C     0.63335   0.27135   0.52092   0.00000  Uiso   1.00
C861   C     0.63641   0.22986   0.52442   0.00000  Uiso   1.00
C862   C     0.34160   0.21227   0.50532   0.00000  Uiso   1.00
C863   C     0.48102   0.18233   0.96012   0.00000  Uiso   1.00
C864   C     0.44349   0.20191   0.98193   0.00000  Uiso   1.00
C865   C     0.50652   0.16674   0.98016   0.00000  Uiso   1.00
C866   C     0.49285   0.16898   0.52201   0.00000  Uiso   1.00
C867   C     0.45597   0.18939   0.54256   0.00000  Uiso   1.00
C868   C     0.43234   0.20585   0.52300   0.00000  Uiso   1.00
H869   H     0.40508   0.22191   0.54071   0.00000  Uiso   1.00
H870   H     0.44469   0.19416   0.57413   0.00000  Uiso   1.00
H871   H     0.55975   0.14867   0.92845   0.00000  Uiso   1.00
H872   H     0.50855   0.00934   0.67506   0.00000  Uiso   1.00
H873   H     0.54388   0.30149   0.66113   0.00000  Uiso   1.00
H874   H     0.60801   0.02132   0.64354   0.00000  Uiso   1.00
H875   H     0.56962   0.02405   0.61665   0.00000  Uiso   1.00
H876   H     0.57256   0.06221   0.65787   0.00000  Uiso   1.00
H877   H     0.41614   0.04613   0.81823   0.00000  Uiso   1.00
H878   H     0.45834   0.03254   0.83675   0.00000  Uiso   1.00
H879   H     0.41163   0.30165   0.85956   0.00000  Uiso   1.00
H880   H     0.61159   0.10647   0.52227   0.00000  Uiso   1.00
H881   H     0.38545   0.01467   0.88120   0.00000  Uiso   1.00
H882   H     0.36951   0.31528   0.84155   0.00000  Uiso   1.00
H883   H     0.40130   0.29682   0.96173   0.00000  Uiso   1.00
H884   H     0.66631   0.32742   0.99546   0.00000  Uiso   1.00
H885   H     0.60350   0.28489   0.53569   0.00000  Uiso   1.00
H886   H     0.60892   0.21138   0.54193   0.00000  Uiso   1.00
H887   H     0.34343   0.17996   0.50796   0.00000  Uiso   1.00
H888   H     0.35043   0.19296   0.71443   0.00000  Uiso   1.00
H889   H     0.65112   0.14137   0.78564   0.00000  Uiso   1.00
H890   H     0.47586   0.16362   0.60211   0.00000  Uiso   1.00
H891   H     0.59086   0.11114   0.59417   0.00000  Uiso   1.00
H892   H     0.59969   0.12138   0.96242   0.00000  Uiso   1.00
H893   H     0.41164   0.22632   0.90582   0.00000  Uiso   1.00
H894   H     0.51794   0.16197   0.90072   0.00000  Uiso   1.00
O895   O     0.50000   0.16667   0.75000   0.00000  Uiso   1.00
O896   O     0.49027   0.12393   0.66625   0.00000  Uiso   1.00
O897   O     0.46020   0.20646   0.83749   0.00000  Uiso   1.00
O898   O     0.54421   0.17493   0.65877   0.00000  Uiso   1.00
O899   O     0.50532   0.16135   0.83749   0.00000  Uiso   1.00
O900   O     0.54861   0.00755   0.71112   0.00000  Uiso   1.00
O901   O     0.44596   0.32732   0.78844   0.00000  Uiso   1.00
O902   O     0.51182   0.08101   0.77820   0.00000  Uiso   1.00
O903   O     0.47914   0.26136   0.76767   0.00000  Uiso   1.00
O904   O     0.40785   0.13251   0.73607   0.00000  Uiso   1.00
O905   O     0.60119   0.19179   0.71805   0.00000  Uiso   1.00
O906   O     0.40323   0.18960   0.77820   0.00000  Uiso   1.00
O907   O     0.58773   0.15277   0.76767   0.00000  Uiso   1.00
O908   O     0.47133   0.06903   0.73607   0.00000  Uiso   1.00
O909   O     0.53771   0.25527   0.71805   0.00000  Uiso   1.00
Zn910  Zn    0.52577   0.14090   0.78277   0.00000  Uiso   1.00
Zn911  Zn    0.46792   0.12378   0.72257   0.00000  Uiso   1.00
Zn912  Zn    0.54500   0.19664   0.71188   0.00000  Uiso   1.00
Zn913  Zn    0.46131   0.20535   0.78277   0.00000  Uiso   1.00
C914   C     0.71918   0.16008   0.75872   0.00000  Uiso   1.00
C915   C     0.87904   0.14962   0.95974   0.00000  Uiso   1.00
C916   C     0.90309   0.13388   0.97933   0.00000  Uiso   1.00
C917   C     0.94775   0.17361   0.74115   0.00000  Uiso   1.00
C918   C     0.88940   0.13456   0.51997   0.00000  Uiso   1.00
C919   C     0.85062   0.15179   0.54195   0.00000  Uiso   1.00
C920   C     0.91504   0.11915   0.53895   0.00000  Uiso   1.00
C921   C     0.90324   0.12148   0.57971   0.00000  Uiso   1.00
C922   C     0.83836   0.15177   0.58319   0.00000  Uiso   1.00
C923   C     0.99385   0.17623   0.73743   0.00000  Uiso   1.00
C924   C     0.67373   0.15799   0.76226   0.00000  Uiso   1.00
C925   C     0.76442   0.21453   0.92095   0.00000  Uiso   1.00
C926   C     0.84632   0.32225   0.73794   0.00000  Uiso   1.00
C927   C     0.81692   0.01237   0.76319   0.00000  Uiso   1.00
C928   C     0.82251   0.05638   0.75898   0.00000  Uiso   1.00
C929   C     0.84313   0.27765   0.74114   0.00000  Uiso   1.00
C930   C     0.85524   0.14521   0.64411   0.00000  Uiso   1.00
C931   C     0.81181   0.18758   0.85615   0.00000  Uiso   1.00
C932   C     0.80049   0.19437   0.89931   0.00000  Uiso   1.00
C933   C     0.86491   0.13769   0.60168   0.00000  Uiso   1.00
C934   C     0.75162   0.21769   0.96204   0.00000  Uiso   1.00
C935   C     0.87447   0.00118   0.67372   0.00000  Uiso   1.00
C936   C     0.82477   0.17830   0.91882   0.00000  Uiso   1.00
C937   C     0.90834   0.02895   0.64624   0.00000  Uiso   1.00
C938   C     0.76464   0.01997   0.82369   0.00000  Uiso   1.00
C939   C     0.73066   0.32793   0.85335   0.00000  Uiso   1.00
C940   C     0.71092   0.23637   0.98294   0.00000  Uiso   1.00
C941   C     0.70742   0.27793   0.97923   0.00000  Uiso   1.00
C942   C     0.66879   0.29533   0.99827   0.00000  Uiso   1.00
C943   C     0.96669   0.27135   0.52092   0.00000  Uiso   1.00
C944   C     0.96975   0.22986   0.52442   0.00000  Uiso   1.00
C945   C     0.67493   0.21227   0.50532   0.00000  Uiso   1.00
C946   C     0.81435   0.18233   0.96012   0.00000  Uiso   1.00
C947   C     0.77683   0.20191   0.98193   0.00000  Uiso   1.00
C948   C     0.83986   0.16674   0.98016   0.00000  Uiso   1.00
C949   C     0.82618   0.16898   0.52201   0.00000  Uiso   1.00
C950   C     0.78930   0.18939   0.54256   0.00000  Uiso   1.00
C951   C     0.76568   0.20585   0.52300   0.00000  Uiso   1.00
H952   H     0.73842   0.22191   0.54071   0.00000  Uiso   1.00
H953   H     0.77803   0.19416   0.57413   0.00000  Uiso   1.00
H954   H     0.89309   0.14867   0.92845   0.00000  Uiso   1.00
H955   H     0.84188   0.00934   0.67506   0.00000  Uiso   1.00
H956   H     0.87721   0.30149   0.66113   0.00000  Uiso   1.00
H957   H     0.94135   0.02132   0.64354   0.00000  Uiso   1.00
H958   H     0.90295   0.02405   0.61665   0.00000  Uiso   1.00
H959   H     0.90589   0.06221   0.65787   0.00000  Uiso   1.00
H960   H     0.74948   0.04613   0.81823   0.00000  Uiso   1.00
H961   H     0.79167   0.03254   0.83675   0.00000  Uiso   1.00
H962   H     0.74497   0.30165   0.85956   0.00000  Uiso   1.00
H963   H     0.94493   0.10647   0.52227   0.00000  Uiso   1.00
H964   H     0.71878   0.01467   0.88120   0.00000  Uiso   1.00
H965   H     0.70285   0.31528   0.84155   0.00000  Uiso   1.00
H966   H     0.73463   0.29682   0.96173   0.00000  Uiso   1.00
H967   H     0.99965   0.32742   0.99546   0.00000  Uiso   1.00
H968   H     0.93683   0.28489   0.53569   0.00000  Uiso   1.00
H969   H     0.94225   0.21138   0.54193   0.00000  Uiso   1.00
H970   H     0.67676   0.17996   0.50796   0.00000  Uiso   1.00
H971   H     0.68376   0.19296   0.71443   0.00000  Uiso   1.00
H972   H     0.98445   0.14137   0.78564   0.00000  Uiso   1.00
H973   H     0.80919   0.16362   0.60211   0.00000  Uiso   1.00
H974   H     0.92419   0.11114   0.59417   0.00000  Uiso   1.00
H975   H     0.93302   0.12138   0.96242   0.00000  Uiso   1.00
H976   H     0.74497   0.22632   0.90582   0.00000  Uiso   1.00
H977   H     0.85128   0.16197   0.90072   0.00000  Uiso   1.00
O978   O     0.83333   0.16667   0.75000   0.00000  Uiso   1.00
O979   O     0.82360   0.12393   0.66625   0.00000  Uiso   1.00
O980   O     0.79354   0.20646   0.83749   0.00000  Uiso   1.00
O981   O     0.87755   0.17493   0.65877   0.00000  Uiso   1.00
O982   O     0.83865   0.16135   0.83749   0.00000  Uiso   1.00
O983   O     0.88194   0.00755   0.71112   0.00000  Uiso   1.00
O984   O     0.77929   0.32732   0.78844   0.00000  Uiso   1.00
O985   O     0.84515   0.08101   0.77820   0.00000  Uiso   1.00
O986   O     0.81247   0.26136   0.76767   0.00000  Uiso   1.00
O987   O     0.74119   0.13251   0.73607   0.00000  Uiso   1.00
O988   O     0.93452   0.19179   0.71805   0.00000  Uiso   1.00
O989   O     0.73656   0.18960   0.77820   0.00000  Uiso   1.00
O990   O     0.92106   0.15277   0.76767   0.00000  Uiso   1.00
O991   O     0.80467   0.06903   0.73607   0.00000  Uiso   1.00
O992   O     0.87104   0.25527   0.71805   0.00000  Uiso   1.00
Zn993  Zn    0.85910   0.14090   0.78277   0.00000  Uiso   1.00
Zn994  Zn    0.80125   0.12378   0.72257   0.00000  Uiso   1.00
Zn995  Zn    0.87833   0.19664   0.71188   0.00000  Uiso   1.00
Zn996  Zn    0.79465   0.20535   0.78277   0.00000  Uiso   1.00
C997   C     0.05251   0.49342   0.75872   0.00000  Uiso   1.00
C998   C     0.21237   0.48295   0.95974   0.00000  Uiso   1.00
C999   C     0.23642   0.46721   0.97933   0.00000  Uiso   1.00
C1000  C     0.28108   0.50695   0.74115   0.00000  Uiso   1.00
C1001  C     0.22274   0.46789   0.51997   0.00000  Uiso   1.00
C1002  C     0.18395   0.48512   0.54195   0.00000  Uiso   1.00
C1003  C     0.24838   0.45249   0.53895   0.00000  Uiso   1.00
C1004  C     0.23657   0.45481   0.57971   0.00000  Uiso   1.00
C1005  C     0.17169   0.48510   0.58319   0.00000  Uiso   1.00
C1006  C     0.32718   0.50956   0.73743   0.00000  Uiso   1.00
C1007  C     0.00706   0.49132   0.76226   0.00000  Uiso   1.00
C1008  C     0.09775   0.54787   0.92095   0.00000  Uiso   1.00
C1009  C     0.17965   0.65558   0.73794   0.00000  Uiso   1.00
C1010  C     0.15025   0.34570   0.76319   0.00000  Uiso   1.00
C1011  C     0.15585   0.38972   0.75898   0.00000  Uiso   1.00
C1012  C     0.17646   0.61099   0.74114   0.00000  Uiso   1.00
C1013  C     0.18857   0.47854   0.64411   0.00000  Uiso   1.00
C1014  C     0.14515   0.52092   0.85615   0.00000  Uiso   1.00
C1015  C     0.13383   0.52771   0.89931   0.00000  Uiso   1.00
C1016  C     0.19824   0.47102   0.60168   0.00000  Uiso   1.00
C1017  C     0.08495   0.55103   0.96204   0.00000  Uiso   1.00
C1018  C     0.20780   0.33451   0.67372   0.00000  Uiso   1.00
C1019  C     0.15810   0.51164   0.91882   0.00000  Uiso   1.00
C1020  C     0.24167   0.36228   0.64624   0.00000  Uiso   1.00
C1021  C     0.09797   0.35331   0.82369   0.00000  Uiso   1.00
C1022  C     0.06399   0.66126   0.85335   0.00000  Uiso   1.00
C1023  C     0.04425   0.56971   0.98294   0.00000  Uiso   1.00
C1024  C     0.04075   0.61126   0.97923   0.00000  Uiso   1.00
C1025  C     0.00212   0.62867   0.99827   0.00000  Uiso   1.00
C1026  C     0.30002   0.60469   0.52092   0.00000  Uiso   1.00
C1027  C     0.30308   0.56320   0.52442   0.00000  Uiso   1.00
C1028  C     0.00826   0.54560   0.50532   0.00000  Uiso   1.00
C1029  C     0.14768   0.51566   0.96012   0.00000  Uiso   1.00
C1030  C     0.11016   0.53524   0.98193   0.00000  Uiso   1.00
C1031  C     0.17319   0.50007   0.98016   0.00000  Uiso   1.00
C1032  C     0.15951   0.50231   0.52201   0.00000  Uiso   1.00
C1033  C     0.12263   0.52272   0.54256   0.00000  Uiso   1.00
C1034  C     0.09901   0.53918   0.52300   0.00000  Uiso   1.00
H1035  H     0.07175   0.55524   0.54071   0.00000  Uiso   1.00
H1036  H     0.11136   0.52750   0.57413   0.00000  Uiso   1.00
H1037  H     0.22642   0.48200   0.92845   0.00000  Uiso   1.00
H1038  H     0.17521   0.34267   0.67506   0.00000  Uiso   1.00
H1039  H     0.21055   0.63482   0.66113   0.00000  Uiso   1.00
H1040  H     0.27468   0.35465   0.64354   0.00000  Uiso   1.00
H1041  H     0.23628   0.35738   0.61665   0.00000  Uiso   1.00
H1042  H     0.23922   0.39555   0.65787   0.00000  Uiso   1.00
H1043  H     0.08281   0.37946   0.81823   0.00000  Uiso   1.00
H1044  H     0.12501   0.36588   0.83675   0.00000  Uiso   1.00
H1045  H     0.07830   0.63498   0.85956   0.00000  Uiso   1.00
H1046  H     0.27826   0.43980   0.52227   0.00000  Uiso   1.00
H1047  H     0.05211   0.34800   0.88120   0.00000  Uiso   1.00
H1048  H     0.03618   0.64862   0.84155   0.00000  Uiso   1.00
H1049  H     0.06797   0.63015   0.96173   0.00000  Uiso   1.00
H1050  H     0.33298   0.66075   0.99546   0.00000  Uiso   1.00
H1051  H     0.27017   0.61823   0.53569   0.00000  Uiso   1.00
H1052  H     0.27558   0.54471   0.54193   0.00000  Uiso   1.00
H1053  H     0.01009   0.51329   0.50796   0.00000  Uiso   1.00
H1054  H     0.01710   0.52630   0.71443   0.00000  Uiso   1.00
H1055  H     0.31779   0.47470   0.78564   0.00000  Uiso   1.00
H1056  H     0.14252   0.49695   0.60211   0.00000  Uiso   1.00
H1057  H     0.25753   0.44447   0.59417   0.00000  Uiso   1.00
H1058  H     0.26635   0.45472   0.96242   0.00000  Uiso   1.00
H1059  H     0.07831   0.55965   0.90582   0.00000  Uiso   1.00
H1060  H     0.18461   0.49530   0.90072   0.00000  Uiso   1.00
O1061  O     0.16667   0.50000   0.75000   0.00000  Uiso   1.00
O1062  O     0.15693   0.45726   0.66625   0.00000  Uiso   1.00
O1063  O     0.12687   0.53979   0.83749   0.00000  Uiso   1.00
O1064  O     0.21088   0.50826   0.65877   0.00000  Uiso   1.00
O1065  O     0.17198   0.49468   0.83749   0.00000  Uiso   1.00
O1066  O     0.21527   0.34088   0.71112   0.00000  Uiso   1.00
O1067  O     0.11263   0.66066   0.78844   0.00000  Uiso   1.00
O1068  O     0.17849   0.41434   0.77820   0.00000  Uiso   1.00
O1069  O     0.14581   0.59469   0.76767   0.00000  Uiso   1.00
O1070  O     0.07452   0.46584   0.73607   0.00000  Uiso   1.00
O1071  O     0.26785   0.52512   0.71805   0.00000  Uiso   1.00
O1072  O     0.06990   0.52293   0.77820   0.00000  Uiso   1.00
O1073  O     0.25440   0.48610   0.76767   0.00000  Uiso   1.00
O1074  O     0.13800   0.40236   0.73607   0.00000  Uiso   1.00
O1075  O     0.20437   0.58860   0.71805   0.00000  Uiso   1.00
Zn1076 Zn    0.19244   0.47423   0.78277   0.00000  Uiso   1.00
Zn1077 Zn    0.13459   0.45711   0.72257   0.00000  Uiso   1.00
Zn1078 Zn    0.21166   0.52997   0.71188   0.00000  Uiso   1.00
Zn1079 Zn    0.12798   0.53868   0.78277   0.00000  Uiso   1.00
C1080  C     0.38584   0.49342   0.75872   0.00000  Uiso   1.00
C1081  C     0.54570   0.48295   0.95974   0.00000  Uiso   1.00
C1082  C     0.56975   0.46721   0.97933   0.00000  Uiso   1.00
C1083  C     0.61442   0.50695   0.74115   0.00000  Uiso   1.00
C1084  C     0.55607   0.46789   0.51997   0.00000  Uiso   1.00
C1085  C     0.51729   0.48512   0.54195   0.00000  Uiso   1.00
C1086  C     0.58171   0.45249   0.53895   0.00000  Uiso   1.00
C1087  C     0.56990   0.45481   0.57971   0.00000  Uiso   1.00
C1088  C     0.50503   0.48510   0.58319   0.00000  Uiso   1.00
C1089  C     0.66051   0.50956   0.73743   0.00000  Uiso   1.00
C1090  C     0.34040   0.49132   0.76226   0.00000  Uiso   1.00
C1091  C     0.43108   0.54787   0.92095   0.00000  Uiso   1.00
C1092  C     0.51299   0.65558   0.73794   0.00000  Uiso   1.00
C1093  C     0.48359   0.34570   0.76319   0.00000  Uiso   1.00
C1094  C     0.48918   0.38972   0.75898   0.00000  Uiso   1.00
C1095  C     0.50980   0.61099   0.74114   0.00000  Uiso   1.00
C1096  C     0.52190   0.47854   0.64411   0.00000  Uiso   1.00
C1097  C     0.47848   0.52092   0.85615   0.00000  Uiso   1.00
C1098  C     0.46716   0.52771   0.89931   0.00000  Uiso   1.00
C1099  C     0.53157   0.47102   0.60168   0.00000  Uiso   1.00
C1100  C     0.41829   0.55103   0.96204   0.00000  Uiso   1.00
C1101  C     0.54114   0.33451   0.67372   0.00000  Uiso   1.00
C1102  C     0.49143   0.51164   0.91882   0.00000  Uiso   1.00
C1103  C     0.57500   0.36228   0.64624   0.00000  Uiso   1.00
C1104  C     0.43131   0.35331   0.82369   0.00000  Uiso   1.00
C1105  C     0.39732   0.66126   0.85335   0.00000  Uiso   1.00
C1106  C     0.37759   0.56971   0.98294   0.00000  Uiso   1.00
C1107  C     0.37409   0.61126   0.97923   0.00000  Uiso   1.00
C1108  C     0.33545   0.62867   0.99827   0.00000  Uiso   1.00
C1109  C     0.63335   0.60469   0.52092   0.00000  Uiso   1.00
C1110  C     0.63641   0.56320   0.52442   0.00000  Uiso   1.00
C1111  C     0.34160   0.54560   0.50532   0.00000  Uiso   1.00
C1112  C     0.48102   0.51566   0.96012   0.00000  Uiso   1.00
C1113  C     0.44349   0.53524   0.98193   0.00000  Uiso   1.00
C1114  C     0.50652   0.50007   0.98016   0.00000  Uiso   1.00
C1115  C     0.49285   0.50231   0.52201   0.00000  Uiso   1.00
C1116  C     0.45597   0.52272   0.54256   0.00000  Uiso   1.00
C1117  C     0.43234   0.53918   0.52300   0.00000  Uiso   1.00
H1118  H     0.40508   0.55524   0.54071   0.00000  Uiso   1.00
H1119  H     0.44469   0.52750   0.57413   0.00000  Uiso   1.00
H1120  H     0.55975   0.48200   0.92845   0.00000  Uiso   1.00
H1121  H     0.50855   0.34267   0.67506   0.00000  Uiso   1.00
H1122  H     0.54388   0.63482   0.66113   0.00000  Uiso   1.00
H1123  H     0.60801   0.35465   0.64354   0.00000  Uiso   1.00
H1124  H     0.56962   0.35738   0.61665   0.00000  Uiso   1.00
H1125  H     0.57256   0.39555   0.65787   0.00000  Uiso   1.00
H1126  H     0.41614   0.37946   0.81823   0.00000  Uiso   1.00
H1127  H     0.45834   0.36588   0.83675   0.00000  Uiso   1.00
H1128  H     0.41163   0.63498   0.85956   0.00000  Uiso   1.00
H1129  H     0.61159   0.43980   0.52227   0.00000  Uiso   1.00
H1130  H     0.38545   0.34800   0.88120   0.00000  Uiso   1.00
H1131  H     0.36951   0.64862   0.84155   0.00000  Uiso   1.00
H1132  H     0.40130   0.63015   0.96173   0.00000  Uiso   1.00
H1133  H     0.66631   0.66075   0.99546   0.00000  Uiso   1.00
H1134  H     0.60350   0.61823   0.53569   0.00000  Uiso   1.00
H1135  H     0.60892   0.54471   0.54193   0.00000  Uiso   1.00
H1136  H     0.34343   0.51329   0.50796   0.00000  Uiso   1.00
H1137  H     0.35043   0.52630   0.71443   0.00000  Uiso   1.00
H1138  H     0.65112   0.47470   0.78564   0.00000  Uiso   1.00
H1139  H     0.47586   0.49695   0.60211   0.00000  Uiso   1.00
H1140  H     0.59086   0.44447   0.59417   0.00000  Uiso   1.00
H1141  H     0.59969   0.45472   0.96242   0.00000  Uiso   1.00
H1142  H     0.41164   0.55965   0.90582   0.00000  Uiso   1.00
H1143  H     0.51794   0.49530   0.90072   0.00000  Uiso   1.00
O1144  O     0.50000   0.50000   0.75000   0.00000  Uiso   1.00
O1145  O     0.49027   0.45726   0.66625   0.00000  Uiso   1.00
O1146  O     0.46020   0.53979   0.83749   0.00000  Uiso   1.00
O1147  O     0.54421   0.50826   0.65877   0.00000  Uiso   1.00
O1148  O     0.50532   0.49468   0.83749   0.00000  Uiso   1.00
O1149  O     0.54861   0.34088   0.71112   0.00000  Uiso   1.00
O1150  O     0.44596   0.66066   0.78844   0.00000  Uiso   1.00
O1151  O     0.51182   0.41434   0.77820   0.00000  Uiso   1.00
O1152  O     0.47914   0.59469   0.76767   0.00000  Uiso   1.00
O1153  O     0.40785   0.46584   0.73607   0.00000  Uiso   1.00
O1154  O     0.60119   0.52512   0.71805   0.00000  Uiso   1.00
O1155  O     0.40323   0.52293   0.77820   0.00000  Uiso   1.00
O1156  O     0.58773   0.48610   0.76767   0.00000  Uiso   1.00
O1157  O     0.47133   0.40236   0.73607   0.00000  Uiso   1.00
O1158  O     0.53771   0.58860   0.71805   0.00000  Uiso   1.00
Zn1159 Zn    0.52577   0.47423   0.78277   0.00000  Uiso   1.00
Zn1160 Zn    0.46792   0.45711   0.72257   0.00000  Uiso   1.00
Zn1161 Zn    0.54500   0.52997   0.71188   0.00000  Uiso   1.00
Zn1162 Zn    0.46131   0.53868   0.78277   0.00000  Uiso   1.00
C1163  C     0.71918   0.49342   0.75872   0.00000  Uiso   1.00
C1164  C     0.87904   0.48295   0.95974   0.00000  Uiso   1.00
C1165  C     0.90309   0.46721   0.97933   0.00000  Uiso   1.00
C1166  C     0.94775   0.50695   0.74115   0.00000  Uiso   1.00
C1167  C     0.88940   0.46789   0.51997   0.00000  Uiso   1.00
C1168  C     0.85062   0.48512   0.54195   0.00000  Uiso   1.00
C1169  C     0.91504   0.45249   0.53895   0.00000  Uiso   1.00
C1170  C     0.90324   0.45481   0.57971   0.00000  Uiso   1.00
C1171  C     0.83836   0.48510   0.58319   0.00000  Uiso   1.00
C1172  C     0.99385   0.50956   0.73743   0.00000  Uiso   1.00
C1173  C     0.67373   0.49132   0.76226   0.00000  Uiso   1.00
C1174  C     0.76442   0.54787   0.92095   0.00000  Uiso   1.00
C1175  C     0.84632   0.65558   0.73794   0.00000  Uiso   1.00
C1176  C     0.81692   0.34570   0.76319   0.00000  Uiso   1.00
C1177  C     0.82251   0.38972   0.75898   0.00000  Uiso   1.00
C1178  C     0.84313   0.61099   0.74114   0.00000  Uiso   1.00
C1179  C     0.85524   0.47854   0.64411   0.00000  Uiso   1.00
C1180  C     0.81181   0.52092   0.85615   0.00000  Uiso   1.00
C1181  C     0.80049   0.52771   0.89931   0.00000  Uiso   1.00
C1182  C     0.86491   0.47102   0.60168   0.00000  Uiso   1.00
C1183  C     0.75162   0.55103   0.96204   0.00000  Uiso   1.00
C1184  C     0.87447   0.33451   0.67372   0.00000  Uiso   1.00
C1185  C     0.82477   0.51164   0.91882   0.00000  Uiso   1.00
C1186  C     0.90834   0.36228   0.64624   0.00000  Uiso   1.00
C1187  C     0.76464   0.35331   0.82369   0.00000  Uiso   1.00
C1188  C     0.73066   0.66126   0.85335   0.00000  Uiso   1.00
C1189  C     0.71092   0.56971   0.98294   0.00000  Uiso   1.00
C1190  C     0.70742   0.61126   0.97923   0.00000  Uiso   1.00
C1191  C     0.66879   0.62867   0.99827   0.00000  Uiso   1.00
C1192  C     0.96669   0.60469   0.52092   0.00000  Uiso   1.00
C1193  C     0.96975   0.56320   0.52442   0.00000  Uiso   1.00
C1194  C     0.67493   0.54560   0.50532   0.00000  Uiso   1.00
C1195  C     0.81435   0.51566   0.96012   0.00000  Uiso   1.00
C1196  C     0.77683   0.53524   0.98193   0.00000  Uiso   1.00
C1197  C     0.83986   0.50007   0.98016   0.00000  Uiso   1.00
C1198  C     0.82618   0.50231   0.52201   0.00000  Uiso   1.00
C1199  C     0.78930   0.52272   0.54256   0.00000  Uiso   1.00
C1200  C     0.76568   0.53918   0.52300   0.00000  Uiso   1.00
H1201  H     0.73842   0.55524   0.54071   0.00000  Uiso   1.00
H1202  H     0.77803   0.52750   0.57413   0.00000  Uiso   1.00
H1203  H     0.89309   0.48200   0.92845   0.00000  Uiso   1.00
H1204  H     0.84188   0.34267   0.67506   0.00000  Uiso   1.00
H1205  H     0.87721   0.63482   0.66113   0.00000  Uiso   1.00
H1206  H     0.94135   0.35465   0.64354   0.00000  Uiso   1.00
H1207  H     0.90295   0.35738   0.61665   0.00000  Uiso   1.00
H1208  H     0.90589   0.39555   0.65787   0.00000  Uiso   1.00
H1209  H     0.74948   0.37946   0.81823   0.00000  Uiso   1.00
H1210  H     0.79167   0.36588   0.83675   0.00000  Uiso   1.00
H1211  H     0.74497   0.63498   0.85956   0.00000  Uiso   1.00
H1212  H     0.94493   0.43980   0.52227   0.00000  Uiso   1.00
H1213  H     0.71878   0.34800   0.88120   0.00000  Uiso   1.00
H1214  H     0.70285   0.64862   0.84155   0.00000  Uiso   1.00
H1215  H     0.73463   0.63015   0.96173   0.00000  Uiso   1.00
H1216  H     0.99965   0.66075   0.99546   0.00000  Uiso   1.00
H1217  H     0.93683   0.61823   0.53569   0.00000  Uiso   1.00
H1218  H     0.94225   0.54471   0.54193   0.00000  Uiso   1.00
H1219  H     0.67676   0.51329   0.50796   0.00000  Uiso   1.00
H1220  H     0.68376   0.52630   0.71443   0.00000  Uiso   1.00
H1221  H     0.98445   0.47470   0.78564   0.00000  Uiso   1.00
H1222  H     0.80919   0.49695   0.60211   0.00000  Uiso   1.00
H1223  H     0.92419   0.44447   0.59417   0.00000  Uiso   1.00
H1224  H     0.93302   0.45472   0.96242   0.00000  Uiso   1.00
H1225  H     0.74497   0.55965   0.90582   0.00000  Uiso   1.00
H1226  H     0.85128   0.49530   0.90072   0.00000  Uiso   1.00
O1227  O     0.83333   0.50000   0.75000   0.00000  Uiso   1.00
O1228  O     0.82360   0.45726   0.66625   0.00000  Uiso   1.00
O1229  O     0.79354   0.53979   0.83749   0.00000  Uiso   1.00
O1230  O     0.87755   0.50826   0.65877   0.00000  Uiso   1.00
O1231  O     0.83865   0.49468   0.83749   0.00000  Uiso   1.00
O1232  O     0.88194   0.34088   0.71112   0.00000  Uiso   1.00
O1233  O     0.77929   0.66066   0.78844   0.00000  Uiso   1.00
O1234  O     0.84515   0.41434   0.77820   0.00000  Uiso   1.00
O1235  O     0.81247   0.59469   0.76767   0.00000  Uiso   1.00
O1236  O     0.74119   0.46584   0.73607   0.00000  Uiso   1.00
O1237  O     0.93452   0.52512   0.71805   0.00000  Uiso   1.00
O1238  O     0.73656   0.52293   0.77820   0.00000  Uiso   1.00
O1239  O     0.92106   0.48610   0.76767   0.00000  Uiso   1.00
O1240  O     0.80467   0.40236   0.73607   0.00000  Uiso   1.00
O1241  O     0.87104   0.58860   0.71805   0.00000  Uiso   1.00
Zn1242 Zn    0.85910   0.47423   0.78277   0.00000  Uiso   1.00
Zn1243 Zn    0.80125   0.45711   0.72257   0.00000  Uiso   1.00
Zn1244 Zn    0.87833   0.52997   0.71188   0.00000  Uiso   1.00
Zn1245 Zn    0.79465   0.53868   0.78277   0.00000  Uiso   1.00
C1246  C     0.05251   0.82675   0.75872   0.00000  Uiso   1.00
C1247  C     0.21237   0.81629   0.95974   0.00000  Uiso   1.00
C1248  C     0.23642   0.80054   0.97933   0.00000  Uiso   1.00
C1249  C     0.28108   0.84028   0.74115   0.00000  Uiso   1.00
C1250  C     0.22274   0.80122   0.51997   0.00000  Uiso   1.00
C1251  C     0.18395   0.81846   0.54195   0.00000  Uiso   1.00
C1252  C     0.24838   0.78582   0.53895   0.00000  Uiso   1.00
C1253  C     0.23657   0.78815   0.57971   0.00000  Uiso   1.00
C1254  C     0.17169   0.81843   0.58319   0.00000  Uiso   1.00
C1255  C     0.32718   0.84290   0.73743   0.00000  Uiso   1.00
C1256  C     0.00706   0.82466   0.76226   0.00000  Uiso   1.00
C1257  C     0.09775   0.88120   0.92095   0.00000  Uiso   1.00
C1258  C     0.17965   0.98892   0.73794   0.00000  Uiso   1.00
C1259  C     0.15025   0.67903   0.76319   0.00000  Uiso   1.00
C1260  C     0.15585   0.72305   0.75898   0.00000  Uiso   1.00
C1261  C     0.17646   0.94432   0.74114   0.00000  Uiso   1.00
C1262  C     0.18857   0.81187   0.64411   0.00000  Uiso   1.00
C1263  C     0.14515   0.85425   0.85615   0.00000  Uiso   1.00
C1264  C     0.13383   0.86104   0.89931   0.00000  Uiso   1.00
C1265  C     0.19824   0.80436   0.60168   0.00000  Uiso   1.00
C1266  C     0.08495   0.88436   0.96204   0.00000  Uiso   1.00
C1267  C     0.20780   0.66785   0.67372   0.00000  Uiso   1.00
C1268  C     0.15810   0.84497   0.91882   0.00000  Uiso   1.00
C1269  C     0.24167   0.69562   0.64624   0.00000  Uiso   1.00
C1270  C     0.09797   0.68664   0.82369   0.00000  Uiso   1.00
C1271  C     0.06399   0.99459   0.85335   0.00000  Uiso   1.00
C1272  C     0.04425   0.90304   0.98294   0.00000  Uiso   1.00
C1273  C     0.04075   0.94459   0.97923   0.00000  Uiso   1.00
C1274  C     0.00212   0.96200   0.99827   0.00000  Uiso   1.00
C1275  C     0.30002   0.93802   0.52092   0.00000  Uiso   1.00
C1276  C     0.30308   0.89653   0.52442   0.00000  Uiso   1.00
C1277  C     0.00826   0.87894   0.50532   0.00000  Uiso   1.00
C1278  C     0.14768   0.84899   0.96012   0.00000  Uiso   1.00
C1279  C     0.11016   0.86857   0.98193   0.00000  Uiso   1.00
C1280  C     0.17319   0.83340   0.98016   0.00000  Uiso   1.00
C1281  C     0.15951   0.83565   0.52201   0.00000  Uiso   1.00
C1282  C     0.12263   0.85606   0.54256   0.00000  Uiso   1.00
C1283  C     0.09901   0.87251   0.52300   0.00000  Uiso   1.00
H1284  H     0.07175   0.88857   0.54071   0.00000  Uiso   1.00
H1285  H     0.11136   0.86083   0.57413   0.00000  Uiso   1.00
H1286  H     0.22642   0.81533   0.92845   0.00000  Uiso   1.00
H1287  H     0.17521   0.67600   0.67506   0.00000  Uiso   1.00
H1288  H     0.21055   0.96816   0.66113   0.00000  Uiso   1.00
H1289  H     0.27468   0.68798   0.64354   0.00000  Uiso   1.00
H1290  H     0.23628   0.69072   0.61665   0.00000  Uiso   1.00
H1291  H     0.23922   0.72888   0.65787   0.00000  Uiso   1.00
H1292  H     0.08281   0.71280   0.81823   0.00000  Uiso   1.00
H1293  H     0.12501   0.69921   0.83675   0.00000  Uiso   1.00
H1294  H     0.07830   0.96831   0.85956   0.00000  Uiso   1.00
H1295  H     0.27826   0.77314   0.52227   0.00000  Uiso   1.00
H1296  H     0.05211   0.68134   0.88120   0.00000  Uiso   1.00
H1297  H     0.03618   0.98195   0.84155   0.00000  Uiso   1.00
H1298  H     0.06797   0.96348   0.96173   0.00000  Uiso   1.00
H1299  H     0.33298   0.99409   0.99546   0.00000  Uiso   1.00
H1300  H     0.27017   0.95156   0.53569   0.00000  Uiso   1.00
H1301  H     0.27558   0.87804   0.54193   0.00000  Uiso   1.00
H1302  H     0.01009   0.84663   0.50796   0.00000  Uiso   1.00
H1303  H     0.01710   0.85963   0.71443   0.00000  Uiso   1.00
H1304  H     0.31779   0.80804   0.78564   0.00000  Uiso   1.00
H1305  H     0.14252   0.83029   0.60211   0.00000  Uiso   1.00
H1306  H     0.25753   0.77781   0.59417   0.00000  Uiso   1.00
H1307  H     0.26635   0.78805   0.96242   0.00000  Uiso   1.00
H1308  H     0.07831   0.89299   0.90582   0.00000  Uiso   1.00
H1309  H     0.18461   0.82863   0.90072   0.00000  Uiso   1.00
O1310  O     0.16667   0.83333   0.75000   0.00000  Uiso   1.00
O1311  O     0.15693   0.79060   0.66625   0.00000  Uiso   1.00
O1312  O     0.12687   0.87313   0.83749   0.00000  Uiso   1.00
O1313  O     0.21088   0.84159   0.65877   0.00000  Uiso   1.00
O1314  O     0.17198   0.82802   0.83749   0.00000  Uiso   1.00
O1315  O     0.21527   0.67422   0.71112   0.00000  Uiso   1.00
O1316  O     0.11263   0.99399   0.78844   0.00000  Uiso   1.00
O1317  O     0.17849   0.74768   0.77820   0.00000  Uiso   1.00
O1318  O     0.14581   0.92803   0.76767   0.00000  Uiso   1.00
O1319  O     0.07452   0.79917   0.73607   0.00000  Uiso   1.00
O1320  O     0.26785   0.85845   0.71805   0.00000  Uiso   1.00
O1321  O     0.06990   0.85627   0.77820   0.00000  Uiso   1.00
O1322  O     0.25440   0.81944   0.76767   0.00000  Uiso   1.00
O1323  O     0.13800   0.73570   0.73607   0.00000  Uiso   1.00
O1324  O     0.20437   0.92193   0.71805   0.00000  Uiso   1.00
Zn1325 Zn    0.19244   0.80756   0.78277   0.00000  Uiso   1.00
Zn1326 Zn    0.13459   0.79044   0.72257   0.00000  Uiso   1.00
Zn1327 Zn    0.21166   0.86331   0.71188   0.00000  Uiso   1.00
Zn1328 Zn    0.12798   0.87202   0.78277   0.00000  Uiso   1.00
C1329  C     0.38584   0.82675   0.75872   0.00000  Uiso   1.00
C1330  C     0.54570   0.81629   0.95974   0.00000  Uiso   1.00
C1331  C     0.56975   0.80054   0.97933   0.00000  Uiso   1.00
C1332  C     0.61442   0.84028   0.74115   0.00000  Uiso   1.00
C1333  C     0.55607   0.80122   0.51997   0.00000  Uiso   1.00
C1334  C     0.51729   0.81846   0.54195   0.00000  Uiso   1.00
C1335  C     0.58171   0.78582   0.53895   0.00000  Uiso   1.00
C1336  C     0.56990   0.78815   0.57971   0.00000  Uiso   1.00
C1337  C     0.50503   0.81843   0.58319   0.00000  Uiso   1.00
C1338  C     0.66051   0.84290   0.73743   0.00000  Uiso   1.00
C1339  C     0.34040   0.82466   0.76226   0.00000  Uiso   1.00
C1340  C     0.43108   0.88120   0.92095   0.00000  Uiso   1.00
C1341  C     0.51299   0.98892   0.73794   0.00000  Uiso   1.00
C1342  C     0.48359   0.67903   0.76319   0.00000  Uiso   1.00
C1343  C     0.48918   0.72305   0.75898   0.00000  Uiso   1.00
C1344  C     0.50980   0.94432   0.74114   0.00000  Uiso   1.00
C1345  C     0.52190   0.81187   0.64411   0.00000  Uiso   1.00
C1346  C     0.47848   0.85425   0.85615   0.00000  Uiso   1.00
C1347  C     0.46716   0.86104   0.89931   0.00000  Uiso   1.00
C1348  C     0.53157   0.80436   0.60168   0.00000  Uiso   1.00
C1349  C     0.41829   0.88436   0.96204   0.00000  Uiso   1.00
C1350  C     0.54114   0.66785   0.67372   0.00000  Uiso   1.00
C1351  C     0.49143   0.84497   0.91882   0.00000  Uiso   1.00
C1352  C     0.57500   0.69562   0.64624   0.00000  Uiso   1.00
C1353  C     0.43131   0.68664   0.82369   0.00000  Uiso   1.00
C1354  C     0.39732   0.99459   0.85335   0.00000  Uiso   1.00
C1355  C     0.37759   0.90304   0.98294   0.00000  Uiso   1.00
C1356  C     0.37409   0.94459   0.97923   0.00000  Uiso   1.00
C1357  C     0.33545   0.96200   0.99827   0.00000  Uiso   1.00
C1358  C     0.63335   0.93802   0.52092   0.00000  Uiso   1.00
C1359  C     0.63641   0.89653   0.52442   0.00000  Uiso   1.00
C1360  C     0.34160   0.87894   0.50532   0.00000  Uiso   1.00
C1361  C     0.48102   0.84899   0.96012   0.00000  Uiso   1.00
C1362  C     0.44349   0.86857   0.98193   0.00000  Uiso   1.00
C1363  C     0.50652   0.83340   0.98016   0.00000  Uiso   1.00
C1364  C     0.49285   0.83565   0.52201   0.00000  Uiso   1.00
C1365  C     0.45597   0.85606   0.54256   0.00000  Uiso   1.00
C1366  C     0.43234   0.87251   0.52300   0.00000  Uiso   1.00
H1367  H     0.40508   0.88857   0.54071   0.00000  Uiso   1.00
H1368  H     0.44469   0.86083   0.57413   0.00000  Uiso   1.00
H1369  H     0.55975   0.81533   0.92845   0.00000  Uiso   1.00
H1370  H     0.50855   0.67600   0.67506   0.00000  Uiso   1.00
H1371  H     0.54388   0.96816   0.66113   0.00000  Uiso   1.00
H1372  H     0.60801   0.68798   0.64354   0.00000  Uiso   1.00
H1373  H     0.56962   0.69072   0.61665   0.00000  Uiso   1.00
H1374  H     0.57256   0.72888   0.65787   0.00000  Uiso   1.00
H1375  H     0.41614   0.71280   0.81823   0.00000  Uiso   1.00
H1376  H     0.45834   0.69921   0.83675   0.00000  Uiso   1.00
H1377  H     0.41163   0.96831   0.85956   0.00000  Uiso   1.00
H1378  H     0.61159   0.77314   0.52227   0.00000  Uiso   1.00
H1379  H     0.38545   0.68134   0.88120   0.00000  Uiso   1.00
H1380  H     0.36951   0.98195   0.84155   0.00000  Uiso   1.00
H1381  H     0.40130   0.96348   0.96173   0.00000  Uiso   1.00
H1382  H     0.66631   0.99409   0.99546   0.00000  Uiso   1.00
H1383  H     0.60350   0.95156   0.53569   0.00000  Uiso   1.00
H1384  H     0.60892   0.87804   0.54193   0.00000  Uiso   1.00
H1385  H     0.34343   0.84663   0.50796   0.00000  Uiso   1.00
H1386  H     0.35043   0.85963   0.71443   0.00000  Uiso   1.00
H1387  H     0.65112   0.80804   0.78564   0.00000  Uiso   1.00
H1388  H     0.47586   0.83029   0.60211   0.00000  Uiso   1.00
H1389  H     0.59086   0.77781   0.59417   0.00000  Uiso   1.00
H1390  H     0.59969   0.78805   0.96242   0.00000  Uiso   1.00
H1391  H     0.41164   0.89299   0.90582   0.00000  Uiso   1.00
H1392  H     0.51794   0.82863   0.90072   0.00000  Uiso   1.00
O1393  O     0.50000   0.83333   0.75000   0.00000  Uiso   1.00
O1394  O     0.49027   0.79060   0.66625   0.00000  Uiso   1.00
O1395  O     0.46020   0.87313   0.83749   0.00000  Uiso   1.00
O1396  O     0.54421   0.84159   0.65877   0.00000  Uiso   1.00
O1397  O     0.50532   0.82802   0.83749   0.00000  Uiso   1.00
O1398  O     0.54861   0.67422   0.71112   0.00000  Uiso   1.00
O1399  O     0.44596   0.99399   0.78844   0.00000  Uiso   1.00
O1400  O     0.51182   0.74768   0.77820   0.00000  Uiso   1.00
O1401  O     0.47914   0.92803   0.76767   0.00000  Uiso   1.00
O1402  O     0.40785   0.79917   0.73607   0.00000  Uiso   1.00
O1403  O     0.60119   0.85845   0.71805   0.00000  Uiso   1.00
O1404  O     0.40323   0.85627   0.77820   0.00000  Uiso   1.00
O1405  O     0.58773   0.81944   0.76767   0.00000  Uiso   1.00
O1406  O     0.47133   0.73570   0.73607   0.00000  Uiso   1.00
O1407  O     0.53771   0.92193   0.71805   0.00000  Uiso   1.00
Zn1408 Zn    0.52577   0.80756   0.78277   0.00000  Uiso   1.00
Zn1409 Zn    0.46792   0.79044   0.72257   0.00000  Uiso   1.00
Zn1410 Zn    0.54500   0.86331   0.71188   0.00000  Uiso   1.00
Zn1411 Zn    0.46131   0.87202   0.78277   0.00000  Uiso   1.00
C1412  C     0.71918   0.82675   0.75872   0.00000  Uiso   1.00
C1413  C     0.87904   0.81629   0.95974   0.00000  Uiso   1.00
C1414  C     0.90309   0.80054   0.97933   0.00000  Uiso   1.00
C1415  C     0.94775   0.84028   0.74115   0.00000  Uiso   1.00
C1416  C     0.88940   0.80122   0.51997   0.00000  Uiso   1.00
C1417  C     0.85062   0.81846   0.54195   0.00000  Uiso   1.00
C1418  C     0.91504   0.78582   0.53895   0.00000  Uiso   1.00
C1419  C     0.90324   0.78815   0.57971   0.00000  Uiso   1.00
C1420  C     0.83836   0.81843   0.58319   0.00000  Uiso   1.00
C1421  C     0.99385   0.84290   0.73743   0.00000  Uiso   1.00
C1422  C     0.67373   0.82466   0.76226   0.00000  Uiso   1.00
C1423  C     0.76442   0.88120   0.92095   0.00000  Uiso   1.00
C1424  C     0.84632   0.98892   0.73794   0.00000  Uiso   1.00
C1425  C     0.81692   0.67903   0.76319   0.00000  Uiso   1.00
C1426  C     0.82251   0.72305   0.75898   0.00000  Uiso   1.00
C1427  C     0.84313   0.94432   0.74114   0.00000  Uiso   1.00
C1428  C     0.85524   0.81187   0.64411   0.00000  Uiso   1.00
C1429  C     0.81181   0.85425   0.85615   0.00000  Uiso   1.00
C1430  C     0.80049   0.86104   0.89931   0.00000  Uiso   1.00
C1431  C     0.86491   0.80436   0.60168   0.00000  Uiso   1.00
C1432  C     0.75162   0.88436   0.96204   0.00000  Uiso   1.00
C1433  C     0.87447   0.66785   0.67372   0.00000  Uiso   1.00
C1434  C     0.82477   0.84497   0.91882   0.00000  Uiso   1.00
C1435  C     0.90834   0.69562   0.64624   0.00000  Uiso   1.00
C1436  C     0.76464   0.68664   0.82369   0.00000  Uiso   1.00
C1437  C     0.73066   0.99459   0.85335   0.00000  Uiso   1.00
C1438  C     0.71092   0.90304   0.98294   0.00000  Uiso   1.00
C1439  C     0.70742   0.94459   0.97923   0.00000  Uiso   1.00
C1440  C     0.66879   0.96200   0.99827   0.00000  Uiso   1.00
C1441  C     0.96669   0.93802   0.52092   0.00000  Uiso   1.00
C1442  C     0.96975   0.89653   0.52442   0.00000  Uiso   1.00
C1443  C     0.67493   0.87894   0.50532   0.00000  Uiso   1.00
C1444  C     0.81435   0.84899   0.96012   0.00000  Uiso   1.00
C1445  C     0.77683   0.86857   0.98193   0.00000  Uiso   1.00
C1446  C     0.83986   0.83340   0.98016   0.00000  Uiso   1.00
C1447  C     0.82618   0.83565   0.52201   0.00000  Uiso   1.00
C1448  C     0.78930   0.85606   0.54256   0.00000  Uiso   1.00
C1449  C     0.76568   0.87251   0.52300   0.00000  Uiso   1.00
H1450  H     0.73842   0.88857   0.54071   0.00000  Uiso   1.00
H1451  H     0.77803   0.86083   0.57413   0.00000  Uiso   1.00
H1452  H     0.89309   0.81533   0.92845   0.00000  Uiso   1.00
H1453  H     0.84188   0.67600   0.67506   0.00000  Uiso   1.00
H1454  H     0.87721   0.96816   0.66113   0.00000  Uiso   1.00
H1455  H     0.94135   0.68798   0.64354   0.00000  Uiso   1.00
H1456  H     0.90295   0.69072   0.61665   0.00000  Uiso   1.00
H1457  H     0.90589   0.72888   0.65787   0.00000  Uiso   1.00
H1458  H     0.74948   0.71280   0.81823   0.00000  Uiso   1.00
H1459  H     0.79167   0.69921   0.83675   0.00000  Uiso   1.00
H1460  H     0.74497   0.96831   0.85956   0.00000  Uiso   1.00
H1461  H     0.94493   0.77314   0.52227   0.00000  Uiso   1.00
H1462  H     0.71878   0.68134   0.88120   0.00000  Uiso   1.00
H1463  H     0.70285   0.98195   0.84155   0.00000  Uiso   1.00
H1464  H     0.73463   0.96348   0.96173   0.00000  Uiso   1.00
H1465  H     0.99965   0.99409   0.99546   0.00000  Uiso   1.00
H1466  H     0.93683   0.95156   0.53569   0.00000  Uiso   1.00
H1467  H     0.94225   0.87804   0.54193   0.00000  Uiso   1.00
H1468  H     0.67676   0.84663   0.50796   0.00000  Uiso   1.00
H1469  H     0.68376   0.85963   0.71443   0.00000  Uiso   1.00
H1470  H     0.98445   0.80804   0.78564   0.00000  Uiso   1.00
H1471  H     0.80919   0.83029   0.60211   0.00000  Uiso   1.00
H1472  H     0.92419   0.77781   0.59417   0.00000  Uiso   1.00
H1473  H     0.93302   0.78805   0.96242   0.00000  Uiso   1.00
H1474  H     0.74497   0.89299   0.90582   0.00000  Uiso   1.00
H1475  H     0.85128   0.82863   0.90072   0.00000  Uiso   1.00
O1476  O     0.83333   0.83333   0.75000   0.00000  Uiso   1.00
O1477  O     0.82360   0.79060   0.66625   0.00000  Uiso   1.00
O1478  O     0.79354   0.87313   0.83749   0.00000  Uiso   1.00
O1479  O     0.87755   0.84159   0.65877   0.00000  Uiso   1.00
O1480  O     0.83865   0.82802   0.83749   0.00000  Uiso   1.00
O1481  O     0.88194   0.67422   0.71112   0.00000  Uiso   1.00
O1482  O     0.77929   0.99399   0.78844   0.00000  Uiso   1.00
O1483  O     0.84515   0.74768   0.77820   0.00000  Uiso   1.00
O1484  O     0.81247   0.92803   0.76767   0.00000  Uiso   1.00
O1485  O     0.74119   0.79917   0.73607   0.00000  Uiso   1.00
O1486  O     0.93452   0.85845   0.71805   0.00000  Uiso   1.00
O1487  O     0.73656   0.85627   0.77820   0.00000  Uiso   1.00
O1488  O     0.92106   0.81944   0.76767   0.00000  Uiso   1.00
O1489  O     0.80467   0.73570   0.73607   0.00000  Uiso   1.00
O1490  O     0.87104   0.92193   0.71805   0.00000  Uiso   1.00
Zn1491 Zn    0.85910   0.80756   0.78277   0.00000  Uiso   1.00
Zn1492 Zn    0.80125   0.79044   0.72257   0.00000  Uiso   1.00
Zn1493 Zn    0.87833   0.86331   0.71188   0.00000  Uiso   1.00
Zn1494 Zn    0.79465   0.87202   0.78277   0.00000  Uiso   1.00
loop_
_geom_bond_atom_site_label_1
_geom_bond_atom_site_label_2
_geom_bond_distance
_geom_bond_site_symmetry_2
_ccdc_geom_bond_type
C1     C11     1.437   .     S
C1     O74     1.272   .     A
C1     O76     1.271   .     A
C2     C35     1.417   .     A
C2     H41     1.075   .     S
C2     C3      1.384   .     A
C3     H62     1.085   .     S
C3     C752    1.388   .     S
C4     O75     1.284   .     A
C4     C10     1.455   .     S
C4     O77     1.279   .     A
C5     C6      1.421   .     A
C5     C7      1.403   .     A
C5     C750    1.388   1_554 S
C6     C9      1.411   .     A
C6     C36     1.428   .     A
C7     C8      1.389   .     A
C7     H50     1.084   .     S
C8     H61     1.084   .     S
C8     C20     1.394   .     A
C9     C20     1.392   .     A
C9     H60     1.077   .     S
C10    C94     1.335   .     S
C10    H141    1.088   .     S
C11    C176    1.335   1_455 S
C11    H225    1.086   1_455 S
C12    H63     1.084   .     S
C12    C21     1.398   .     A
C12    C19     1.397   .     A
C13    C16     1.461   .     S
C13    C263    1.350   .     S
C13    O319    1.389   .     S
C14    C15     1.444   .     S
C14    C511    1.350   1_545 S
C14    O569    1.397   1_545 S
C15    O72     1.277   .     A
C15    O78     1.277   .     A
C16    O73     1.265   .     A
C16    O79     1.272   .     A
C17    O66     1.276   .     A
C17    C20     1.450   .     S
C17    O68     1.271   .     A
C18    C19     1.471   .     S
C18    O69     1.285   .     A
C18    O67     1.281   .     A
C19    C23     1.393   .     A
C21    C27     1.484   .     S
C21    C34     1.422   .     A
C22    C24     1.521   .     S
C22    H42     1.116   .     S
C22    O70     1.413   .     S
C22    H541    1.113   1_545 S
C23    C33     1.407   .     A
C23    H64     1.073   .     S
C24    H45     1.111   .     S
C24    H44     1.111   .     S
C24    H46     1.111   .     S
C25    H47     1.113   .     S
C25    H48     1.115   .     S
C25    C524    1.521   1_545 S
C25    O569    1.413   1_545 S
C26    H49     1.111   .     S
C26    H52     1.111   .     S
C26    C274    1.521   .     S
C26    H300    1.111   .     S
C27    C28     1.405   .     A
C27    C779    1.406   .     S
C28    C29     1.399   .     A
C28    H53     1.083   .     S
C29    C943    1.398   1_455 S
C29    H220    1.082   1_455 S
C30    C31     1.397   .     A
C30    H55     1.082   .     S
C30    C859    1.398   1_554 S
C31    H56     1.082   .     S
C31    C115    1.399   .     S
C32    H57     1.083   .     S
C32    C774    1.406   1_554 S
C32    C197    1.399   1_455 S
C33    C34     1.424   .     A
C33    C35     1.430   .     A
C34    C785    1.398   .     S
C35    C783    1.425   .     S
C36    C37     1.412   .     A
C36    C782    1.425   1_554 S
C37    H40     1.076   .     S
C37    C38     1.385   .     A
C38    H39     1.082   .     S
C38    C781    1.398   1_554 S
H43    C271    1.113   .     S
H51    C524    1.111   1_545 S
H54    C112    1.082   .     S
H58    C176    1.088   1_455 S
H59    C94     1.086   .     S
O65    Zn83    1.929   .     S
O65    Zn80    1.965   .     S
O65    Zn81    1.949   .     S
O65    Zn82    1.930   .     S
O66    Zn81    1.931   .     S
O67    Zn83    1.945   .     S
O68    Zn82    1.940   .     S
O69    Zn80    1.927   .     S
O70    C511    1.389   1_545 S
O71    C263    1.397   .     S
O71    C274    1.413   .     S
O72    Zn80    1.934   .     S
O73    Zn83    1.936   .     S
O74    Zn81    1.921   .     S
O75    Zn82    1.936   .     S
O76    Zn83    1.931   .     S
O77    Zn80    1.918   .     S
O78    Zn81    1.942   .     S
O79    Zn82    1.935   .     S
C84    C94     1.437   .     S
C84    O157    1.272   .     A
C84    O159    1.271   .     A
C85    C118    1.417   .     A
C85    H124    1.075   .     S
C85    C86     1.384   .     A
C86    H145    1.085   .     S
C86    C835    1.388   .     S
C87    O158    1.284   .     A
C87    C93     1.455   .     S
C87    O160    1.279   .     A
C88    C89     1.421   .     A
C88    C90     1.403   .     A
C88    C833    1.388   1_554 S
C89    C92     1.411   .     A
C89    C119    1.428   .     A
C90    C91     1.389   .     A
C90    H133    1.084   .     S
C91    H144    1.084   .     S
C91    C103    1.394   .     A
C92    C103    1.392   .     A
C92    H143    1.077   .     S
C93    C177    1.335   .     S
C93    H224    1.088   .     S
C95    H146    1.084   .     S
C95    C104    1.398   .     A
C95    C102    1.397   .     A
C96    C99     1.461   .     S
C96    C346    1.350   .     S
C96    O402    1.389   .     S
C97    C98     1.444   .     S
C97    C594    1.350   1_545 S
C97    O652    1.397   1_545 S
C98    O155    1.277   .     A
C98    O161    1.277   .     A
C99    O156    1.265   .     A
C99    O162    1.272   .     A
C100   O149    1.276   .     A
C100   C103    1.450   .     S
C100   O151    1.271   .     A
C101   C102    1.471   .     S
C101   O152    1.285   .     A
C101   O150    1.281   .     A
C102   C106    1.393   .     A
C104   C110    1.484   .     S
C104   C117    1.422   .     A
C105   C107    1.521   .     S
C105   H125    1.116   .     S
C105   O153    1.413   .     S
C105   H624    1.113   1_545 S
C106   C116    1.407   .     A
C106   H147    1.073   .     S
C107   H128    1.111   .     S
C107   H127    1.111   .     S
C107   H129    1.111   .     S
C108   H130    1.113   .     S
C108   H131    1.115   .     S
C108   C607    1.521   1_545 S
C108   O652    1.413   1_545 S
C109   H132    1.111   .     S
C109   H135    1.111   .     S
C109   C357    1.521   .     S
C109   H383    1.111   .     S
C110   C111    1.405   .     A
C110   C862    1.406   .     S
C111   C112    1.399   .     A
C111   H136    1.083   .     S
C112   C777    1.398   .     S
C113   C114    1.397   .     A
C113   H138    1.082   .     S
C113   C942    1.398   1_554 S
C114   H139    1.082   .     S
C114   C198    1.399   .     S
C115   H140    1.083   .     S
C115   C857    1.406   1_554 S
C116   C117    1.424   .     A
C116   C118    1.430   .     A
C117   C868    1.398   .     S
C118   C866    1.425   .     S
C119   C120    1.412   .     A
C119   C865    1.425   1_554 S
C120   H123    1.076   .     S
C120   C121    1.385   .     A
C121   H122    1.082   .     S
C121   C864    1.398   1_554 S
H126   C354    1.113   .     S
H134   C607    1.111   1_545 S
H137   C195    1.082   .     S
H142   C177    1.086   .     S
O148   Zn166   1.929   .     S
O148   Zn163   1.965   .     S
O148   Zn164   1.949   .     S
O148   Zn165   1.930   .     S
O149   Zn164   1.931   .     S
O150   Zn166   1.945   .     S
O151   Zn165   1.940   .     S
O152   Zn163   1.927   .     S
O153   C594    1.389   1_545 S
O154   C346    1.397   .     S
O154   C357    1.413   .     S
O155   Zn163   1.934   .     S
O156   Zn166   1.936   .     S
O157   Zn164   1.921   .     S
O158   Zn165   1.936   .     S
O159   Zn166   1.931   .     S
O160   Zn163   1.918   .     S
O161   Zn164   1.942   .     S
O162   Zn165   1.935   .     S
C167   C177    1.437   .     S
C167   O240    1.272   .     A
C167   O242    1.271   .     A
C168   C201    1.417   .     A
C168   H207    1.075   .     S
C168   C169    1.384   .     A
C169   H228    1.085   .     S
C169   C918    1.388   .     S
C170   O241    1.284   .     A
C170   C176    1.455   .     S
C170   O243    1.279   .     A
C171   C172    1.421   .     A
C171   C173    1.403   .     A
C171   C916    1.388   1_554 S
C172   C175    1.411   .     A
C172   C202    1.428   .     A
C173   C174    1.389   .     A
C173   H216    1.084   .     S
C174   H227    1.084   .     S
C174   C186    1.394   .     A
C175   C186    1.392   .     A
C175   H226    1.077   .     S
C176   C11     1.335   1_655 S
C176   H58     1.088   1_655 S
C178   H229    1.084   .     S
C178   C187    1.398   .     A
C178   C185    1.397   .     A
C179   C182    1.461   .     S
C179   C429    1.350   .     S
C179   O485    1.389   .     S
C180   C181    1.444   .     S
C180   C677    1.350   1_545 S
C180   O735    1.397   1_545 S
C181   O238    1.277   .     A
C181   O244    1.277   .     A
C182   O239    1.265   .     A
C182   O245    1.272   .     A
C183   O232    1.276   .     A
C183   C186    1.450   .     S
C183   O234    1.271   .     A
C184   C185    1.471   .     S
C184   O235    1.285   .     A
C184   O233    1.281   .     A
C185   C189    1.393   .     A
C187   C193    1.484   .     S
C187   C200    1.422   .     A
C188   C190    1.521   .     S
C188   H208    1.116   .     S
C188   O236    1.413   .     S
C188   H707    1.113   1_545 S
C189   C199    1.407   .     A
C189   H230    1.073   .     S
C190   H211    1.111   .     S
C190   H210    1.111   .     S
C190   H212    1.111   .     S
C191   H213    1.113   .     S
C191   H214    1.115   .     S
C191   C690    1.521   1_545 S
C191   O735    1.413   1_545 S
C192   H215    1.111   .     S
C192   H218    1.111   .     S
C192   C440    1.521   .     S
C192   H466    1.111   .     S
C193   C194    1.405   .     A
C193   C945    1.406   .     S
C194   C195    1.399   .     A
C194   H219    1.083   .     S
C195   C860    1.398   .     S
C196   C197    1.397   .     A
C196   H221    1.082   .     S
C196   C776    1.398   1_654 S
C197   H222    1.082   .     S
C197   C32     1.399   1_655 S
C198   H223    1.083   .     S
C198   C940    1.406   1_554 S
C199   C200    1.424   .     A
C199   C201    1.430   .     A
C200   C951    1.398   .     S
C201   C949    1.425   .     S
C202   C203    1.412   .     A
C202   C948    1.425   1_554 S
C203   H206    1.076   .     S
C203   C204    1.385   .     A
C204   H205    1.082   .     S
C204   C947    1.398   1_554 S
H209   C437    1.113   .     S
H217   C690    1.111   1_545 S
H220   C29     1.082   1_655 S
H225   C11     1.086   1_655 S
O231   Zn249   1.929   .     S
O231   Zn246   1.965   .     S
O231   Zn247   1.949   .     S
O231   Zn248   1.930   .     S
O232   Zn247   1.931   .     S
O233   Zn249   1.945   .     S
O234   Zn248   1.940   .     S
O235   Zn246   1.927   .     S
O236   C677    1.389   1_545 S
O237   C429    1.397   .     S
O237   C440    1.413   .     S
O238   Zn246   1.934   .     S
O239   Zn249   1.936   .     S
O240   Zn247   1.921   .     S
O241   Zn248   1.936   .     S
O242   Zn249   1.931   .     S
O243   Zn246   1.918   .     S
O244   Zn247   1.942   .     S
O245   Zn248   1.935   .     S
C250   C260    1.437   .     S
C250   O323    1.272   .     A
C250   O325    1.271   .     A
C251   C284    1.417   .     A
C251   H290    1.075   .     S
C251   C252    1.384   .     A
C252   H311    1.085   .     S
C252   C1001   1.388   .     S
C253   O324    1.284   .     A
C253   C259    1.455   .     S
C253   O326    1.279   .     A
C254   C255    1.421   .     A
C254   C256    1.403   .     A
C254   C999    1.388   1_554 S
C255   C258    1.411   .     A
C255   C285    1.428   .     A
C256   C257    1.389   .     A
C256   H299    1.084   .     S
C257   H310    1.084   .     S
C257   C269    1.394   .     A
C258   C269    1.392   .     A
C258   H309    1.077   .     S
C259   C343    1.335   .     S
C259   H390    1.088   .     S
C260   C425    1.335   1_455 S
C260   H474    1.086   1_455 S
C261   H312    1.084   .     S
C261   C270    1.398   .     A
C261   C268    1.397   .     A
C262   C265    1.461   .     S
C262   C512    1.350   .     S
C262   O568    1.389   .     S
C263   C264    1.444   .     S
C264   O321    1.277   .     A
C264   O327    1.277   .     A
C265   O322    1.265   .     A
C265   O328    1.272   .     A
C266   O315    1.276   .     A
C266   C269    1.450   .     S
C266   O317    1.271   .     A
C267   C268    1.471   .     S
C267   O318    1.285   .     A
C267   O316    1.281   .     A
C268   C272    1.393   .     A
C270   C276    1.484   .     S
C270   C283    1.422   .     A
C271   C273    1.521   .     S
C271   H291    1.116   .     S
C271   O319    1.413   .     S
C272   C282    1.407   .     A
C272   H313    1.073   .     S
C273   H294    1.111   .     S
C273   H293    1.111   .     S
C273   H295    1.111   .     S
C274   H296    1.113   .     S
C274   H297    1.115   .     S
C275   H298    1.111   .     S
C275   H301    1.111   .     S
C275   C523    1.521   .     S
C275   H549    1.111   .     S
C276   C277    1.405   .     A
C276   C1028   1.406   .     S
C277   C278    1.399   .     A
C277   H302    1.083   .     S
C278   C1192   1.398   1_455 S
C278   H469    1.082   1_455 S
C279   C280    1.397   .     A
C279   H304    1.082   .     S
C279   C1108   1.398   1_554 S
C280   H305    1.082   .     S
C280   C364    1.399   .     S
C281   H306    1.083   .     S
C281   C1023   1.406   1_554 S
C281   C446    1.399   1_455 S
C282   C283    1.424   .     A
C282   C284    1.430   .     A
C283   C1034   1.398   .     S
C284   C1032   1.425   .     S
C285   C286    1.412   .     A
C285   C1031   1.425   1_554 S
C286   H289    1.076   .     S
C286   C287    1.385   .     A
C287   H288    1.082   .     S
C287   C1030   1.398   1_554 S
H292   C520    1.113   .     S
H303   C361    1.082   .     S
H307   C425    1.088   1_455 S
H308   C343    1.086   .     S
O314   Zn332   1.929   .     S
O314   Zn329   1.965   .     S
O314   Zn330   1.949   .     S
O314   Zn331   1.930   .     S
O315   Zn330   1.931   .     S
O316   Zn332   1.945   .     S
O317   Zn331   1.940   .     S
O318   Zn329   1.927   .     S
O320   C512    1.397   .     S
O320   C523    1.413   .     S
O321   Zn329   1.934   .     S
O322   Zn332   1.936   .     S
O323   Zn330   1.921   .     S
O324   Zn331   1.936   .     S
O325   Zn332   1.931   .     S
O326   Zn329   1.918   .     S
O327   Zn330   1.942   .     S
O328   Zn331   1.935   .     S
C333   C343    1.437   .     S
C333   O406    1.272   .     A
C333   O408    1.271   .     A
C334   C367    1.417   .     A
C334   H373    1.075   .     S
C334   C335    1.384   .     A
C335   H394    1.085   .     S
C335   C1084   1.388   .     S
C336   O407    1.284   .     A
C336   C342    1.455   .     S
C336   O409    1.279   .     A
C337   C338    1.421   .     A
C337   C339    1.403   .     A
C337   C1082   1.388   1_554 S
C338   C341    1.411   .     A
C338   C368    1.428   .     A
C339   C340    1.389   .     A
C339   H382    1.084   .     S
C340   H393    1.084   .     S
C340   C352    1.394   .     A
C341   C352    1.392   .     A
C341   H392    1.077   .     S
C342   C426    1.335   .     S
C342   H473    1.088   .     S
C344   H395    1.084   .     S
C344   C353    1.398   .     A
C344   C351    1.397   .     A
C345   C348    1.461   .     S
C345   C595    1.350   .     S
C345   O651    1.389   .     S
C346   C347    1.444   .     S
C347   O404    1.277   .     A
C347   O410    1.277   .     A
C348   O405    1.265   .     A
C348   O411    1.272   .     A
C349   O398    1.276   .     A
C349   C352    1.450   .     S
C349   O400    1.271   .     A
C350   C351    1.471   .     S
C350   O401    1.285   .     A
C350   O399    1.281   .     A
C351   C355    1.393   .     A
C353   C359    1.484   .     S
C353   C366    1.422   .     A
C354   C356    1.521   .     S
C354   H374    1.116   .     S
C354   O402    1.413   .     S
C355   C365    1.407   .     A
C355   H396    1.073   .     S
C356   H377    1.111   .     S
C356   H376    1.111   .     S
C356   H378    1.111   .     S
C357   H379    1.113   .     S
C357   H380    1.115   .     S
C358   H381    1.111   .     S
C358   H384    1.111   .     S
C358   C606    1.521   .     S
C358   H632    1.111   .     S
C359   C360    1.405   .     A
C359   C1111   1.406   .     S
C360   C361    1.399   .     A
C360   H385    1.083   .     S
C361   C1026   1.398   .     S
C362   C363    1.397   .     A
C362   H387    1.082   .     S
C362   C1191   1.398   1_554 S
C363   H388    1.082   .     S
C363   C447    1.399   .     S
C364   H389    1.083   .     S
C364   C1106   1.406   1_554 S
C365   C366    1.424   .     A
C365   C367    1.430   .     A
C366   C1117   1.398   .     S
C367   C1115   1.425   .     S
C368   C369    1.412   .     A
C368   C1114   1.425   1_554 S
C369   H372    1.076   .     S
C369   C370    1.385   .     A
C370   H371    1.082   .     S
C370   C1113   1.398   1_554 S
H375   C603    1.113   .     S
H386   C444    1.082   .     S
H391   C426    1.086   .     S
O397   Zn415   1.929   .     S
O397   Zn412   1.965   .     S
O397   Zn413   1.949   .     S
O397   Zn414   1.930   .     S
O398   Zn413   1.931   .     S
O399   Zn415   1.945   .     S
O400   Zn414   1.940   .     S
O401   Zn412   1.927   .     S
O403   C595    1.397   .     S
O403   C606    1.413   .     S
O404   Zn412   1.934   .     S
O405   Zn415   1.936   .     S
O406   Zn413   1.921   .     S
O407   Zn414   1.936   .     S
O408   Zn415   1.931   .     S
O409   Zn412   1.918   .     S
O410   Zn413   1.942   .     S
O411   Zn414   1.935   .     S
C416   C426    1.437   .     S
C416   O489    1.272   .     A
C416   O491    1.271   .     A
C417   C450    1.417   .     A
C417   H456    1.075   .     S
C417   C418    1.384   .     A
C418   H477    1.085   .     S
C418   C1167   1.388   .     S
C419   O490    1.284   .     A
C419   C425    1.455   .     S
C419   O492    1.279   .     A
C420   C421    1.421   .     A
C420   C422    1.403   .     A
C420   C1165   1.388   1_554 S
C421   C424    1.411   .     A
C421   C451    1.428   .     A
C422   C423    1.389   .     A
C422   H465    1.084   .     S
C423   H476    1.084   .     S
C423   C435    1.394   .     A
C424   C435    1.392   .     A
C424   H475    1.077   .     S
C425   C260    1.335   1_655 S
C425   H307    1.088   1_655 S
C427   H478    1.084   .     S
C427   C436    1.398   .     A
C427   C434    1.397   .     A
C428   C431    1.461   .     S
C428   C678    1.350   .     S
C428   O734    1.389   .     S
C429   C430    1.444   .     S
C430   O487    1.277   .     A
C430   O493    1.277   .     A
C431   O488    1.265   .     A
C431   O494    1.272   .     A
C432   O481    1.276   .     A
C432   C435    1.450   .     S
C432   O483    1.271   .     A
C433   C434    1.471   .     S
C433   O484    1.285   .     A
C433   O482    1.281   .     A
C434   C438    1.393   .     A
C436   C442    1.484   .     S
C436   C449    1.422   .     A
C437   C439    1.521   .     S
C437   H457    1.116   .     S
C437   O485    1.413   .     S
C438   C448    1.407   .     A
C438   H479    1.073   .     S
C439   H460    1.111   .     S
C439   H459    1.111   .     S
C439   H461    1.111   .     S
C440   H462    1.113   .     S
C440   H463    1.115   .     S
C441   H464    1.111   .     S
C441   H467    1.111   .     S
C441   C689    1.521   .     S
C441   H715    1.111   .     S
C442   C443    1.405   .     A
C442   C1194   1.406   .     S
C443   C444    1.399   .     A
C443   H468    1.083   .     S
C444   C1109   1.398   .     S
C445   C446    1.397   .     A
C445   H470    1.082   .     S
C445   C1025   1.398   1_654 S
C446   H471    1.082   .     S
C446   C281    1.399   1_655 S
C447   H472    1.083   .     S
C447   C1189   1.406   1_554 S
C448   C449    1.424   .     A
C448   C450    1.430   .     A
C449   C1200   1.398   .     S
C450   C1198   1.425   .     S
C451   C452    1.412   .     A
C451   C1197   1.425   1_554 S
C452   H455    1.076   .     S
C452   C453    1.385   .     A
C453   H454    1.082   .     S
C453   C1196   1.398   1_554 S
H458   C686    1.113   .     S
H469   C278    1.082   1_655 S
H474   C260    1.086   1_655 S
O480   Zn498   1.929   .     S
O480   Zn495   1.965   .     S
O480   Zn496   1.949   .     S
O480   Zn497   1.930   .     S
O481   Zn496   1.931   .     S
O482   Zn498   1.945   .     S
O483   Zn497   1.940   .     S
O484   Zn495   1.927   .     S
O486   C678    1.397   .     S
O486   C689    1.413   .     S
O487   Zn495   1.934   .     S
O488   Zn498   1.936   .     S
O489   Zn496   1.921   .     S
O490   Zn497   1.936   .     S
O491   Zn498   1.931   .     S
O492   Zn495   1.918   .     S
O493   Zn496   1.942   .     S
O494   Zn497   1.935   .     S
C499   C509    1.437   .     S
C499   O572    1.272   .     A
C499   O574    1.271   .     A
C500   C533    1.417   .     A
C500   H539    1.075   .     S
C500   C501    1.384   .     A
C501   H560    1.085   .     S
C501   C1250   1.388   .     S
C502   O573    1.284   .     A
C502   C508    1.455   .     S
C502   O575    1.279   .     A
C503   C504    1.421   .     A
C503   C505    1.403   .     A
C503   C1248   1.388   1_554 S
C504   C507    1.411   .     A
C504   C534    1.428   .     A
C505   C506    1.389   .     A
C505   H548    1.084   .     S
C506   H559    1.084   .     S
C506   C518    1.394   .     A
C507   C518    1.392   .     A
C507   H558    1.077   .     S
C508   C592    1.335   .     S
C508   H639    1.088   .     S
C509   C674    1.335   1_455 S
C509   H723    1.086   1_455 S
C510   H561    1.084   .     S
C510   C519    1.398   .     A
C510   C517    1.397   .     A
C511   C514    1.461   .     S
C511   C14     1.350   1_565 S
C511   O70     1.389   1_565 S
C512   C513    1.444   .     S
C513   O570    1.277   .     A
C513   O576    1.277   .     A
C514   O571    1.265   .     A
C514   O577    1.272   .     A
C515   O564    1.276   .     A
C515   C518    1.450   .     S
C515   O566    1.271   .     A
C516   C517    1.471   .     S
C516   O567    1.285   .     A
C516   O565    1.281   .     A
C517   C521    1.393   .     A
C519   C525    1.484   .     S
C519   C532    1.422   .     A
C520   C522    1.521   .     S
C520   H540    1.116   .     S
C520   O568    1.413   .     S
C521   C531    1.407   .     A
C521   H562    1.073   .     S
C522   H543    1.111   .     S
C522   H542    1.111   .     S
C522   H544    1.111   .     S
C523   H545    1.113   .     S
C523   H546    1.115   .     S
C524   H547    1.111   .     S
C524   H550    1.111   .     S
C524   C25     1.521   1_565 S
C524   H51     1.111   1_565 S
C525   C526    1.405   .     A
C525   C1277   1.406   .     S
C526   C527    1.399   .     A
C526   H551    1.083   .     S
C527   C1441   1.398   1_455 S
C527   H718    1.082   1_455 S
C528   C529    1.397   .     A
C528   H553    1.082   .     S
C528   C1357   1.398   1_554 S
C529   H554    1.082   .     S
C529   C613    1.399   .     S
C530   H555    1.083   .     S
C530   C1272   1.406   1_554 S
C530   C695    1.399   1_455 S
C531   C532    1.424   .     A
C531   C533    1.430   .     A
C532   C1283   1.398   .     S
C533   C1281   1.425   .     S
C534   C535    1.412   .     A
C534   C1280   1.425   1_554 S
C535   H538    1.076   .     S
C535   C536    1.385   .     A
C536   H537    1.082   .     S
C536   C1279   1.398   1_554 S
H541   C22     1.113   1_565 S
H552   C610    1.082   .     S
H556   C674    1.088   1_455 S
H557   C592    1.086   .     S
O563   Zn581   1.929   .     S
O563   Zn578   1.965   .     S
O563   Zn579   1.949   .     S
O563   Zn580   1.930   .     S
O564   Zn579   1.931   .     S
O565   Zn581   1.945   .     S
O566   Zn580   1.940   .     S
O567   Zn578   1.927   .     S
O569   C14     1.397   1_565 S
O569   C25     1.413   1_565 S
O570   Zn578   1.934   .     S
O571   Zn581   1.936   .     S
O572   Zn579   1.921   .     S
O573   Zn580   1.936   .     S
O574   Zn581   1.931   .     S
O575   Zn578   1.918   .     S
O576   Zn579   1.942   .     S
O577   Zn580   1.935   .     S
C582   C592    1.437   .     S
C582   O655    1.272   .     A
C582   O657    1.271   .     A
C583   C616    1.417   .     A
C583   H622    1.075   .     S
C583   C584    1.384   .     A
C584   H643    1.085   .     S
C584   C1333   1.388   .     S
C585   O656    1.284   .     A
C585   C591    1.455   .     S
C585   O658    1.279   .     A
C586   C587    1.421   .     A
C586   C588    1.403   .     A
C586   C1331   1.388   1_554 S
C587   C590    1.411   .     A
C587   C617    1.428   .     A
C588   C589    1.389   .     A
C588   H631    1.084   .     S
C589   H642    1.084   .     S
C589   C601    1.394   .     A
C590   C601    1.392   .     A
C590   H641    1.077   .     S
C591   C675    1.335   .     S
C591   H722    1.088   .     S
C593   H644    1.084   .     S
C593   C602    1.398   .     A
C593   C600    1.397   .     A
C594   C597    1.461   .     S
C594   C97     1.350   1_565 S
C594   O153    1.389   1_565 S
C595   C596    1.444   .     S
C596   O653    1.277   .     A
C596   O659    1.277   .     A
C597   O654    1.265   .     A
C597   O660    1.272   .     A
C598   O647    1.276   .     A
C598   C601    1.450   .     S
C598   O649    1.271   .     A
C599   C600    1.471   .     S
C599   O650    1.285   .     A
C599   O648    1.281   .     A
C600   C604    1.393   .     A
C602   C608    1.484   .     S
C602   C615    1.422   .     A
C603   C605    1.521   .     S
C603   H623    1.116   .     S
C603   O651    1.413   .     S
C604   C614    1.407   .     A
C604   H645    1.073   .     S
C605   H626    1.111   .     S
C605   H625    1.111   .     S
C605   H627    1.111   .     S
C606   H628    1.113   .     S
C606   H629    1.115   .     S
C607   H630    1.111   .     S
C607   H633    1.111   .     S
C607   C108    1.521   1_565 S
C607   H134    1.111   1_565 S
C608   C609    1.405   .     A
C608   C1360   1.406   .     S
C609   C610    1.399   .     A
C609   H634    1.083   .     S
C610   C1275   1.398   .     S
C611   C612    1.397   .     A
C611   H636    1.082   .     S
C611   C1440   1.398   1_554 S
C612   H637    1.082   .     S
C612   C696    1.399   .     S
C613   H638    1.083   .     S
C613   C1355   1.406   1_554 S
C614   C615    1.424   .     A
C614   C616    1.430   .     A
C615   C1366   1.398   .     S
C616   C1364   1.425   .     S
C617   C618    1.412   .     A
C617   C1363   1.425   1_554 S
C618   H621    1.076   .     S
C618   C619    1.385   .     A
C619   H620    1.082   .     S
C619   C1362   1.398   1_554 S
H624   C105    1.113   1_565 S
H635   C693    1.082   .     S
H640   C675    1.086   .     S
O646   Zn664   1.929   .     S
O646   Zn661   1.965   .     S
O646   Zn662   1.949   .     S
O646   Zn663   1.930   .     S
O647   Zn662   1.931   .     S
O648   Zn664   1.945   .     S
O649   Zn663   1.940   .     S
O650   Zn661   1.927   .     S
O652   C97     1.397   1_565 S
O652   C108    1.413   1_565 S
O653   Zn661   1.934   .     S
O654   Zn664   1.936   .     S
O655   Zn662   1.921   .     S
O656   Zn663   1.936   .     S
O657   Zn664   1.931   .     S
O658   Zn661   1.918   .     S
O659   Zn662   1.942   .     S
O660   Zn663   1.935   .     S
C665   C675    1.437   .     S
C665   O738    1.272   .     A
C665   O740    1.271   .     A
C666   C699    1.417   .     A
C666   H705    1.075   .     S
C666   C667    1.384   .     A
C667   H726    1.085   .     S
C667   C1416   1.388   .     S
C668   O739    1.284   .     A
C668   C674    1.455   .     S
C668   O741    1.279   .     A
C669   C670    1.421   .     A
C669   C671    1.403   .     A
C669   C1414   1.388   1_554 S
C670   C673    1.411   .     A
C670   C700    1.428   .     A
C671   C672    1.389   .     A
C671   H714    1.084   .     S
C672   H725    1.084   .     S
C672   C684    1.394   .     A
C673   C684    1.392   .     A
C673   H724    1.077   .     S
C674   C509    1.335   1_655 S
C674   H556    1.088   1_655 S
C676   H727    1.084   .     S
C676   C685    1.398   .     A
C676   C683    1.397   .     A
C677   C680    1.461   .     S
C677   C180    1.350   1_565 S
C677   O236    1.389   1_565 S
C678   C679    1.444   .     S
C679   O736    1.277   .     A
C679   O742    1.277   .     A
C680   O737    1.265   .     A
C680   O743    1.272   .     A
C681   O730    1.276   .     A
C681   C684    1.450   .     S
C681   O732    1.271   .     A
C682   C683    1.471   .     S
C682   O733    1.285   .     A
C682   O731    1.281   .     A
C683   C687    1.393   .     A
C685   C691    1.484   .     S
C685   C698    1.422   .     A
C686   C688    1.521   .     S
C686   H706    1.116   .     S
C686   O734    1.413   .     S
C687   C697    1.407   .     A
C687   H728    1.073   .     S
C688   H709    1.111   .     S
C688   H708    1.111   .     S
C688   H710    1.111   .     S
C689   H711    1.113   .     S
C689   H712    1.115   .     S
C690   H713    1.111   .     S
C690   H716    1.111   .     S
C690   C191    1.521   1_565 S
C690   H217    1.111   1_565 S
C691   C692    1.405   .     A
C691   C1443   1.406   .     S
C692   C693    1.399   .     A
C692   H717    1.083   .     S
C693   C1358   1.398   .     S
C694   C695    1.397   .     A
C694   H719    1.082   .     S
C694   C1274   1.398   1_654 S
C695   H720    1.082   .     S
C695   C530    1.399   1_655 S
C696   H721    1.083   .     S
C696   C1438   1.406   1_554 S
C697   C698    1.424   .     A
C697   C699    1.430   .     A
C698   C1449   1.398   .     S
C699   C1447   1.425   .     S
C700   C701    1.412   .     A
C700   C1446   1.425   1_554 S
C701   H704    1.076   .     S
C701   C702    1.385   .     A
C702   H703    1.082   .     S
C702   C1445   1.398   1_554 S
H707   C188    1.113   1_565 S
H718   C527    1.082   1_655 S
H723   C509    1.086   1_655 S
O729   Zn747   1.929   .     S
O729   Zn744   1.965   .     S
O729   Zn745   1.949   .     S
O729   Zn746   1.930   .     S
O730   Zn745   1.931   .     S
O731   Zn747   1.945   .     S
O732   Zn746   1.940   .     S
O733   Zn744   1.927   .     S
O735   C180    1.397   1_565 S
O735   C191    1.413   1_565 S
O736   Zn744   1.934   .     S
O737   Zn747   1.936   .     S
O738   Zn745   1.921   .     S
O739   Zn746   1.936   .     S
O740   Zn747   1.931   .     S
O741   Zn744   1.918   .     S
O742   Zn745   1.942   .     S
O743   Zn746   1.935   .     S
C748   C758    1.437   .     S
C748   O821    1.272   .     A
C748   O823    1.271   .     A
C749   C782    1.417   .     A
C749   H788    1.075   .     S
C749   C750    1.384   .     A
C750   H809    1.085   .     S
C750   C5      1.388   1_556 S
C751   O822    1.284   .     A
C751   C757    1.455   .     S
C751   O824    1.279   .     A
C752   C753    1.421   .     A
C752   C754    1.403   .     A
C753   C756    1.411   .     A
C753   C783    1.428   .     A
C754   C755    1.389   .     A
C754   H797    1.084   .     S
C755   H808    1.084   .     S
C755   C767    1.394   .     A
C756   C767    1.392   .     A
C756   H807    1.077   .     S
C757   C841    1.335   .     S
C757   H888    1.088   .     S
C758   C923    1.335   1_455 S
C758   H972    1.086   1_455 S
C759   H810    1.084   .     S
C759   C768    1.398   .     A
C759   C766    1.397   .     A
C760   C763    1.461   .     S
C760   C1010   1.350   .     S
C760   O1066   1.389   .     S
C761   C762    1.444   .     S
C761   C1258   1.350   1_545 S
C761   O1316   1.397   1_545 S
C762   O819    1.277   .     A
C762   O825    1.277   .     A
C763   O820    1.265   .     A
C763   O826    1.272   .     A
C764   O813    1.276   .     A
C764   C767    1.450   .     S
C764   O815    1.271   .     A
C765   C766    1.471   .     S
C765   O816    1.285   .     A
C765   O814    1.281   .     A
C766   C770    1.393   .     A
C768   C774    1.484   .     S
C768   C781    1.422   .     A
C769   C771    1.521   .     S
C769   H789    1.116   .     S
C769   O817    1.413   .     S
C769   H1288   1.113   1_545 S
C770   C780    1.407   .     A
C770   H811    1.073   .     S
C771   H792    1.111   .     S
C771   H791    1.111   .     S
C771   H793    1.111   .     S
C772   H794    1.113   .     S
C772   H795    1.115   .     S
C772   C1271   1.521   1_545 S
C772   O1316   1.413   1_545 S
C773   H796    1.111   .     S
C773   H799    1.111   .     S
C773   C1021   1.521   .     S
C773   H1047   1.111   .     S
C774   C775    1.405   .     A
C774   C32     1.406   1_556 S
C775   C776    1.399   .     A
C775   H800    1.083   .     S
C776   C196    1.398   1_456 S
C776   H967    1.082   1_455 S
C777   C778    1.397   .     A
C777   H802    1.082   .     S
C778   H803    1.082   .     S
C778   C862    1.399   .     S
C779   H804    1.083   .     S
C779   C944    1.399   1_455 S
C780   C781    1.424   .     A
C780   C782    1.430   .     A
C781   C38     1.398   1_556 S
C782   C36     1.425   1_556 S
C783   C784    1.412   .     A
C784   H787    1.076   .     S
C784   C785    1.385   .     A
C785   H786    1.082   .     S
H790   C1018   1.113   .     S
H798   C1271   1.111   1_545 S
H801   C859    1.082   .     S
H805   C923    1.088   1_455 S
H806   C841    1.086   .     S
O812   Zn830   1.929   .     S
O812   Zn827   1.965   .     S
O812   Zn828   1.949   .     S
O812   Zn829   1.930   .     S
O813   Zn828   1.931   .     S
O814   Zn830   1.945   .     S
O815   Zn829   1.940   .     S
O816   Zn827   1.927   .     S
O817   C1258   1.389   1_545 S
O818   C1010   1.397   .     S
O818   C1021   1.413   .     S
O819   Zn827   1.934   .     S
O820   Zn830   1.936   .     S
O821   Zn828   1.921   .     S
O822   Zn829   1.936   .     S
O823   Zn830   1.931   .     S
O824   Zn827   1.918   .     S
O825   Zn828   1.942   .     S
O826   Zn829   1.935   .     S
C831   C841    1.437   .     S
C831   O904    1.272   .     A
C831   O906    1.271   .     A
C832   C865    1.417   .     A
C832   H871    1.075   .     S
C832   C833    1.384   .     A
C833   H892    1.085   .     S
C833   C88     1.388   1_556 S
C834   O905    1.284   .     A
C834   C840    1.455   .     S
C834   O907    1.279   .     A
C835   C836    1.421   .     A
C835   C837    1.403   .     A
C836   C839    1.411   .     A
C836   C866    1.428   .     A
C837   C838    1.389   .     A
C837   H880    1.084   .     S
C838   H891    1.084   .     S
C838   C850    1.394   .     A
C839   C850    1.392   .     A
C839   H890    1.077   .     S
C840   C924    1.335   .     S
C840   H971    1.088   .     S
C842   H893    1.084   .     S
C842   C851    1.398   .     A
C842   C849    1.397   .     A
C843   C846    1.461   .     S
C843   C1093   1.350   .     S
C843   O1149   1.389   .     S
C844   C845    1.444   .     S
C844   C1341   1.350   1_545 S
C844   O1399   1.397   1_545 S
C845   O902    1.277   .     A
C845   O908    1.277   .     A
C846   O903    1.265   .     A
C846   O909    1.272   .     A
C847   O896    1.276   .     A
C847   C850    1.450   .     S
C847   O898    1.271   .     A
C848   C849    1.471   .     S
C848   O899    1.285   .     A
C848   O897    1.281   .     A
C849   C853    1.393   .     A
C851   C857    1.484   .     S
C851   C864    1.422   .     A
C852   C854    1.521   .     S
C852   H872    1.116   .     S
C852   O900    1.413   .     S
C852   H1371   1.113   1_545 S
C853   C863    1.407   .     A
C853   H894    1.073   .     S
C854   H875    1.111   .     S
C854   H874    1.111   .     S
C854   H876    1.111   .     S
C855   H877    1.113   .     S
C855   H878    1.115   .     S
C855   C1354   1.521   1_545 S
C855   O1399   1.413   1_545 S
C856   H879    1.111   .     S
C856   H882    1.111   .     S
C856   C1104   1.521   .     S
C856   H1130   1.111   .     S
C857   C858    1.405   .     A
C857   C115    1.406   1_556 S
C858   C859    1.399   .     A
C858   H883    1.083   .     S
C859   C30     1.398   1_556 S
C860   C861    1.397   .     A
C860   H885    1.082   .     S
C861   H886    1.082   .     S
C861   C945    1.399   .     S
C862   H887    1.083   .     S
C863   C864    1.424   .     A
C863   C865    1.430   .     A
C864   C121    1.398   1_556 S
C865   C119    1.425   1_556 S
C866   C867    1.412   .     A
C867   H870    1.076   .     S
C867   C868    1.385   .     A
C868   H869    1.082   .     S
H873   C1101   1.113   .     S
H881   C1354   1.111   1_545 S
H884   C942    1.082   .     S
H889   C924    1.086   .     S
O895   Zn913   1.929   .     S
O895   Zn910   1.965   .     S
O895   Zn911   1.949   .     S
O895   Zn912   1.930   .     S
O896   Zn911   1.931   .     S
O897   Zn913   1.945   .     S
O898   Zn912   1.940   .     S
O899   Zn910   1.927   .     S
O900   C1341   1.389   1_545 S
O901   C1093   1.397   .     S
O901   C1104   1.413   .     S
O902   Zn910   1.934   .     S
O903   Zn913   1.936   .     S
O904   Zn911   1.921   .     S
O905   Zn912   1.936   .     S
O906   Zn913   1.931   .     S
O907   Zn910   1.918   .     S
O908   Zn911   1.942   .     S
O909   Zn912   1.935   .     S
C914   C924    1.437   .     S
C914   O987    1.272   .     A
C914   O989    1.271   .     A
C915   C948    1.417   .     A
C915   H954    1.075   .     S
C915   C916    1.384   .     A
C916   H975    1.085   .     S
C916   C171    1.388   1_556 S
C917   O988    1.284   .     A
C917   C923    1.455   .     S
C917   O990    1.279   .     A
C918   C919    1.421   .     A
C918   C920    1.403   .     A
C919   C922    1.411   .     A
C919   C949    1.428   .     A
C920   C921    1.389   .     A
C920   H963    1.084   .     S
C921   H974    1.084   .     S
C921   C933    1.394   .     A
C922   C933    1.392   .     A
C922   H973    1.077   .     S
C923   C758    1.335   1_655 S
C923   H805    1.088   1_655 S
C925   H976    1.084   .     S
C925   C934    1.398   .     A
C925   C932    1.397   .     A
C926   C929    1.461   .     S
C926   C1176   1.350   .     S
C926   O1232   1.389   .     S
C927   C928    1.444   .     S
C927   C1424   1.350   1_545 S
C927   O1482   1.397   1_545 S
C928   O985    1.277   .     A
C928   O991    1.277   .     A
C929   O986    1.265   .     A
C929   O992    1.272   .     A
C930   O979    1.276   .     A
C930   C933    1.450   .     S
C930   O981    1.271   .     A
C931   C932    1.471   .     S
C931   O982    1.285   .     A
C931   O980    1.281   .     A
C932   C936    1.393   .     A
C934   C940    1.484   .     S
C934   C947    1.422   .     A
C935   C937    1.521   .     S
C935   H955    1.116   .     S
C935   O983    1.413   .     S
C935   H1454   1.113   1_545 S
C936   C946    1.407   .     A
C936   H977    1.073   .     S
C937   H958    1.111   .     S
C937   H957    1.111   .     S
C937   H959    1.111   .     S
C938   H960    1.113   .     S
C938   H961    1.115   .     S
C938   C1437   1.521   1_545 S
C938   O1482   1.413   1_545 S
C939   H962    1.111   .     S
C939   H965    1.111   .     S
C939   C1187   1.521   .     S
C939   H1213   1.111   .     S
C940   C941    1.405   .     A
C940   C198    1.406   1_556 S
C941   C942    1.399   .     A
C941   H966    1.083   .     S
C942   C113    1.398   1_556 S
C943   C944    1.397   .     A
C943   H968    1.082   .     S
C943   C29     1.398   1_655 S
C944   H969    1.082   .     S
C944   C779    1.399   1_655 S
C945   H970    1.083   .     S
C946   C947    1.424   .     A
C946   C948    1.430   .     A
C947   C204    1.398   1_556 S
C948   C202    1.425   1_556 S
C949   C950    1.412   .     A
C950   H953    1.076   .     S
C950   C951    1.385   .     A
C951   H952    1.082   .     S
H956   C1184   1.113   .     S
H964   C1437   1.111   1_545 S
H967   C776    1.082   1_655 S
H972   C758    1.086   1_655 S
O978   Zn996   1.929   .     S
O978   Zn993   1.965   .     S
O978   Zn994   1.949   .     S
O978   Zn995   1.930   .     S
O979   Zn994   1.931   .     S
O980   Zn996   1.945   .     S
O981   Zn995   1.940   .     S
O982   Zn993   1.927   .     S
O983   C1424   1.389   1_545 S
O984   C1176   1.397   .     S
O984   C1187   1.413   .     S
O985   Zn993   1.934   .     S
O986   Zn996   1.936   .     S
O987   Zn994   1.921   .     S
O988   Zn995   1.936   .     S
O989   Zn996   1.931   .     S
O990   Zn993   1.918   .     S
O991   Zn994   1.942   .     S
O992   Zn995   1.935   .     S
C997   C1007   1.437   .     S
C997   O1070   1.272   .     A
C997   O1072   1.271   .     A
C998   C1031   1.417   .     A
C998   H1037   1.075   .     S
C998   C999    1.384   .     A
C999   H1058   1.085   .     S
C999   C254    1.388   1_556 S
C1000  O1071   1.284   .     A
C1000  C1006   1.455   .     S
C1000  O1073   1.279   .     A
C1001  C1002   1.421   .     A
C1001  C1003   1.403   .     A
C1002  C1005   1.411   .     A
C1002  C1032   1.428   .     A
C1003  C1004   1.389   .     A
C1003  H1046   1.084   .     S
C1004  H1057   1.084   .     S
C1004  C1016   1.394   .     A
C1005  C1016   1.392   .     A
C1005  H1056   1.077   .     S
C1006  C1090   1.335   .     S
C1006  H1137   1.088   .     S
C1007  C1172   1.335   1_455 S
C1007  H1221   1.086   1_455 S
C1008  H1059   1.084   .     S
C1008  C1017   1.398   .     A
C1008  C1015   1.397   .     A
C1009  C1012   1.461   .     S
C1009  C1259   1.350   .     S
C1009  O1315   1.389   .     S
C1010  C1011   1.444   .     S
C1011  O1068   1.277   .     A
C1011  O1074   1.277   .     A
C1012  O1069   1.265   .     A
C1012  O1075   1.272   .     A
C1013  O1062   1.276   .     A
C1013  C1016   1.450   .     S
C1013  O1064   1.271   .     A
C1014  C1015   1.471   .     S
C1014  O1065   1.285   .     A
C1014  O1063   1.281   .     A
C1015  C1019   1.393   .     A
C1017  C1023   1.484   .     S
C1017  C1030   1.422   .     A
C1018  C1020   1.521   .     S
C1018  H1038   1.116   .     S
C1018  O1066   1.413   .     S
C1019  C1029   1.407   .     A
C1019  H1060   1.073   .     S
C1020  H1041   1.111   .     S
C1020  H1040   1.111   .     S
C1020  H1042   1.111   .     S
C1021  H1043   1.113   .     S
C1021  H1044   1.115   .     S
C1022  H1045   1.111   .     S
C1022  H1048   1.111   .     S
C1022  C1270   1.521   .     S
C1022  H1296   1.111   .     S
C1023  C1024   1.405   .     A
C1023  C281    1.406   1_556 S
C1024  C1025   1.399   .     A
C1024  H1049   1.083   .     S
C1025  C445    1.398   1_456 S
C1025  H1216   1.082   1_455 S
C1026  C1027   1.397   .     A
C1026  H1051   1.082   .     S
C1027  H1052   1.082   .     S
C1027  C1111   1.399   .     S
C1028  H1053   1.083   .     S
C1028  C1193   1.399   1_455 S
C1029  C1030   1.424   .     A
C1029  C1031   1.430   .     A
C1030  C287    1.398   1_556 S
C1031  C285    1.425   1_556 S
C1032  C1033   1.412   .     A
C1033  H1036   1.076   .     S
C1033  C1034   1.385   .     A
C1034  H1035   1.082   .     S
H1039  C1267   1.113   .     S
H1050  C1108   1.082   .     S
H1054  C1172   1.088   1_455 S
H1055  C1090   1.086   .     S
O1061  Zn1079  1.929   .     S
O1061  Zn1076  1.965   .     S
O1061  Zn1077  1.949   .     S
O1061  Zn1078  1.930   .     S
O1062  Zn1077  1.931   .     S
O1063  Zn1079  1.945   .     S
O1064  Zn1078  1.940   .     S
O1065  Zn1076  1.927   .     S
O1067  C1259   1.397   .     S
O1067  C1270   1.413   .     S
O1068  Zn1076  1.934   .     S
O1069  Zn1079  1.936   .     S
O1070  Zn1077  1.921   .     S
O1071  Zn1078  1.936   .     S
O1072  Zn1079  1.931   .     S
O1073  Zn1076  1.918   .     S
O1074  Zn1077  1.942   .     S
O1075  Zn1078  1.935   .     S
C1080  C1090   1.437   .     S
C1080  O1153   1.272   .     A
C1080  O1155   1.271   .     A
C1081  C1114   1.417   .     A
C1081  H1120   1.075   .     S
C1081  C1082   1.384   .     A
C1082  H1141   1.085   .     S
C1082  C337    1.388   1_556 S
C1083  O1154   1.284   .     A
C1083  C1089   1.455   .     S
C1083  O1156   1.279   .     A
C1084  C1085   1.421   .     A
C1084  C1086   1.403   .     A
C1085  C1088   1.411   .     A
C1085  C1115   1.428   .     A
C1086  C1087   1.389   .     A
C1086  H1129   1.084   .     S
C1087  H1140   1.084   .     S
C1087  C1099   1.394   .     A
C1088  C1099   1.392   .     A
C1088  H1139   1.077   .     S
C1089  C1173   1.335   .     S
C1089  H1220   1.088   .     S
C1091  H1142   1.084   .     S
C1091  C1100   1.398   .     A
C1091  C1098   1.397   .     A
C1092  C1095   1.461   .     S
C1092  C1342   1.350   .     S
C1092  O1398   1.389   .     S
C1093  C1094   1.444   .     S
C1094  O1151   1.277   .     A
C1094  O1157   1.277   .     A
C1095  O1152   1.265   .     A
C1095  O1158   1.272   .     A
C1096  O1145   1.276   .     A
C1096  C1099   1.450   .     S
C1096  O1147   1.271   .     A
C1097  C1098   1.471   .     S
C1097  O1148   1.285   .     A
C1097  O1146   1.281   .     A
C1098  C1102   1.393   .     A
C1100  C1106   1.484   .     S
C1100  C1113   1.422   .     A
C1101  C1103   1.521   .     S
C1101  H1121   1.116   .     S
C1101  O1149   1.413   .     S
C1102  C1112   1.407   .     A
C1102  H1143   1.073   .     S
C1103  H1124   1.111   .     S
C1103  H1123   1.111   .     S
C1103  H1125   1.111   .     S
C1104  H1126   1.113   .     S
C1104  H1127   1.115   .     S
C1105  H1128   1.111   .     S
C1105  H1131   1.111   .     S
C1105  C1353   1.521   .     S
C1105  H1379   1.111   .     S
C1106  C1107   1.405   .     A
C1106  C364    1.406   1_556 S
C1107  C1108   1.399   .     A
C1107  H1132   1.083   .     S
C1108  C279    1.398   1_556 S
C1109  C1110   1.397   .     A
C1109  H1134   1.082   .     S
C1110  H1135   1.082   .     S
C1110  C1194   1.399   .     S
C1111  H1136   1.083   .     S
C1112  C1113   1.424   .     A
C1112  C1114   1.430   .     A
C1113  C370    1.398   1_556 S
C1114  C368    1.425   1_556 S
C1115  C1116   1.412   .     A
C1116  H1119   1.076   .     S
C1116  C1117   1.385   .     A
C1117  H1118   1.082   .     S
H1122  C1350   1.113   .     S
H1133  C1191   1.082   .     S
H1138  C1173   1.086   .     S
O1144  Zn1162  1.929   .     S
O1144  Zn1159  1.965   .     S
O1144  Zn1160  1.949   .     S
O1144  Zn1161  1.930   .     S
O1145  Zn1160  1.931   .     S
O1146  Zn1162  1.945   .     S
O1147  Zn1161  1.940   .     S
O1148  Zn1159  1.927   .     S
O1150  C1342   1.397   .     S
O1150  C1353   1.413   .     S
O1151  Zn1159  1.934   .     S
O1152  Zn1162  1.936   .     S
O1153  Zn1160  1.921   .     S
O1154  Zn1161  1.936   .     S
O1155  Zn1162  1.931   .     S
O1156  Zn1159  1.918   .     S
O1157  Zn1160  1.942   .     S
O1158  Zn1161  1.935   .     S
C1163  C1173   1.437   .     S
C1163  O1236   1.272   .     A
C1163  O1238   1.271   .     A
C1164  C1197   1.417   .     A
C1164  H1203   1.075   .     S
C1164  C1165   1.384   .     A
C1165  H1224   1.085   .     S
C1165  C420    1.388   1_556 S
C1166  O1237   1.284   .     A
C1166  C1172   1.455   .     S
C1166  O1239   1.279   .     A
C1167  C1168   1.421   .     A
C1167  C1169   1.403   .     A
C1168  C1171   1.411   .     A
C1168  C1198   1.428   .     A
C1169  C1170   1.389   .     A
C1169  H1212   1.084   .     S
C1170  H1223   1.084   .     S
C1170  C1182   1.394   .     A
C1171  C1182   1.392   .     A
C1171  H1222   1.077   .     S
C1172  C1007   1.335   1_655 S
C1172  H1054   1.088   1_655 S
C1174  H1225   1.084   .     S
C1174  C1183   1.398   .     A
C1174  C1181   1.397   .     A
C1175  C1178   1.461   .     S
C1175  C1425   1.350   .     S
C1175  O1481   1.389   .     S
C1176  C1177   1.444   .     S
C1177  O1234   1.277   .     A
C1177  O1240   1.277   .     A
C1178  O1235   1.265   .     A
C1178  O1241   1.272   .     A
C1179  O1228   1.276   .     A
C1179  C1182   1.450   .     S
C1179  O1230   1.271   .     A
C1180  C1181   1.471   .     S
C1180  O1231   1.285   .     A
C1180  O1229   1.281   .     A
C1181  C1185   1.393   .     A
C1183  C1189   1.484   .     S
C1183  C1196   1.422   .     A
C1184  C1186   1.521   .     S
C1184  H1204   1.116   .     S
C1184  O1232   1.413   .     S
C1185  C1195   1.407   .     A
C1185  H1226   1.073   .     S
C1186  H1207   1.111   .     S
C1186  H1206   1.111   .     S
C1186  H1208   1.111   .     S
C1187  H1209   1.113   .     S
C1187  H1210   1.115   .     S
C1188  H1211   1.111   .     S
C1188  H1214   1.111   .     S
C1188  C1436   1.521   .     S
C1188  H1462   1.111   .     S
C1189  C1190   1.405   .     A
C1189  C447    1.406   1_556 S
C1190  C1191   1.399   .     A
C1190  H1215   1.083   .     S
C1191  C362    1.398   1_556 S
C1192  C1193   1.397   .     A
C1192  H1217   1.082   .     S
C1192  C278    1.398   1_655 S
C1193  H1218   1.082   .     S
C1193  C1028   1.399   1_655 S
C1194  H1219   1.083   .     S
C1195  C1196   1.424   .     A
C1195  C1197   1.430   .     A
C1196  C453    1.398   1_556 S
C1197  C451    1.425   1_556 S
C1198  C1199   1.412   .     A
C1199  H1202   1.076   .     S
C1199  C1200   1.385   .     A
C1200  H1201   1.082   .     S
H1205  C1433   1.113   .     S
H1216  C1025   1.082   1_655 S
H1221  C1007   1.086   1_655 S
O1227  Zn1245  1.929   .     S
O1227  Zn1242  1.965   .     S
O1227  Zn1243  1.949   .     S
O1227  Zn1244  1.930   .     S
O1228  Zn1243  1.931   .     S
O1229  Zn1245  1.945   .     S
O1230  Zn1244  1.940   .     S
O1231  Zn1242  1.927   .     S
O1233  C1425   1.397   .     S
O1233  C1436   1.413   .     S
O1234  Zn1242  1.934   .     S
O1235  Zn1245  1.936   .     S
O1236  Zn1243  1.921   .     S
O1237  Zn1244  1.936   .     S
O1238  Zn1245  1.931   .     S
O1239  Zn1242  1.918   .     S
O1240  Zn1243  1.942   .     S
O1241  Zn1244  1.935   .     S
C1246  C1256   1.437   .     S
C1246  O1319   1.272   .     A
C1246  O1321   1.271   .     A
C1247  C1280   1.417   .     A
C1247  H1286   1.075   .     S
C1247  C1248   1.384   .     A
C1248  H1307   1.085   .     S
C1248  C503    1.388   1_556 S
C1249  O1320   1.284   .     A
C1249  C1255   1.455   .     S
C1249  O1322   1.279   .     A
C1250  C1251   1.421   .     A
C1250  C1252   1.403   .     A
C1251  C1254   1.411   .     A
C1251  C1281   1.428   .     A
C1252  C1253   1.389   .     A
C1252  H1295   1.084   .     S
C1253  H1306   1.084   .     S
C1253  C1265   1.394   .     A
C1254  C1265   1.392   .     A
C1254  H1305   1.077   .     S
C1255  C1339   1.335   .     S
C1255  H1386   1.088   .     S
C1256  C1421   1.335   1_455 S
C1256  H1470   1.086   1_455 S
C1257  H1308   1.084   .     S
C1257  C1266   1.398   .     A
C1257  C1264   1.397   .     A
C1258  C1261   1.461   .     S
C1258  C761    1.350   1_565 S
C1258  O817    1.389   1_565 S
C1259  C1260   1.444   .     S
C1260  O1317   1.277   .     A
C1260  O1323   1.277   .     A
C1261  O1318   1.265   .     A
C1261  O1324   1.272   .     A
C1262  O1311   1.276   .     A
C1262  C1265   1.450   .     S
C1262  O1313   1.271   .     A
C1263  C1264   1.471   .     S
C1263  O1314   1.285   .     A
C1263  O1312   1.281   .     A
C1264  C1268   1.393   .     A
C1266  C1272   1.484   .     S
C1266  C1279   1.422   .     A
C1267  C1269   1.521   .     S
C1267  H1287   1.116   .     S
C1267  O1315   1.413   .     S
C1268  C1278   1.407   .     A
C1268  H1309   1.073   .     S
C1269  H1290   1.111   .     S
C1269  H1289   1.111   .     S
C1269  H1291   1.111   .     S
C1270  H1292   1.113   .     S
C1270  H1293   1.115   .     S
C1271  H1294   1.111   .     S
C1271  H1297   1.111   .     S
C1271  C772    1.521   1_565 S
C1271  H798    1.111   1_565 S
C1272  C1273   1.405   .     A
C1272  C530    1.406   1_556 S
C1273  C1274   1.399   .     A
C1273  H1298   1.083   .     S
C1274  C694    1.398   1_456 S
C1274  H1465   1.082   1_455 S
C1275  C1276   1.397   .     A
C1275  H1300   1.082   .     S
C1276  H1301   1.082   .     S
C1276  C1360   1.399   .     S
C1277  H1302   1.083   .     S
C1277  C1442   1.399   1_455 S
C1278  C1279   1.424   .     A
C1278  C1280   1.430   .     A
C1279  C536    1.398   1_556 S
C1280  C534    1.425   1_556 S
C1281  C1282   1.412   .     A
C1282  H1285   1.076   .     S
C1282  C1283   1.385   .     A
C1283  H1284   1.082   .     S
H1288  C769    1.113   1_565 S
H1299  C1357   1.082   .     S
H1303  C1421   1.088   1_455 S
H1304  C1339   1.086   .     S
O1310  Zn1328  1.929   .     S
O1310  Zn1325  1.965   .     S
O1310  Zn1326  1.949   .     S
O1310  Zn1327  1.930   .     S
O1311  Zn1326  1.931   .     S
O1312  Zn1328  1.945   .     S
O1313  Zn1327  1.940   .     S
O1314  Zn1325  1.927   .     S
O1316  C761    1.397   1_565 S
O1316  C772    1.413   1_565 S
O1317  Zn1325  1.934   .     S
O1318  Zn1328  1.936   .     S
O1319  Zn1326  1.921   .     S
O1320  Zn1327  1.936   .     S
O1321  Zn1328  1.931   .     S
O1322  Zn1325  1.918   .     S
O1323  Zn1326  1.942   .     S
O1324  Zn1327  1.935   .     S
C1329  C1339   1.437   .     S
C1329  O1402   1.272   .     A
C1329  O1404   1.271   .     A
C1330  C1363   1.417   .     A
C1330  H1369   1.075   .     S
C1330  C1331   1.384   .     A
C1331  H1390   1.085   .     S
C1331  C586    1.388   1_556 S
C1332  O1403   1.284   .     A
C1332  C1338   1.455   .     S
C1332  O1405   1.279   .     A
C1333  C1334   1.421   .     A
C1333  C1335   1.403   .     A
C1334  C1337   1.411   .     A
C1334  C1364   1.428   .     A
C1335  C1336   1.389   .     A
C1335  H1378   1.084   .     S
C1336  H1389   1.084   .     S
C1336  C1348   1.394   .     A
C1337  C1348   1.392   .     A
C1337  H1388   1.077   .     S
C1338  C1422   1.335   .     S
C1338  H1469   1.088   .     S
C1340  H1391   1.084   .     S
C1340  C1349   1.398   .     A
C1340  C1347   1.397   .     A
C1341  C1344   1.461   .     S
C1341  C844    1.350   1_565 S
C1341  O900    1.389   1_565 S
C1342  C1343   1.444   .     S
C1343  O1400   1.277   .     A
C1343  O1406   1.277   .     A
C1344  O1401   1.265   .     A
C1344  O1407   1.272   .     A
C1345  O1394   1.276   .     A
C1345  C1348   1.450   .     S
C1345  O1396   1.271   .     A
C1346  C1347   1.471   .     S
C1346  O1397   1.285   .     A
C1346  O1395   1.281   .     A
C1347  C1351   1.393   .     A
C1349  C1355   1.484   .     S
C1349  C1362   1.422   .     A
C1350  C1352   1.521   .     S
C1350  H1370   1.116   .     S
C1350  O1398   1.413   .     S
C1351  C1361   1.407   .     A
C1351  H1392   1.073   .     S
C1352  H1373   1.111   .     S
C1352  H1372   1.111   .     S
C1352  H1374   1.111   .     S
C1353  H1375   1.113   .     S
C1353  H1376   1.115   .     S
C1354  H1377   1.111   .     S
C1354  H1380   1.111   .     S
C1354  C855    1.521   1_565 S
C1354  H881    1.111   1_565 S
C1355  C1356   1.405   .     A
C1355  C613    1.406   1_556 S
C1356  C1357   1.399   .     A
C1356  H1381   1.083   .     S
C1357  C528    1.398   1_556 S
C1358  C1359   1.397   .     A
C1358  H1383   1.082   .     S
C1359  H1384   1.082   .     S
C1359  C1443   1.399   .     S
C1360  H1385   1.083   .     S
C1361  C1362   1.424   .     A
C1361  C1363   1.430   .     A
C1362  C619    1.398   1_556 S
C1363  C617    1.425   1_556 S
C1364  C1365   1.412   .     A
C1365  H1368   1.076   .     S
C1365  C1366   1.385   .     A
C1366  H1367   1.082   .     S
H1371  C852    1.113   1_565 S
H1382  C1440   1.082   .     S
H1387  C1422   1.086   .     S
O1393  Zn1411  1.929   .     S
O1393  Zn1408  1.965   .     S
O1393  Zn1409  1.949   .     S
O1393  Zn1410  1.930   .     S
O1394  Zn1409  1.931   .     S
O1395  Zn1411  1.945   .     S
O1396  Zn1410  1.940   .     S
O1397  Zn1408  1.927   .     S
O1399  C844    1.397   1_565 S
O1399  C855    1.413   1_565 S
O1400  Zn1408  1.934   .     S
O1401  Zn1411  1.936   .     S
O1402  Zn1409  1.921   .     S
O1403  Zn1410  1.936   .     S
O1404  Zn1411  1.931   .     S
O1405  Zn1408  1.918   .     S
O1406  Zn1409  1.942   .     S
O1407  Zn1410  1.935   .     S
C1412  C1422   1.437   .     S
C1412  O1485   1.272   .     A
C1412  O1487   1.271   .     A
C1413  C1446   1.417   .     A
C1413  H1452   1.075   .     S
C1413  C1414   1.384   .     A
C1414  H1473   1.085   .     S
C1414  C669    1.388   1_556 S
C1415  O1486   1.284   .     A
C1415  C1421   1.455   .     S
C1415  O1488   1.279   .     A
C1416  C1417   1.421   .     A
C1416  C1418   1.403   .     A
C1417  C1420   1.411   .     A
C1417  C1447   1.428   .     A
C1418  C1419   1.389   .     A
C1418  H1461   1.084   .     S
C1419  H1472   1.084   .     S
C1419  C1431   1.394   .     A
C1420  C1431   1.392   .     A
C1420  H1471   1.077   .     S
C1421  C1256   1.335   1_655 S
C1421  H1303   1.088   1_655 S
C1423  H1474   1.084   .     S
C1423  C1432   1.398   .     A
C1423  C1430   1.397   .     A
C1424  C1427   1.461   .     S
C1424  C927    1.350   1_565 S
C1424  O983    1.389   1_565 S
C1425  C1426   1.444   .     S
C1426  O1483   1.277   .     A
C1426  O1489   1.277   .     A
C1427  O1484   1.265   .     A
C1427  O1490   1.272   .     A
C1428  O1477   1.276   .     A
C1428  C1431   1.450   .     S
C1428  O1479   1.271   .     A
C1429  C1430   1.471   .     S
C1429  O1480   1.285   .     A
C1429  O1478   1.281   .     A
C1430  C1434   1.393   .     A
C1432  C1438   1.484   .     S
C1432  C1445   1.422   .     A
C1433  C1435   1.521   .     S
C1433  H1453   1.116   .     S
C1433  O1481   1.413   .     S
C1434  C1444   1.407   .     A
C1434  H1475   1.073   .     S
C1435  H1456   1.111   .     S
C1435  H1455   1.111   .     S
C1435  H1457   1.111   .     S
C1436  H1458   1.113   .     S
C1436  H1459   1.115   .     S
C1437  H1460   1.111   .     S
C1437  H1463   1.111   .     S
C1437  C938    1.521   1_565 S
C1437  H964    1.111   1_565 S
C1438  C1439   1.405   .     A
C1438  C696    1.406   1_556 S
C1439  C1440   1.399   .     A
C1439  H1464   1.083   .     S
C1440  C611    1.398   1_556 S
C1441  C1442   1.397   .     A
C1441  H1466   1.082   .     S
C1441  C527    1.398   1_655 S
C1442  H1467   1.082   .     S
C1442  C1277   1.399   1_655 S
C1443  H1468   1.083   .     S
C1444  C1445   1.424   .     A
C1444  C1446   1.430   .     A
C1445  C702    1.398   1_556 S
C1446  C700    1.425   1_556 S
C1447  C1448   1.412   .     A
C1448  H1451   1.076   .     S
C1448  C1449   1.385   .     A
C1449  H1450   1.082   .     S
H1454  C935    1.113   1_565 S
H1465  C1274   1.082   1_655 S
H1470  C1256   1.086   1_655 S
O1476  Zn1494  1.929   .     S
O1476  Zn1491  1.965   .     S
O1476  Zn1492  1.949   .     S
O1476  Zn1493  1.930   .     S
O1477  Zn1492  1.931   .     S
O1478  Zn1494  1.945   .     S
O1479  Zn1493  1.940   .     S
O1480  Zn1491  1.927   .     S
O1482  C927    1.397   1_565 S
O1482  C938    1.413   1_565 S
O1483  Zn1491  1.934   .     S
O1484  Zn1494  1.936   .     S
O1485  Zn1492  1.921   .     S
O1486  Zn1493  1.936   .     S
O1487  Zn1494  1.931   .     S
O1488  Zn1491  1.918   .     S
O1489  Zn1492  1.942   .     S
O1490  Zn1493  1.935   .     S
