data_str_m3_o1_o16_pcu_sym.15
_audit_creation_date              2020-01-03
_audit_creation_method            'Materials Studio'
_symmetry_space_group_name_H-M    'P1'
_symmetry_Int_Tables_number       1
_symmetry_cell_setting            triclinic
loop_
_symmetry_equiv_pos_as_xyz
  x,y,z
_cell_length_a                    29.6022
_cell_length_b                    32.0648
_cell_length_c                    26.3588
_cell_angle_alpha                 91.7323
_cell_angle_beta                  73.4043
_cell_angle_gamma                 89.5762
loop_
_atom_site_label
_atom_site_type_symbol
_atom_site_fract_x
_atom_site_fract_y
_atom_site_fract_z
_atom_site_U_iso_or_equiv
_atom_site_adp_type
_atom_site_occupancy
O1     O     0.12846   0.22775   0.25000   0.00000  Uiso   1.00
O2     O     0.20490   0.22774   0.25000   0.00000  Uiso   1.00
C3     C     0.16691   0.24700   0.24851   0.00000  Uiso   1.00
O4     O     0.10947   0.16666   0.32681   0.00000  Uiso   1.00
O5     O     0.18591   0.16665   0.32681   0.00000  Uiso   1.00
C6     C     0.14162   0.16608   0.35206   0.00000  Uiso   1.00
Zn7    Zn    0.11562   0.16667   0.25000   0.00000  Uiso   1.00
Zn8    Zn    0.21771   0.16666   0.25000   0.00000  Uiso   1.00
O9     O     0.12843   0.10559   0.24999   0.00000  Uiso   1.00
O10    O     0.20488   0.10558   0.24999   0.00000  Uiso   1.00
O11    O     0.14742   0.16668   0.17319   0.00000  Uiso   1.00
O12    O     0.22387   0.16667   0.17319   0.00000  Uiso   1.00
C13    C     0.16458   0.08741   0.25827   0.00000  Uiso   1.00
C14    C     0.19140   0.17274   0.14981   0.00000  Uiso   1.00
C15    C     0.24271   0.23709   0.02801   0.00000  Uiso   1.00
H16    H     0.27154   0.25767   0.01239   0.00000  Uiso   1.00
C17    C     0.20181   0.19139   0.09762   0.00000  Uiso   1.00
C18    C     0.08392   0.14987   0.43920   0.00000  Uiso   1.00
C19    C     0.06383   0.16101   0.49334   0.00000  Uiso   1.00
C20    C     0.09027   0.18507   0.02016   0.00000  Uiso   1.00
C21    C     0.13851   0.19242   0.49456   0.00000  Uiso   1.00
C22    C     0.15655   0.18612   0.43941   0.00000  Uiso   1.00
C23    C     0.17142   0.20262   0.02264   0.00000  Uiso   1.00
C24    C     0.21242   0.22462   0.49790   0.00000  Uiso   1.00
C25    C     0.22330   0.22837   0.44266   0.00000  Uiso   1.00
C26    C     0.20431   0.19748   0.41609   0.00000  Uiso   1.00
C27    C     0.16843   0.18437   0.07028   0.00000  Uiso   1.00
C28    C     0.23732   0.22125   0.07861   0.00000  Uiso   1.00
C29    C     0.12782   0.16654   0.41087   0.00000  Uiso   1.00
H30    H     0.14099   0.16233   0.08468   0.00000  Uiso   1.00
C31    C     0.20182   0.31173   0.26760   0.00000  Uiso   1.00
H32    H     0.23117   0.29389   0.27314   0.00000  Uiso   1.00
C33    C     0.20057   0.02117   0.27599   0.00000  Uiso   1.00
C34    C     0.16096   0.04355   0.27090   0.00000  Uiso   1.00
C35    C     0.11998   0.02200   0.26904   0.00000  Uiso   1.00
C36    C     0.12619   0.31472   0.24753   0.00000  Uiso   1.00
C37    C     0.16589   0.29197   0.25169   0.00000  Uiso   1.00
C38    C     0.31708   0.13738   0.22001   0.00000  Uiso   1.00
C39    C     0.03225   0.13839   0.21866   0.00000  Uiso   1.00
N40    N     0.04760   0.16668   0.25001   0.00000  Uiso   1.00
C41    C     0.01533   0.19425   0.28171   0.00000  Uiso   1.00
C42    C     0.30150   0.19546   0.27946   0.00000  Uiso   1.00
H43    H     0.27669   0.21803   0.30330   0.00000  Uiso   1.00
N44    N     0.28573   0.16665   0.25000   0.00000  Uiso   1.00
C45    C     0.26781   0.23760   0.11062   0.00000  Uiso   1.00
H46    H     0.26089   0.23099   0.15201   0.00000  Uiso   1.00
O47    O     0.30106   0.25996   0.09108   0.00000  Uiso   1.00
C48    C     0.23885   0.04104   0.29385   0.00000  Uiso   1.00
H49    H     0.23280   0.07079   0.31543   0.00000  Uiso   1.00
O50    O     0.27751   0.02411   0.28518   0.00000  Uiso   1.00
C51    C     0.07181   0.03962   0.29591   0.00000  Uiso   1.00
H52    H     0.06542   0.07265   0.30432   0.00000  Uiso   1.00
O53    O     0.03834   0.01692   0.31259   0.00000  Uiso   1.00
C54    C     0.09745   0.29984   0.21232   0.00000  Uiso   1.00
O55    O     0.11491   0.27520   0.17547   0.00000  Uiso   1.00
O56    O     0.05199   0.31571   0.21864   0.00000  Uiso   1.00
H57    H     0.03661   0.30340   0.19198   0.00000  Uiso   1.00
C58    C     0.30056   0.10477   0.18858   0.00000  Uiso   1.00
H59    H     0.27469   0.11166   0.16852   0.00000  Uiso   1.00
O60    O     0.31576   0.06898   0.18496   0.00000  Uiso   1.00
C61    C     0.06617   0.11047   0.18048   0.00000  Uiso   1.00
O62    O     0.08099   0.12020   0.13445   0.00000  Uiso   1.00
O63    O     0.07602   0.07074   0.19482   0.00000  Uiso   1.00
H64    H     0.09839   0.05413   0.16449   0.00000  Uiso   1.00
C65    C     0.02802   0.22066   0.32162   0.00000  Uiso   1.00
O66    O     0.02773   0.20621   0.36404   0.00000  Uiso   1.00
O67    O     0.03785   0.26256   0.31239   0.00000  Uiso   1.00
H68    H     0.04705   0.27688   0.34272   0.00000  Uiso   1.00
C69    C     0.25759   0.25800   0.41125   0.00000  Uiso   1.00
O70    O     0.29344   0.26715   0.42282   0.00000  Uiso   1.00
O71    O     0.24801   0.27609   0.36786   0.00000  Uiso   1.00
H72    H     0.27384   0.29544   0.34894   0.00000  Uiso   1.00
C73    C     0.06031   0.11929   0.41251   0.00000  Uiso   1.00
O74    O     0.08189   0.08773   0.39156   0.00000  Uiso   1.00
O75    O     0.01375   0.12606   0.41194   0.00000  Uiso   1.00
H76    H     0.00191   0.10282   0.39238   0.00000  Uiso   1.00
C77    C     0.06741   0.20622   0.07243   0.00000  Uiso   1.00
O78    O     0.03750   0.18876   0.10669   0.00000  Uiso   1.00
O79    O     0.07997   0.24701   0.08179   0.00000  Uiso   1.00
H80    H     0.05996   0.25916   0.11695   0.00000  Uiso   1.00
C81    C     0.01534   0.14796   0.02171   0.00000  Uiso   1.00
H82    H     0.32327   0.17059   0.04508   0.00000  Uiso   1.00
O83    O     0.00380   0.11156   0.02027   0.00000  Uiso   1.00
C84    C     0.23914   0.16340   0.39261   0.00000  Uiso   1.00
H85    H     0.27637   0.17009   0.37929   0.00000  Uiso   1.00
O86    O     0.22710   0.12711   0.39141   0.00000  Uiso   1.00
O87    O     0.46179   0.22775   0.25000   0.00000  Uiso   1.00
O88    O     0.53823   0.22774   0.25000   0.00000  Uiso   1.00
C89    C     0.50024   0.24700   0.24851   0.00000  Uiso   1.00
O90    O     0.44280   0.16666   0.32681   0.00000  Uiso   1.00
O91    O     0.51924   0.16665   0.32681   0.00000  Uiso   1.00
C92    C     0.47495   0.16608   0.35206   0.00000  Uiso   1.00
Zn93   Zn    0.44896   0.16667   0.25000   0.00000  Uiso   1.00
Zn94   Zn    0.55104   0.16666   0.25000   0.00000  Uiso   1.00
O95    O     0.46177   0.10559   0.24999   0.00000  Uiso   1.00
O96    O     0.53821   0.10558   0.24999   0.00000  Uiso   1.00
O97    O     0.48076   0.16668   0.17319   0.00000  Uiso   1.00
O98    O     0.55720   0.16667   0.17319   0.00000  Uiso   1.00
C99    C     0.49791   0.08741   0.25827   0.00000  Uiso   1.00
C100   C     0.52473   0.17274   0.14981   0.00000  Uiso   1.00
C101   C     0.57604   0.23709   0.02801   0.00000  Uiso   1.00
H102   H     0.60487   0.25767   0.01239   0.00000  Uiso   1.00
C103   C     0.53514   0.19139   0.09762   0.00000  Uiso   1.00
C104   C     0.41725   0.14987   0.43920   0.00000  Uiso   1.00
C105   C     0.39717   0.16101   0.49334   0.00000  Uiso   1.00
C106   C     0.42361   0.18507   0.02016   0.00000  Uiso   1.00
C107   C     0.47184   0.19242   0.49456   0.00000  Uiso   1.00
C108   C     0.48989   0.18612   0.43941   0.00000  Uiso   1.00
C109   C     0.50475   0.20262   0.02264   0.00000  Uiso   1.00
C110   C     0.54575   0.22462   0.49790   0.00000  Uiso   1.00
C111   C     0.55663   0.22837   0.44266   0.00000  Uiso   1.00
C112   C     0.53764   0.19748   0.41609   0.00000  Uiso   1.00
C113   C     0.50176   0.18437   0.07028   0.00000  Uiso   1.00
C114   C     0.57066   0.22125   0.07861   0.00000  Uiso   1.00
C115   C     0.46115   0.16654   0.41087   0.00000  Uiso   1.00
H116   H     0.47433   0.16233   0.08468   0.00000  Uiso   1.00
C117   C     0.53516   0.31173   0.26760   0.00000  Uiso   1.00
H118   H     0.56451   0.29389   0.27314   0.00000  Uiso   1.00
C119   C     0.53391   0.02117   0.27599   0.00000  Uiso   1.00
C120   C     0.49430   0.04355   0.27090   0.00000  Uiso   1.00
C121   C     0.45332   0.02200   0.26904   0.00000  Uiso   1.00
C122   C     0.45952   0.31472   0.24753   0.00000  Uiso   1.00
C123   C     0.49922   0.29197   0.25169   0.00000  Uiso   1.00
C124   C     0.65041   0.13738   0.22001   0.00000  Uiso   1.00
C125   C     0.36559   0.13839   0.21866   0.00000  Uiso   1.00
N126   N     0.38093   0.16668   0.25001   0.00000  Uiso   1.00
C127   C     0.34866   0.19425   0.28171   0.00000  Uiso   1.00
C128   C     0.63483   0.19546   0.27946   0.00000  Uiso   1.00
H129   H     0.61002   0.21803   0.30330   0.00000  Uiso   1.00
N130   N     0.61906   0.16665   0.25000   0.00000  Uiso   1.00
C131   C     0.60114   0.23760   0.11062   0.00000  Uiso   1.00
H132   H     0.59423   0.23099   0.15201   0.00000  Uiso   1.00
O133   O     0.63440   0.25996   0.09108   0.00000  Uiso   1.00
C134   C     0.57219   0.04104   0.29385   0.00000  Uiso   1.00
H135   H     0.56613   0.07079   0.31543   0.00000  Uiso   1.00
O136   O     0.61085   0.02411   0.28518   0.00000  Uiso   1.00
C137   C     0.40515   0.03962   0.29591   0.00000  Uiso   1.00
H138   H     0.39875   0.07265   0.30432   0.00000  Uiso   1.00
O139   O     0.37167   0.01692   0.31259   0.00000  Uiso   1.00
C140   C     0.43078   0.29984   0.21232   0.00000  Uiso   1.00
O141   O     0.44825   0.27520   0.17547   0.00000  Uiso   1.00
O142   O     0.38532   0.31571   0.21864   0.00000  Uiso   1.00
H143   H     0.36994   0.30340   0.19198   0.00000  Uiso   1.00
C144   C     0.63389   0.10477   0.18858   0.00000  Uiso   1.00
H145   H     0.60803   0.11166   0.16852   0.00000  Uiso   1.00
O146   O     0.64909   0.06898   0.18496   0.00000  Uiso   1.00
C147   C     0.39950   0.11047   0.18048   0.00000  Uiso   1.00
O148   O     0.41432   0.12020   0.13445   0.00000  Uiso   1.00
O149   O     0.40935   0.07074   0.19482   0.00000  Uiso   1.00
H150   H     0.43173   0.05413   0.16449   0.00000  Uiso   1.00
C151   C     0.36135   0.22066   0.32162   0.00000  Uiso   1.00
O152   O     0.36106   0.20621   0.36404   0.00000  Uiso   1.00
O153   O     0.37119   0.26256   0.31239   0.00000  Uiso   1.00
H154   H     0.38039   0.27688   0.34272   0.00000  Uiso   1.00
C155   C     0.59093   0.25800   0.41125   0.00000  Uiso   1.00
O156   O     0.62678   0.26715   0.42282   0.00000  Uiso   1.00
O157   O     0.58134   0.27609   0.36786   0.00000  Uiso   1.00
H158   H     0.60718   0.29544   0.34894   0.00000  Uiso   1.00
C159   C     0.39365   0.11929   0.41251   0.00000  Uiso   1.00
O160   O     0.41522   0.08773   0.39156   0.00000  Uiso   1.00
O161   O     0.34709   0.12606   0.41194   0.00000  Uiso   1.00
H162   H     0.33525   0.10282   0.39238   0.00000  Uiso   1.00
C163   C     0.40074   0.20622   0.07243   0.00000  Uiso   1.00
O164   O     0.37084   0.18876   0.10669   0.00000  Uiso   1.00
O165   O     0.41331   0.24701   0.08179   0.00000  Uiso   1.00
H166   H     0.39329   0.25916   0.11695   0.00000  Uiso   1.00
C167   C     0.34868   0.14796   0.02171   0.00000  Uiso   1.00
H168   H     0.65660   0.17059   0.04508   0.00000  Uiso   1.00
O169   O     0.33713   0.11156   0.02027   0.00000  Uiso   1.00
C170   C     0.57248   0.16340   0.39261   0.00000  Uiso   1.00
H171   H     0.60971   0.17009   0.37929   0.00000  Uiso   1.00
O172   O     0.56043   0.12711   0.39141   0.00000  Uiso   1.00
O173   O     0.79512   0.22775   0.25000   0.00000  Uiso   1.00
O174   O     0.87157   0.22774   0.25000   0.00000  Uiso   1.00
C175   C     0.83358   0.24700   0.24851   0.00000  Uiso   1.00
O176   O     0.77613   0.16666   0.32681   0.00000  Uiso   1.00
O177   O     0.85258   0.16665   0.32681   0.00000  Uiso   1.00
C178   C     0.80828   0.16608   0.35206   0.00000  Uiso   1.00
Zn179  Zn    0.78229   0.16667   0.25000   0.00000  Uiso   1.00
Zn180  Zn    0.88438   0.16666   0.25000   0.00000  Uiso   1.00
O181   O     0.79510   0.10559   0.24999   0.00000  Uiso   1.00
O182   O     0.87154   0.10558   0.24999   0.00000  Uiso   1.00
O183   O     0.81409   0.16668   0.17319   0.00000  Uiso   1.00
O184   O     0.89053   0.16667   0.17319   0.00000  Uiso   1.00
C185   C     0.83124   0.08741   0.25827   0.00000  Uiso   1.00
C186   C     0.85807   0.17274   0.14981   0.00000  Uiso   1.00
C187   C     0.90937   0.23709   0.02801   0.00000  Uiso   1.00
H188   H     0.93820   0.25767   0.01239   0.00000  Uiso   1.00
C189   C     0.86847   0.19139   0.09762   0.00000  Uiso   1.00
C190   C     0.75058   0.14987   0.43920   0.00000  Uiso   1.00
C191   C     0.73050   0.16101   0.49334   0.00000  Uiso   1.00
C192   C     0.75694   0.18507   0.02016   0.00000  Uiso   1.00
C193   C     0.80518   0.19242   0.49456   0.00000  Uiso   1.00
C194   C     0.82322   0.18612   0.43941   0.00000  Uiso   1.00
C195   C     0.83808   0.20262   0.02264   0.00000  Uiso   1.00
C196   C     0.87909   0.22462   0.49790   0.00000  Uiso   1.00
C197   C     0.88997   0.22837   0.44266   0.00000  Uiso   1.00
C198   C     0.87098   0.19748   0.41609   0.00000  Uiso   1.00
C199   C     0.83510   0.18437   0.07028   0.00000  Uiso   1.00
C200   C     0.90399   0.22125   0.07861   0.00000  Uiso   1.00
C201   C     0.79449   0.16654   0.41087   0.00000  Uiso   1.00
H202   H     0.80766   0.16233   0.08468   0.00000  Uiso   1.00
C203   C     0.86849   0.31173   0.26760   0.00000  Uiso   1.00
H204   H     0.89784   0.29389   0.27314   0.00000  Uiso   1.00
C205   C     0.86724   0.02117   0.27599   0.00000  Uiso   1.00
C206   C     0.82763   0.04355   0.27090   0.00000  Uiso   1.00
C207   C     0.78665   0.02200   0.26904   0.00000  Uiso   1.00
C208   C     0.79286   0.31472   0.24753   0.00000  Uiso   1.00
C209   C     0.83256   0.29197   0.25169   0.00000  Uiso   1.00
C210   C     0.98375   0.13738   0.22001   0.00000  Uiso   1.00
C211   C     0.69892   0.13839   0.21866   0.00000  Uiso   1.00
N212   N     0.71426   0.16668   0.25001   0.00000  Uiso   1.00
C213   C     0.68200   0.19425   0.28171   0.00000  Uiso   1.00
C214   C     0.96816   0.19546   0.27946   0.00000  Uiso   1.00
H215   H     0.94335   0.21803   0.30330   0.00000  Uiso   1.00
N216   N     0.95239   0.16665   0.25000   0.00000  Uiso   1.00
C217   C     0.93448   0.23760   0.11062   0.00000  Uiso   1.00
H218   H     0.92756   0.23099   0.15201   0.00000  Uiso   1.00
O219   O     0.96773   0.25996   0.09108   0.00000  Uiso   1.00
C220   C     0.90552   0.04104   0.29385   0.00000  Uiso   1.00
H221   H     0.89947   0.07079   0.31543   0.00000  Uiso   1.00
O222   O     0.94418   0.02411   0.28518   0.00000  Uiso   1.00
C223   C     0.73848   0.03962   0.29591   0.00000  Uiso   1.00
H224   H     0.73209   0.07265   0.30432   0.00000  Uiso   1.00
O225   O     0.70500   0.01692   0.31259   0.00000  Uiso   1.00
C226   C     0.76412   0.29984   0.21232   0.00000  Uiso   1.00
O227   O     0.78158   0.27520   0.17547   0.00000  Uiso   1.00
O228   O     0.71865   0.31571   0.21864   0.00000  Uiso   1.00
H229   H     0.70328   0.30340   0.19198   0.00000  Uiso   1.00
C230   C     0.96723   0.10477   0.18858   0.00000  Uiso   1.00
H231   H     0.94136   0.11166   0.16852   0.00000  Uiso   1.00
O232   O     0.98242   0.06898   0.18496   0.00000  Uiso   1.00
C233   C     0.73283   0.11047   0.18048   0.00000  Uiso   1.00
O234   O     0.74765   0.12020   0.13445   0.00000  Uiso   1.00
O235   O     0.74269   0.07074   0.19482   0.00000  Uiso   1.00
H236   H     0.76506   0.05413   0.16449   0.00000  Uiso   1.00
C237   C     0.69468   0.22066   0.32162   0.00000  Uiso   1.00
O238   O     0.69440   0.20621   0.36404   0.00000  Uiso   1.00
O239   O     0.70452   0.26256   0.31239   0.00000  Uiso   1.00
H240   H     0.71372   0.27688   0.34272   0.00000  Uiso   1.00
C241   C     0.92426   0.25800   0.41125   0.00000  Uiso   1.00
O242   O     0.96011   0.26715   0.42282   0.00000  Uiso   1.00
O243   O     0.91468   0.27609   0.36786   0.00000  Uiso   1.00
H244   H     0.94051   0.29544   0.34894   0.00000  Uiso   1.00
C245   C     0.72698   0.11929   0.41251   0.00000  Uiso   1.00
O246   O     0.74856   0.08773   0.39156   0.00000  Uiso   1.00
O247   O     0.68042   0.12606   0.41194   0.00000  Uiso   1.00
H248   H     0.66858   0.10282   0.39238   0.00000  Uiso   1.00
C249   C     0.73407   0.20622   0.07243   0.00000  Uiso   1.00
O250   O     0.70417   0.18876   0.10669   0.00000  Uiso   1.00
O251   O     0.74664   0.24701   0.08179   0.00000  Uiso   1.00
H252   H     0.72663   0.25916   0.11695   0.00000  Uiso   1.00
C253   C     0.68201   0.14796   0.02171   0.00000  Uiso   1.00
H254   H     0.98994   0.17059   0.04508   0.00000  Uiso   1.00
O255   O     0.67046   0.11156   0.02027   0.00000  Uiso   1.00
C256   C     0.90581   0.16340   0.39261   0.00000  Uiso   1.00
H257   H     0.94304   0.17009   0.37929   0.00000  Uiso   1.00
O258   O     0.89377   0.12711   0.39141   0.00000  Uiso   1.00
O259   O     0.12846   0.56108   0.25000   0.00000  Uiso   1.00
O260   O     0.20490   0.56107   0.25000   0.00000  Uiso   1.00
C261   C     0.16691   0.58033   0.24851   0.00000  Uiso   1.00
O262   O     0.10947   0.50000   0.32681   0.00000  Uiso   1.00
O263   O     0.18591   0.49999   0.32681   0.00000  Uiso   1.00
C264   C     0.14162   0.49941   0.35206   0.00000  Uiso   1.00
Zn265  Zn    0.11562   0.50001   0.25000   0.00000  Uiso   1.00
Zn266  Zn    0.21771   0.49999   0.25000   0.00000  Uiso   1.00
O267   O     0.12843   0.43893   0.24999   0.00000  Uiso   1.00
O268   O     0.20488   0.43892   0.24999   0.00000  Uiso   1.00
O269   O     0.14742   0.50001   0.17319   0.00000  Uiso   1.00
O270   O     0.22387   0.50000   0.17319   0.00000  Uiso   1.00
C271   C     0.16458   0.42074   0.25827   0.00000  Uiso   1.00
C272   C     0.19140   0.50607   0.14981   0.00000  Uiso   1.00
C273   C     0.24271   0.57042   0.02801   0.00000  Uiso   1.00
H274   H     0.27154   0.59100   0.01239   0.00000  Uiso   1.00
C275   C     0.20181   0.52472   0.09762   0.00000  Uiso   1.00
C276   C     0.08392   0.48320   0.43920   0.00000  Uiso   1.00
C277   C     0.06383   0.49435   0.49334   0.00000  Uiso   1.00
C278   C     0.09027   0.51840   0.02016   0.00000  Uiso   1.00
C279   C     0.13851   0.52575   0.49456   0.00000  Uiso   1.00
C280   C     0.15655   0.51946   0.43941   0.00000  Uiso   1.00
C281   C     0.17142   0.53595   0.02264   0.00000  Uiso   1.00
C282   C     0.21242   0.55795   0.49790   0.00000  Uiso   1.00
C283   C     0.22330   0.56170   0.44266   0.00000  Uiso   1.00
C284   C     0.20431   0.53081   0.41609   0.00000  Uiso   1.00
C285   C     0.16843   0.51770   0.07028   0.00000  Uiso   1.00
C286   C     0.23732   0.55458   0.07861   0.00000  Uiso   1.00
C287   C     0.12782   0.49987   0.41087   0.00000  Uiso   1.00
H288   H     0.14099   0.49566   0.08468   0.00000  Uiso   1.00
C289   C     0.20182   0.64507   0.26760   0.00000  Uiso   1.00
H290   H     0.23117   0.62722   0.27314   0.00000  Uiso   1.00
C291   C     0.20057   0.35451   0.27599   0.00000  Uiso   1.00
C292   C     0.16096   0.37688   0.27090   0.00000  Uiso   1.00
C293   C     0.11998   0.35533   0.26904   0.00000  Uiso   1.00
C294   C     0.12619   0.64805   0.24753   0.00000  Uiso   1.00
C295   C     0.16589   0.62530   0.25169   0.00000  Uiso   1.00
C296   C     0.31708   0.47071   0.22001   0.00000  Uiso   1.00
C297   C     0.03225   0.47173   0.21866   0.00000  Uiso   1.00
N298   N     0.04760   0.50001   0.25001   0.00000  Uiso   1.00
C299   C     0.01533   0.52758   0.28171   0.00000  Uiso   1.00
C300   C     0.30150   0.52879   0.27946   0.00000  Uiso   1.00
H301   H     0.27669   0.55136   0.30330   0.00000  Uiso   1.00
N302   N     0.28573   0.49998   0.25000   0.00000  Uiso   1.00
C303   C     0.26781   0.57093   0.11062   0.00000  Uiso   1.00
H304   H     0.26089   0.56432   0.15201   0.00000  Uiso   1.00
O305   O     0.30106   0.59330   0.09108   0.00000  Uiso   1.00
C306   C     0.23885   0.37437   0.29385   0.00000  Uiso   1.00
H307   H     0.23280   0.40412   0.31543   0.00000  Uiso   1.00
O308   O     0.27751   0.35744   0.28518   0.00000  Uiso   1.00
C309   C     0.07181   0.37295   0.29591   0.00000  Uiso   1.00
H310   H     0.06542   0.40598   0.30432   0.00000  Uiso   1.00
O311   O     0.03834   0.35026   0.31259   0.00000  Uiso   1.00
C312   C     0.09745   0.63318   0.21232   0.00000  Uiso   1.00
O313   O     0.11491   0.60854   0.17547   0.00000  Uiso   1.00
O314   O     0.05199   0.64904   0.21864   0.00000  Uiso   1.00
H315   H     0.03661   0.63674   0.19198   0.00000  Uiso   1.00
C316   C     0.30056   0.43810   0.18858   0.00000  Uiso   1.00
H317   H     0.27469   0.44499   0.16852   0.00000  Uiso   1.00
O318   O     0.31576   0.40231   0.18496   0.00000  Uiso   1.00
C319   C     0.06617   0.44380   0.18048   0.00000  Uiso   1.00
O320   O     0.08099   0.45353   0.13445   0.00000  Uiso   1.00
O321   O     0.07602   0.40407   0.19482   0.00000  Uiso   1.00
H322   H     0.09839   0.38746   0.16449   0.00000  Uiso   1.00
C323   C     0.02802   0.55399   0.32162   0.00000  Uiso   1.00
O324   O     0.02773   0.53954   0.36404   0.00000  Uiso   1.00
O325   O     0.03785   0.59590   0.31239   0.00000  Uiso   1.00
H326   H     0.04705   0.61021   0.34272   0.00000  Uiso   1.00
C327   C     0.25759   0.59133   0.41125   0.00000  Uiso   1.00
O328   O     0.29344   0.60048   0.42282   0.00000  Uiso   1.00
O329   O     0.24801   0.60943   0.36786   0.00000  Uiso   1.00
H330   H     0.27384   0.62877   0.34894   0.00000  Uiso   1.00
C331   C     0.06031   0.45262   0.41251   0.00000  Uiso   1.00
O332   O     0.08189   0.42106   0.39156   0.00000  Uiso   1.00
O333   O     0.01375   0.45940   0.41194   0.00000  Uiso   1.00
H334   H     0.00191   0.43615   0.39238   0.00000  Uiso   1.00
C335   C     0.06741   0.53955   0.07243   0.00000  Uiso   1.00
O336   O     0.03750   0.52210   0.10669   0.00000  Uiso   1.00
O337   O     0.07997   0.58034   0.08179   0.00000  Uiso   1.00
H338   H     0.05996   0.59249   0.11695   0.00000  Uiso   1.00
C339   C     0.01534   0.48129   0.02171   0.00000  Uiso   1.00
H340   H     0.32327   0.50392   0.04508   0.00000  Uiso   1.00
O341   O     0.00380   0.44490   0.02027   0.00000  Uiso   1.00
C342   C     0.23914   0.49673   0.39261   0.00000  Uiso   1.00
H343   H     0.27637   0.50342   0.37929   0.00000  Uiso   1.00
O344   O     0.22710   0.46044   0.39141   0.00000  Uiso   1.00
O345   O     0.46179   0.56108   0.25000   0.00000  Uiso   1.00
O346   O     0.53823   0.56107   0.25000   0.00000  Uiso   1.00
C347   C     0.50024   0.58033   0.24851   0.00000  Uiso   1.00
O348   O     0.44280   0.50000   0.32681   0.00000  Uiso   1.00
O349   O     0.51924   0.49999   0.32681   0.00000  Uiso   1.00
C350   C     0.47495   0.49941   0.35206   0.00000  Uiso   1.00
Zn351  Zn    0.44896   0.50001   0.25000   0.00000  Uiso   1.00
Zn352  Zn    0.55104   0.49999   0.25000   0.00000  Uiso   1.00
O353   O     0.46177   0.43893   0.24999   0.00000  Uiso   1.00
O354   O     0.53821   0.43892   0.24999   0.00000  Uiso   1.00
O355   O     0.48076   0.50001   0.17319   0.00000  Uiso   1.00
O356   O     0.55720   0.50000   0.17319   0.00000  Uiso   1.00
C357   C     0.49791   0.42074   0.25827   0.00000  Uiso   1.00
C358   C     0.52473   0.50607   0.14981   0.00000  Uiso   1.00
C359   C     0.57604   0.57042   0.02801   0.00000  Uiso   1.00
H360   H     0.60487   0.59100   0.01239   0.00000  Uiso   1.00
C361   C     0.53514   0.52472   0.09762   0.00000  Uiso   1.00
C362   C     0.41725   0.48320   0.43920   0.00000  Uiso   1.00
C363   C     0.39717   0.49435   0.49334   0.00000  Uiso   1.00
C364   C     0.42361   0.51840   0.02016   0.00000  Uiso   1.00
C365   C     0.47184   0.52575   0.49456   0.00000  Uiso   1.00
C366   C     0.48989   0.51946   0.43941   0.00000  Uiso   1.00
C367   C     0.50475   0.53595   0.02264   0.00000  Uiso   1.00
C368   C     0.54575   0.55795   0.49790   0.00000  Uiso   1.00
C369   C     0.55663   0.56170   0.44266   0.00000  Uiso   1.00
C370   C     0.53764   0.53081   0.41609   0.00000  Uiso   1.00
C371   C     0.50176   0.51770   0.07028   0.00000  Uiso   1.00
C372   C     0.57066   0.55458   0.07861   0.00000  Uiso   1.00
C373   C     0.46115   0.49987   0.41087   0.00000  Uiso   1.00
H374   H     0.47433   0.49566   0.08468   0.00000  Uiso   1.00
C375   C     0.53516   0.64507   0.26760   0.00000  Uiso   1.00
H376   H     0.56451   0.62722   0.27314   0.00000  Uiso   1.00
C377   C     0.53391   0.35451   0.27599   0.00000  Uiso   1.00
C378   C     0.49430   0.37688   0.27090   0.00000  Uiso   1.00
C379   C     0.45332   0.35533   0.26904   0.00000  Uiso   1.00
C380   C     0.45952   0.64805   0.24753   0.00000  Uiso   1.00
C381   C     0.49922   0.62530   0.25169   0.00000  Uiso   1.00
C382   C     0.65041   0.47071   0.22001   0.00000  Uiso   1.00
C383   C     0.36559   0.47173   0.21866   0.00000  Uiso   1.00
N384   N     0.38093   0.50001   0.25001   0.00000  Uiso   1.00
C385   C     0.34866   0.52758   0.28171   0.00000  Uiso   1.00
C386   C     0.63483   0.52879   0.27946   0.00000  Uiso   1.00
H387   H     0.61002   0.55136   0.30330   0.00000  Uiso   1.00
N388   N     0.61906   0.49998   0.25000   0.00000  Uiso   1.00
C389   C     0.60114   0.57093   0.11062   0.00000  Uiso   1.00
H390   H     0.59423   0.56432   0.15201   0.00000  Uiso   1.00
O391   O     0.63440   0.59330   0.09108   0.00000  Uiso   1.00
C392   C     0.57219   0.37437   0.29385   0.00000  Uiso   1.00
H393   H     0.56613   0.40412   0.31543   0.00000  Uiso   1.00
O394   O     0.61085   0.35744   0.28518   0.00000  Uiso   1.00
C395   C     0.40515   0.37295   0.29591   0.00000  Uiso   1.00
H396   H     0.39875   0.40598   0.30432   0.00000  Uiso   1.00
O397   O     0.37167   0.35026   0.31259   0.00000  Uiso   1.00
C398   C     0.43078   0.63318   0.21232   0.00000  Uiso   1.00
O399   O     0.44825   0.60854   0.17547   0.00000  Uiso   1.00
O400   O     0.38532   0.64904   0.21864   0.00000  Uiso   1.00
H401   H     0.36994   0.63674   0.19198   0.00000  Uiso   1.00
C402   C     0.63389   0.43810   0.18858   0.00000  Uiso   1.00
H403   H     0.60803   0.44499   0.16852   0.00000  Uiso   1.00
O404   O     0.64909   0.40231   0.18496   0.00000  Uiso   1.00
C405   C     0.39950   0.44380   0.18048   0.00000  Uiso   1.00
O406   O     0.41432   0.45353   0.13445   0.00000  Uiso   1.00
O407   O     0.40935   0.40407   0.19482   0.00000  Uiso   1.00
H408   H     0.43173   0.38746   0.16449   0.00000  Uiso   1.00
C409   C     0.36135   0.55399   0.32162   0.00000  Uiso   1.00
O410   O     0.36106   0.53954   0.36404   0.00000  Uiso   1.00
O411   O     0.37119   0.59590   0.31239   0.00000  Uiso   1.00
H412   H     0.38039   0.61021   0.34272   0.00000  Uiso   1.00
C413   C     0.59093   0.59133   0.41125   0.00000  Uiso   1.00
O414   O     0.62678   0.60048   0.42282   0.00000  Uiso   1.00
O415   O     0.58134   0.60943   0.36786   0.00000  Uiso   1.00
H416   H     0.60718   0.62877   0.34894   0.00000  Uiso   1.00
C417   C     0.39365   0.45262   0.41251   0.00000  Uiso   1.00
O418   O     0.41522   0.42106   0.39156   0.00000  Uiso   1.00
O419   O     0.34709   0.45940   0.41194   0.00000  Uiso   1.00
H420   H     0.33525   0.43615   0.39238   0.00000  Uiso   1.00
C421   C     0.40074   0.53955   0.07243   0.00000  Uiso   1.00
O422   O     0.37084   0.52210   0.10669   0.00000  Uiso   1.00
O423   O     0.41331   0.58034   0.08179   0.00000  Uiso   1.00
H424   H     0.39329   0.59249   0.11695   0.00000  Uiso   1.00
C425   C     0.34868   0.48129   0.02171   0.00000  Uiso   1.00
H426   H     0.65660   0.50392   0.04508   0.00000  Uiso   1.00
O427   O     0.33713   0.44490   0.02027   0.00000  Uiso   1.00
C428   C     0.57248   0.49673   0.39261   0.00000  Uiso   1.00
H429   H     0.60971   0.50342   0.37929   0.00000  Uiso   1.00
O430   O     0.56043   0.46044   0.39141   0.00000  Uiso   1.00
O431   O     0.79512   0.56108   0.25000   0.00000  Uiso   1.00
O432   O     0.87157   0.56107   0.25000   0.00000  Uiso   1.00
C433   C     0.83358   0.58033   0.24851   0.00000  Uiso   1.00
O434   O     0.77613   0.50000   0.32681   0.00000  Uiso   1.00
O435   O     0.85258   0.49999   0.32681   0.00000  Uiso   1.00
C436   C     0.80828   0.49941   0.35206   0.00000  Uiso   1.00
Zn437  Zn    0.78229   0.50001   0.25000   0.00000  Uiso   1.00
Zn438  Zn    0.88438   0.49999   0.25000   0.00000  Uiso   1.00
O439   O     0.79510   0.43893   0.24999   0.00000  Uiso   1.00
O440   O     0.87154   0.43892   0.24999   0.00000  Uiso   1.00
O441   O     0.81409   0.50001   0.17319   0.00000  Uiso   1.00
O442   O     0.89053   0.50000   0.17319   0.00000  Uiso   1.00
C443   C     0.83124   0.42074   0.25827   0.00000  Uiso   1.00
C444   C     0.85807   0.50607   0.14981   0.00000  Uiso   1.00
C445   C     0.90937   0.57042   0.02801   0.00000  Uiso   1.00
H446   H     0.93820   0.59100   0.01239   0.00000  Uiso   1.00
C447   C     0.86847   0.52472   0.09762   0.00000  Uiso   1.00
C448   C     0.75058   0.48320   0.43920   0.00000  Uiso   1.00
C449   C     0.73050   0.49435   0.49334   0.00000  Uiso   1.00
C450   C     0.75694   0.51840   0.02016   0.00000  Uiso   1.00
C451   C     0.80518   0.52575   0.49456   0.00000  Uiso   1.00
C452   C     0.82322   0.51946   0.43941   0.00000  Uiso   1.00
C453   C     0.83808   0.53595   0.02264   0.00000  Uiso   1.00
C454   C     0.87909   0.55795   0.49790   0.00000  Uiso   1.00
C455   C     0.88997   0.56170   0.44266   0.00000  Uiso   1.00
C456   C     0.87098   0.53081   0.41609   0.00000  Uiso   1.00
C457   C     0.83510   0.51770   0.07028   0.00000  Uiso   1.00
C458   C     0.90399   0.55458   0.07861   0.00000  Uiso   1.00
C459   C     0.79449   0.49987   0.41087   0.00000  Uiso   1.00
H460   H     0.80766   0.49566   0.08468   0.00000  Uiso   1.00
C461   C     0.86849   0.64507   0.26760   0.00000  Uiso   1.00
H462   H     0.89784   0.62722   0.27314   0.00000  Uiso   1.00
C463   C     0.86724   0.35451   0.27599   0.00000  Uiso   1.00
C464   C     0.82763   0.37688   0.27090   0.00000  Uiso   1.00
C465   C     0.78665   0.35533   0.26904   0.00000  Uiso   1.00
C466   C     0.79286   0.64805   0.24753   0.00000  Uiso   1.00
C467   C     0.83256   0.62530   0.25169   0.00000  Uiso   1.00
C468   C     0.98375   0.47071   0.22001   0.00000  Uiso   1.00
C469   C     0.69892   0.47173   0.21866   0.00000  Uiso   1.00
N470   N     0.71426   0.50001   0.25001   0.00000  Uiso   1.00
C471   C     0.68200   0.52758   0.28171   0.00000  Uiso   1.00
C472   C     0.96816   0.52879   0.27946   0.00000  Uiso   1.00
H473   H     0.94335   0.55136   0.30330   0.00000  Uiso   1.00
N474   N     0.95239   0.49998   0.25000   0.00000  Uiso   1.00
C475   C     0.93448   0.57093   0.11062   0.00000  Uiso   1.00
H476   H     0.92756   0.56432   0.15201   0.00000  Uiso   1.00
O477   O     0.96773   0.59330   0.09108   0.00000  Uiso   1.00
C478   C     0.90552   0.37437   0.29385   0.00000  Uiso   1.00
H479   H     0.89947   0.40412   0.31543   0.00000  Uiso   1.00
O480   O     0.94418   0.35744   0.28518   0.00000  Uiso   1.00
C481   C     0.73848   0.37295   0.29591   0.00000  Uiso   1.00
H482   H     0.73209   0.40598   0.30432   0.00000  Uiso   1.00
O483   O     0.70500   0.35026   0.31259   0.00000  Uiso   1.00
C484   C     0.76412   0.63318   0.21232   0.00000  Uiso   1.00
O485   O     0.78158   0.60854   0.17547   0.00000  Uiso   1.00
O486   O     0.71865   0.64904   0.21864   0.00000  Uiso   1.00
H487   H     0.70328   0.63674   0.19198   0.00000  Uiso   1.00
C488   C     0.96723   0.43810   0.18858   0.00000  Uiso   1.00
H489   H     0.94136   0.44499   0.16852   0.00000  Uiso   1.00
O490   O     0.98242   0.40231   0.18496   0.00000  Uiso   1.00
C491   C     0.73283   0.44380   0.18048   0.00000  Uiso   1.00
O492   O     0.74765   0.45353   0.13445   0.00000  Uiso   1.00
O493   O     0.74269   0.40407   0.19482   0.00000  Uiso   1.00
H494   H     0.76506   0.38746   0.16449   0.00000  Uiso   1.00
C495   C     0.69468   0.55399   0.32162   0.00000  Uiso   1.00
O496   O     0.69440   0.53954   0.36404   0.00000  Uiso   1.00
O497   O     0.70452   0.59590   0.31239   0.00000  Uiso   1.00
H498   H     0.71372   0.61021   0.34272   0.00000  Uiso   1.00
C499   C     0.92426   0.59133   0.41125   0.00000  Uiso   1.00
O500   O     0.96011   0.60048   0.42282   0.00000  Uiso   1.00
O501   O     0.91468   0.60943   0.36786   0.00000  Uiso   1.00
H502   H     0.94051   0.62877   0.34894   0.00000  Uiso   1.00
C503   C     0.72698   0.45262   0.41251   0.00000  Uiso   1.00
O504   O     0.74856   0.42106   0.39156   0.00000  Uiso   1.00
O505   O     0.68042   0.45940   0.41194   0.00000  Uiso   1.00
H506   H     0.66858   0.43615   0.39238   0.00000  Uiso   1.00
C507   C     0.73407   0.53955   0.07243   0.00000  Uiso   1.00
O508   O     0.70417   0.52210   0.10669   0.00000  Uiso   1.00
O509   O     0.74664   0.58034   0.08179   0.00000  Uiso   1.00
H510   H     0.72663   0.59249   0.11695   0.00000  Uiso   1.00
C511   C     0.68201   0.48129   0.02171   0.00000  Uiso   1.00
H512   H     0.98994   0.50392   0.04508   0.00000  Uiso   1.00
O513   O     0.67046   0.44490   0.02027   0.00000  Uiso   1.00
C514   C     0.90581   0.49673   0.39261   0.00000  Uiso   1.00
H515   H     0.94304   0.50342   0.37929   0.00000  Uiso   1.00
O516   O     0.89377   0.46044   0.39141   0.00000  Uiso   1.00
O517   O     0.12846   0.89442   0.25000   0.00000  Uiso   1.00
O518   O     0.20490   0.89441   0.25000   0.00000  Uiso   1.00
C519   C     0.16691   0.91366   0.24851   0.00000  Uiso   1.00
O520   O     0.10947   0.83333   0.32681   0.00000  Uiso   1.00
O521   O     0.18591   0.83332   0.32681   0.00000  Uiso   1.00
C522   C     0.14162   0.83274   0.35206   0.00000  Uiso   1.00
Zn523  Zn    0.11562   0.83334   0.25000   0.00000  Uiso   1.00
Zn524  Zn    0.21771   0.83333   0.25000   0.00000  Uiso   1.00
O525   O     0.12843   0.77226   0.24999   0.00000  Uiso   1.00
O526   O     0.20488   0.77225   0.24999   0.00000  Uiso   1.00
O527   O     0.14742   0.83335   0.17319   0.00000  Uiso   1.00
O528   O     0.22387   0.83334   0.17319   0.00000  Uiso   1.00
C529   C     0.16458   0.75407   0.25827   0.00000  Uiso   1.00
C530   C     0.19140   0.83941   0.14981   0.00000  Uiso   1.00
C531   C     0.24271   0.90375   0.02801   0.00000  Uiso   1.00
H532   H     0.27154   0.92433   0.01239   0.00000  Uiso   1.00
C533   C     0.20181   0.85806   0.09762   0.00000  Uiso   1.00
C534   C     0.08392   0.81653   0.43920   0.00000  Uiso   1.00
C535   C     0.06383   0.82768   0.49334   0.00000  Uiso   1.00
C536   C     0.09027   0.85173   0.02016   0.00000  Uiso   1.00
C537   C     0.13851   0.85909   0.49456   0.00000  Uiso   1.00
C538   C     0.15655   0.85279   0.43941   0.00000  Uiso   1.00
C539   C     0.17142   0.86929   0.02264   0.00000  Uiso   1.00
C540   C     0.21242   0.89129   0.49790   0.00000  Uiso   1.00
C541   C     0.22330   0.89504   0.44266   0.00000  Uiso   1.00
C542   C     0.20431   0.86414   0.41609   0.00000  Uiso   1.00
C543   C     0.16843   0.85104   0.07028   0.00000  Uiso   1.00
C544   C     0.23732   0.88791   0.07861   0.00000  Uiso   1.00
C545   C     0.12782   0.83320   0.41087   0.00000  Uiso   1.00
H546   H     0.14099   0.82899   0.08468   0.00000  Uiso   1.00
C547   C     0.20182   0.97840   0.26760   0.00000  Uiso   1.00
H548   H     0.23117   0.96056   0.27314   0.00000  Uiso   1.00
C549   C     0.20057   0.68784   0.27599   0.00000  Uiso   1.00
C550   C     0.16096   0.71022   0.27090   0.00000  Uiso   1.00
C551   C     0.11998   0.68867   0.26904   0.00000  Uiso   1.00
C552   C     0.12619   0.98138   0.24753   0.00000  Uiso   1.00
C553   C     0.16589   0.95864   0.25169   0.00000  Uiso   1.00
C554   C     0.31708   0.80404   0.22001   0.00000  Uiso   1.00
C555   C     0.03225   0.80506   0.21866   0.00000  Uiso   1.00
N556   N     0.04760   0.83334   0.25001   0.00000  Uiso   1.00
C557   C     0.01533   0.86092   0.28171   0.00000  Uiso   1.00
C558   C     0.30150   0.86212   0.27946   0.00000  Uiso   1.00
H559   H     0.27669   0.88470   0.30330   0.00000  Uiso   1.00
N560   N     0.28573   0.83331   0.25000   0.00000  Uiso   1.00
C561   C     0.26781   0.90427   0.11062   0.00000  Uiso   1.00
H562   H     0.26089   0.89766   0.15201   0.00000  Uiso   1.00
O563   O     0.30106   0.92663   0.09108   0.00000  Uiso   1.00
C564   C     0.23885   0.70770   0.29385   0.00000  Uiso   1.00
H565   H     0.23280   0.73746   0.31543   0.00000  Uiso   1.00
O566   O     0.27751   0.69077   0.28518   0.00000  Uiso   1.00
C567   C     0.07181   0.70629   0.29591   0.00000  Uiso   1.00
H568   H     0.06542   0.73931   0.30432   0.00000  Uiso   1.00
O569   O     0.03834   0.68359   0.31259   0.00000  Uiso   1.00
C570   C     0.09745   0.96651   0.21232   0.00000  Uiso   1.00
O571   O     0.11491   0.94187   0.17547   0.00000  Uiso   1.00
O572   O     0.05199   0.98238   0.21864   0.00000  Uiso   1.00
H573   H     0.03661   0.97007   0.19198   0.00000  Uiso   1.00
C574   C     0.30056   0.77144   0.18858   0.00000  Uiso   1.00
H575   H     0.27469   0.77832   0.16852   0.00000  Uiso   1.00
O576   O     0.31576   0.73564   0.18496   0.00000  Uiso   1.00
C577   C     0.06617   0.77714   0.18048   0.00000  Uiso   1.00
O578   O     0.08099   0.78687   0.13445   0.00000  Uiso   1.00
O579   O     0.07602   0.73741   0.19482   0.00000  Uiso   1.00
H580   H     0.09839   0.72079   0.16449   0.00000  Uiso   1.00
C581   C     0.02802   0.88732   0.32162   0.00000  Uiso   1.00
O582   O     0.02773   0.87287   0.36404   0.00000  Uiso   1.00
O583   O     0.03785   0.92923   0.31239   0.00000  Uiso   1.00
H584   H     0.04705   0.94355   0.34272   0.00000  Uiso   1.00
C585   C     0.25759   0.92466   0.41125   0.00000  Uiso   1.00
O586   O     0.29344   0.93382   0.42282   0.00000  Uiso   1.00
O587   O     0.24801   0.94276   0.36786   0.00000  Uiso   1.00
H588   H     0.27384   0.96211   0.34894   0.00000  Uiso   1.00
C589   C     0.06031   0.78595   0.41251   0.00000  Uiso   1.00
O590   O     0.08189   0.75439   0.39156   0.00000  Uiso   1.00
O591   O     0.01375   0.79273   0.41194   0.00000  Uiso   1.00
H592   H     0.00191   0.76948   0.39238   0.00000  Uiso   1.00
C593   C     0.06741   0.87289   0.07243   0.00000  Uiso   1.00
O594   O     0.03750   0.85543   0.10669   0.00000  Uiso   1.00
O595   O     0.07997   0.91367   0.08179   0.00000  Uiso   1.00
H596   H     0.05996   0.92583   0.11695   0.00000  Uiso   1.00
C597   C     0.01534   0.81462   0.02171   0.00000  Uiso   1.00
H598   H     0.32327   0.83725   0.04508   0.00000  Uiso   1.00
O599   O     0.00380   0.77823   0.02027   0.00000  Uiso   1.00
C600   C     0.23914   0.83006   0.39261   0.00000  Uiso   1.00
H601   H     0.27637   0.83676   0.37929   0.00000  Uiso   1.00
O602   O     0.22710   0.79378   0.39141   0.00000  Uiso   1.00
O603   O     0.46179   0.89442   0.25000   0.00000  Uiso   1.00
O604   O     0.53823   0.89441   0.25000   0.00000  Uiso   1.00
C605   C     0.50024   0.91366   0.24851   0.00000  Uiso   1.00
O606   O     0.44280   0.83333   0.32681   0.00000  Uiso   1.00
O607   O     0.51924   0.83332   0.32681   0.00000  Uiso   1.00
C608   C     0.47495   0.83274   0.35206   0.00000  Uiso   1.00
Zn609  Zn    0.44896   0.83334   0.25000   0.00000  Uiso   1.00
Zn610  Zn    0.55104   0.83333   0.25000   0.00000  Uiso   1.00
O611   O     0.46177   0.77226   0.24999   0.00000  Uiso   1.00
O612   O     0.53821   0.77225   0.24999   0.00000  Uiso   1.00
O613   O     0.48076   0.83335   0.17319   0.00000  Uiso   1.00
O614   O     0.55720   0.83334   0.17319   0.00000  Uiso   1.00
C615   C     0.49791   0.75407   0.25827   0.00000  Uiso   1.00
C616   C     0.52473   0.83941   0.14981   0.00000  Uiso   1.00
C617   C     0.57604   0.90375   0.02801   0.00000  Uiso   1.00
H618   H     0.60487   0.92433   0.01239   0.00000  Uiso   1.00
C619   C     0.53514   0.85806   0.09762   0.00000  Uiso   1.00
C620   C     0.41725   0.81653   0.43920   0.00000  Uiso   1.00
C621   C     0.39717   0.82768   0.49334   0.00000  Uiso   1.00
C622   C     0.42361   0.85173   0.02016   0.00000  Uiso   1.00
C623   C     0.47184   0.85909   0.49456   0.00000  Uiso   1.00
C624   C     0.48989   0.85279   0.43941   0.00000  Uiso   1.00
C625   C     0.50475   0.86929   0.02264   0.00000  Uiso   1.00
C626   C     0.54575   0.89129   0.49790   0.00000  Uiso   1.00
C627   C     0.55663   0.89504   0.44266   0.00000  Uiso   1.00
C628   C     0.53764   0.86414   0.41609   0.00000  Uiso   1.00
C629   C     0.50176   0.85104   0.07028   0.00000  Uiso   1.00
C630   C     0.57066   0.88791   0.07861   0.00000  Uiso   1.00
C631   C     0.46115   0.83320   0.41087   0.00000  Uiso   1.00
H632   H     0.47433   0.82899   0.08468   0.00000  Uiso   1.00
C633   C     0.53516   0.97840   0.26760   0.00000  Uiso   1.00
H634   H     0.56451   0.96056   0.27314   0.00000  Uiso   1.00
C635   C     0.53391   0.68784   0.27599   0.00000  Uiso   1.00
C636   C     0.49430   0.71022   0.27090   0.00000  Uiso   1.00
C637   C     0.45332   0.68867   0.26904   0.00000  Uiso   1.00
C638   C     0.45952   0.98138   0.24753   0.00000  Uiso   1.00
C639   C     0.49922   0.95864   0.25169   0.00000  Uiso   1.00
C640   C     0.65041   0.80404   0.22001   0.00000  Uiso   1.00
C641   C     0.36559   0.80506   0.21866   0.00000  Uiso   1.00
N642   N     0.38093   0.83334   0.25001   0.00000  Uiso   1.00
C643   C     0.34866   0.86092   0.28171   0.00000  Uiso   1.00
C644   C     0.63483   0.86212   0.27946   0.00000  Uiso   1.00
H645   H     0.61002   0.88470   0.30330   0.00000  Uiso   1.00
N646   N     0.61906   0.83331   0.25000   0.00000  Uiso   1.00
C647   C     0.60114   0.90427   0.11062   0.00000  Uiso   1.00
H648   H     0.59423   0.89766   0.15201   0.00000  Uiso   1.00
O649   O     0.63440   0.92663   0.09108   0.00000  Uiso   1.00
C650   C     0.57219   0.70770   0.29385   0.00000  Uiso   1.00
H651   H     0.56613   0.73746   0.31543   0.00000  Uiso   1.00
O652   O     0.61085   0.69077   0.28518   0.00000  Uiso   1.00
C653   C     0.40515   0.70629   0.29591   0.00000  Uiso   1.00
H654   H     0.39875   0.73931   0.30432   0.00000  Uiso   1.00
O655   O     0.37167   0.68359   0.31259   0.00000  Uiso   1.00
C656   C     0.43078   0.96651   0.21232   0.00000  Uiso   1.00
O657   O     0.44825   0.94187   0.17547   0.00000  Uiso   1.00
O658   O     0.38532   0.98238   0.21864   0.00000  Uiso   1.00
H659   H     0.36994   0.97007   0.19198   0.00000  Uiso   1.00
C660   C     0.63389   0.77144   0.18858   0.00000  Uiso   1.00
H661   H     0.60803   0.77832   0.16852   0.00000  Uiso   1.00
O662   O     0.64909   0.73564   0.18496   0.00000  Uiso   1.00
C663   C     0.39950   0.77714   0.18048   0.00000  Uiso   1.00
O664   O     0.41432   0.78687   0.13445   0.00000  Uiso   1.00
O665   O     0.40935   0.73741   0.19482   0.00000  Uiso   1.00
H666   H     0.43173   0.72079   0.16449   0.00000  Uiso   1.00
C667   C     0.36135   0.88732   0.32162   0.00000  Uiso   1.00
O668   O     0.36106   0.87287   0.36404   0.00000  Uiso   1.00
O669   O     0.37119   0.92923   0.31239   0.00000  Uiso   1.00
H670   H     0.38039   0.94355   0.34272   0.00000  Uiso   1.00
C671   C     0.59093   0.92466   0.41125   0.00000  Uiso   1.00
O672   O     0.62678   0.93382   0.42282   0.00000  Uiso   1.00
O673   O     0.58134   0.94276   0.36786   0.00000  Uiso   1.00
H674   H     0.60718   0.96211   0.34894   0.00000  Uiso   1.00
C675   C     0.39365   0.78595   0.41251   0.00000  Uiso   1.00
O676   O     0.41522   0.75439   0.39156   0.00000  Uiso   1.00
O677   O     0.34709   0.79273   0.41194   0.00000  Uiso   1.00
H678   H     0.33525   0.76948   0.39238   0.00000  Uiso   1.00
C679   C     0.40074   0.87289   0.07243   0.00000  Uiso   1.00
O680   O     0.37084   0.85543   0.10669   0.00000  Uiso   1.00
O681   O     0.41331   0.91367   0.08179   0.00000  Uiso   1.00
H682   H     0.39329   0.92583   0.11695   0.00000  Uiso   1.00
C683   C     0.34868   0.81462   0.02171   0.00000  Uiso   1.00
H684   H     0.65660   0.83725   0.04508   0.00000  Uiso   1.00
O685   O     0.33713   0.77823   0.02027   0.00000  Uiso   1.00
C686   C     0.57248   0.83006   0.39261   0.00000  Uiso   1.00
H687   H     0.60971   0.83676   0.37929   0.00000  Uiso   1.00
O688   O     0.56043   0.79378   0.39141   0.00000  Uiso   1.00
O689   O     0.79512   0.89442   0.25000   0.00000  Uiso   1.00
O690   O     0.87157   0.89441   0.25000   0.00000  Uiso   1.00
C691   C     0.83358   0.91366   0.24851   0.00000  Uiso   1.00
O692   O     0.77613   0.83333   0.32681   0.00000  Uiso   1.00
O693   O     0.85258   0.83332   0.32681   0.00000  Uiso   1.00
C694   C     0.80828   0.83274   0.35206   0.00000  Uiso   1.00
Zn695  Zn    0.78229   0.83334   0.25000   0.00000  Uiso   1.00
Zn696  Zn    0.88438   0.83333   0.25000   0.00000  Uiso   1.00
O697   O     0.79510   0.77226   0.24999   0.00000  Uiso   1.00
O698   O     0.87154   0.77225   0.24999   0.00000  Uiso   1.00
O699   O     0.81409   0.83335   0.17319   0.00000  Uiso   1.00
O700   O     0.89053   0.83334   0.17319   0.00000  Uiso   1.00
C701   C     0.83124   0.75407   0.25827   0.00000  Uiso   1.00
C702   C     0.85807   0.83941   0.14981   0.00000  Uiso   1.00
C703   C     0.90937   0.90375   0.02801   0.00000  Uiso   1.00
H704   H     0.93820   0.92433   0.01239   0.00000  Uiso   1.00
C705   C     0.86847   0.85806   0.09762   0.00000  Uiso   1.00
C706   C     0.75058   0.81653   0.43920   0.00000  Uiso   1.00
C707   C     0.73050   0.82768   0.49334   0.00000  Uiso   1.00
C708   C     0.75694   0.85173   0.02016   0.00000  Uiso   1.00
C709   C     0.80518   0.85909   0.49456   0.00000  Uiso   1.00
C710   C     0.82322   0.85279   0.43941   0.00000  Uiso   1.00
C711   C     0.83808   0.86929   0.02264   0.00000  Uiso   1.00
C712   C     0.87909   0.89129   0.49790   0.00000  Uiso   1.00
C713   C     0.88997   0.89504   0.44266   0.00000  Uiso   1.00
C714   C     0.87098   0.86414   0.41609   0.00000  Uiso   1.00
C715   C     0.83510   0.85104   0.07028   0.00000  Uiso   1.00
C716   C     0.90399   0.88791   0.07861   0.00000  Uiso   1.00
C717   C     0.79449   0.83320   0.41087   0.00000  Uiso   1.00
H718   H     0.80766   0.82899   0.08468   0.00000  Uiso   1.00
C719   C     0.86849   0.97840   0.26760   0.00000  Uiso   1.00
H720   H     0.89784   0.96056   0.27314   0.00000  Uiso   1.00
C721   C     0.86724   0.68784   0.27599   0.00000  Uiso   1.00
C722   C     0.82763   0.71022   0.27090   0.00000  Uiso   1.00
C723   C     0.78665   0.68867   0.26904   0.00000  Uiso   1.00
C724   C     0.79286   0.98138   0.24753   0.00000  Uiso   1.00
C725   C     0.83256   0.95864   0.25169   0.00000  Uiso   1.00
C726   C     0.98375   0.80404   0.22001   0.00000  Uiso   1.00
C727   C     0.69892   0.80506   0.21866   0.00000  Uiso   1.00
N728   N     0.71426   0.83334   0.25001   0.00000  Uiso   1.00
C729   C     0.68200   0.86092   0.28171   0.00000  Uiso   1.00
C730   C     0.96816   0.86212   0.27946   0.00000  Uiso   1.00
H731   H     0.94335   0.88470   0.30330   0.00000  Uiso   1.00
N732   N     0.95239   0.83331   0.25000   0.00000  Uiso   1.00
C733   C     0.93448   0.90427   0.11062   0.00000  Uiso   1.00
H734   H     0.92756   0.89766   0.15201   0.00000  Uiso   1.00
O735   O     0.96773   0.92663   0.09108   0.00000  Uiso   1.00
C736   C     0.90552   0.70770   0.29385   0.00000  Uiso   1.00
H737   H     0.89947   0.73746   0.31543   0.00000  Uiso   1.00
O738   O     0.94418   0.69077   0.28518   0.00000  Uiso   1.00
C739   C     0.73848   0.70629   0.29591   0.00000  Uiso   1.00
H740   H     0.73209   0.73931   0.30432   0.00000  Uiso   1.00
O741   O     0.70500   0.68359   0.31259   0.00000  Uiso   1.00
C742   C     0.76412   0.96651   0.21232   0.00000  Uiso   1.00
O743   O     0.78158   0.94187   0.17547   0.00000  Uiso   1.00
O744   O     0.71865   0.98238   0.21864   0.00000  Uiso   1.00
H745   H     0.70328   0.97007   0.19198   0.00000  Uiso   1.00
C746   C     0.96723   0.77144   0.18858   0.00000  Uiso   1.00
H747   H     0.94136   0.77832   0.16852   0.00000  Uiso   1.00
O748   O     0.98242   0.73564   0.18496   0.00000  Uiso   1.00
C749   C     0.73283   0.77714   0.18048   0.00000  Uiso   1.00
O750   O     0.74765   0.78687   0.13445   0.00000  Uiso   1.00
O751   O     0.74269   0.73741   0.19482   0.00000  Uiso   1.00
H752   H     0.76506   0.72079   0.16449   0.00000  Uiso   1.00
C753   C     0.69468   0.88732   0.32162   0.00000  Uiso   1.00
O754   O     0.69440   0.87287   0.36404   0.00000  Uiso   1.00
O755   O     0.70452   0.92923   0.31239   0.00000  Uiso   1.00
H756   H     0.71372   0.94355   0.34272   0.00000  Uiso   1.00
C757   C     0.92426   0.92466   0.41125   0.00000  Uiso   1.00
O758   O     0.96011   0.93382   0.42282   0.00000  Uiso   1.00
O759   O     0.91468   0.94276   0.36786   0.00000  Uiso   1.00
H760   H     0.94051   0.96211   0.34894   0.00000  Uiso   1.00
C761   C     0.72698   0.78595   0.41251   0.00000  Uiso   1.00
O762   O     0.74856   0.75439   0.39156   0.00000  Uiso   1.00
O763   O     0.68042   0.79273   0.41194   0.00000  Uiso   1.00
H764   H     0.66858   0.76948   0.39238   0.00000  Uiso   1.00
C765   C     0.73407   0.87289   0.07243   0.00000  Uiso   1.00
O766   O     0.70417   0.85543   0.10669   0.00000  Uiso   1.00
O767   O     0.74664   0.91367   0.08179   0.00000  Uiso   1.00
H768   H     0.72663   0.92583   0.11695   0.00000  Uiso   1.00
C769   C     0.68201   0.81462   0.02171   0.00000  Uiso   1.00
H770   H     0.98994   0.83725   0.04508   0.00000  Uiso   1.00
O771   O     0.67046   0.77823   0.02027   0.00000  Uiso   1.00
C772   C     0.90581   0.83006   0.39261   0.00000  Uiso   1.00
H773   H     0.94304   0.83676   0.37929   0.00000  Uiso   1.00
O774   O     0.89377   0.79378   0.39141   0.00000  Uiso   1.00
O775   O     0.12846   0.22775   0.75000   0.00000  Uiso   1.00
O776   O     0.20490   0.22774   0.75000   0.00000  Uiso   1.00
C777   C     0.16691   0.24700   0.74851   0.00000  Uiso   1.00
O778   O     0.10947   0.16666   0.82681   0.00000  Uiso   1.00
O779   O     0.18591   0.16665   0.82681   0.00000  Uiso   1.00
C780   C     0.14162   0.16608   0.85206   0.00000  Uiso   1.00
Zn781  Zn    0.11562   0.16667   0.75000   0.00000  Uiso   1.00
Zn782  Zn    0.21771   0.16666   0.75000   0.00000  Uiso   1.00
O783   O     0.12843   0.10559   0.74999   0.00000  Uiso   1.00
O784   O     0.20488   0.10558   0.74999   0.00000  Uiso   1.00
O785   O     0.14742   0.16668   0.67319   0.00000  Uiso   1.00
O786   O     0.22387   0.16667   0.67319   0.00000  Uiso   1.00
C787   C     0.16458   0.08741   0.75827   0.00000  Uiso   1.00
C788   C     0.19140   0.17274   0.64981   0.00000  Uiso   1.00
C789   C     0.24271   0.23709   0.52801   0.00000  Uiso   1.00
H790   H     0.27154   0.25767   0.51239   0.00000  Uiso   1.00
C791   C     0.20181   0.19139   0.59762   0.00000  Uiso   1.00
C792   C     0.08392   0.14987   0.93920   0.00000  Uiso   1.00
C793   C     0.06383   0.16101   0.99334   0.00000  Uiso   1.00
C794   C     0.09027   0.18507   0.52016   0.00000  Uiso   1.00
C795   C     0.13851   0.19242   0.99456   0.00000  Uiso   1.00
C796   C     0.15655   0.18612   0.93941   0.00000  Uiso   1.00
C797   C     0.17142   0.20262   0.52264   0.00000  Uiso   1.00
C798   C     0.21242   0.22462   0.99790   0.00000  Uiso   1.00
C799   C     0.22330   0.22837   0.94266   0.00000  Uiso   1.00
C800   C     0.20431   0.19748   0.91609   0.00000  Uiso   1.00
C801   C     0.16843   0.18437   0.57028   0.00000  Uiso   1.00
C802   C     0.23732   0.22125   0.57861   0.00000  Uiso   1.00
C803   C     0.12782   0.16654   0.91087   0.00000  Uiso   1.00
H804   H     0.14099   0.16233   0.58468   0.00000  Uiso   1.00
C805   C     0.20182   0.31173   0.76760   0.00000  Uiso   1.00
H806   H     0.23117   0.29389   0.77314   0.00000  Uiso   1.00
C807   C     0.20057   0.02117   0.77599   0.00000  Uiso   1.00
C808   C     0.16096   0.04355   0.77090   0.00000  Uiso   1.00
C809   C     0.11998   0.02200   0.76904   0.00000  Uiso   1.00
C810   C     0.12619   0.31472   0.74753   0.00000  Uiso   1.00
C811   C     0.16589   0.29197   0.75169   0.00000  Uiso   1.00
C812   C     0.31708   0.13738   0.72001   0.00000  Uiso   1.00
C813   C     0.03225   0.13839   0.71866   0.00000  Uiso   1.00
N814   N     0.04760   0.16668   0.75001   0.00000  Uiso   1.00
C815   C     0.01533   0.19425   0.78171   0.00000  Uiso   1.00
C816   C     0.30150   0.19546   0.77946   0.00000  Uiso   1.00
H817   H     0.27669   0.21803   0.80330   0.00000  Uiso   1.00
N818   N     0.28573   0.16665   0.75000   0.00000  Uiso   1.00
C819   C     0.26781   0.23760   0.61062   0.00000  Uiso   1.00
H820   H     0.26089   0.23099   0.65201   0.00000  Uiso   1.00
O821   O     0.30106   0.25996   0.59108   0.00000  Uiso   1.00
C822   C     0.23885   0.04104   0.79385   0.00000  Uiso   1.00
H823   H     0.23280   0.07079   0.81543   0.00000  Uiso   1.00
O824   O     0.27751   0.02411   0.78518   0.00000  Uiso   1.00
C825   C     0.07181   0.03962   0.79591   0.00000  Uiso   1.00
H826   H     0.06542   0.07265   0.80432   0.00000  Uiso   1.00
O827   O     0.03834   0.01692   0.81259   0.00000  Uiso   1.00
C828   C     0.09745   0.29984   0.71232   0.00000  Uiso   1.00
O829   O     0.11491   0.27520   0.67547   0.00000  Uiso   1.00
O830   O     0.05199   0.31571   0.71864   0.00000  Uiso   1.00
H831   H     0.03661   0.30340   0.69198   0.00000  Uiso   1.00
C832   C     0.30056   0.10477   0.68858   0.00000  Uiso   1.00
H833   H     0.27469   0.11166   0.66852   0.00000  Uiso   1.00
O834   O     0.31576   0.06898   0.68496   0.00000  Uiso   1.00
C835   C     0.06617   0.11047   0.68048   0.00000  Uiso   1.00
O836   O     0.08099   0.12020   0.63445   0.00000  Uiso   1.00
O837   O     0.07602   0.07074   0.69482   0.00000  Uiso   1.00
H838   H     0.09839   0.05413   0.66449   0.00000  Uiso   1.00
C839   C     0.02802   0.22066   0.82162   0.00000  Uiso   1.00
O840   O     0.02773   0.20621   0.86404   0.00000  Uiso   1.00
O841   O     0.03785   0.26256   0.81239   0.00000  Uiso   1.00
H842   H     0.04705   0.27688   0.84272   0.00000  Uiso   1.00
C843   C     0.25759   0.25800   0.91125   0.00000  Uiso   1.00
O844   O     0.29344   0.26715   0.92282   0.00000  Uiso   1.00
O845   O     0.24801   0.27609   0.86786   0.00000  Uiso   1.00
H846   H     0.27384   0.29544   0.84894   0.00000  Uiso   1.00
C847   C     0.06031   0.11929   0.91251   0.00000  Uiso   1.00
O848   O     0.08189   0.08773   0.89156   0.00000  Uiso   1.00
O849   O     0.01375   0.12606   0.91194   0.00000  Uiso   1.00
H850   H     0.00191   0.10282   0.89238   0.00000  Uiso   1.00
C851   C     0.06741   0.20622   0.57243   0.00000  Uiso   1.00
O852   O     0.03750   0.18876   0.60669   0.00000  Uiso   1.00
O853   O     0.07997   0.24701   0.58179   0.00000  Uiso   1.00
H854   H     0.05996   0.25916   0.61695   0.00000  Uiso   1.00
C855   C     0.01534   0.14796   0.52171   0.00000  Uiso   1.00
H856   H     0.32327   0.17059   0.54508   0.00000  Uiso   1.00
O857   O     0.00380   0.11156   0.52027   0.00000  Uiso   1.00
C858   C     0.23914   0.16340   0.89261   0.00000  Uiso   1.00
H859   H     0.27637   0.17009   0.87929   0.00000  Uiso   1.00
O860   O     0.22710   0.12711   0.89141   0.00000  Uiso   1.00
O861   O     0.46179   0.22775   0.75000   0.00000  Uiso   1.00
O862   O     0.53823   0.22774   0.75000   0.00000  Uiso   1.00
C863   C     0.50024   0.24700   0.74851   0.00000  Uiso   1.00
O864   O     0.44280   0.16666   0.82681   0.00000  Uiso   1.00
O865   O     0.51924   0.16665   0.82681   0.00000  Uiso   1.00
C866   C     0.47495   0.16608   0.85206   0.00000  Uiso   1.00
Zn867  Zn    0.44896   0.16667   0.75000   0.00000  Uiso   1.00
Zn868  Zn    0.55104   0.16666   0.75000   0.00000  Uiso   1.00
O869   O     0.46177   0.10559   0.74999   0.00000  Uiso   1.00
O870   O     0.53821   0.10558   0.74999   0.00000  Uiso   1.00
O871   O     0.48076   0.16668   0.67319   0.00000  Uiso   1.00
O872   O     0.55720   0.16667   0.67319   0.00000  Uiso   1.00
C873   C     0.49791   0.08741   0.75827   0.00000  Uiso   1.00
C874   C     0.52473   0.17274   0.64981   0.00000  Uiso   1.00
C875   C     0.57604   0.23709   0.52801   0.00000  Uiso   1.00
H876   H     0.60487   0.25767   0.51239   0.00000  Uiso   1.00
C877   C     0.53514   0.19139   0.59762   0.00000  Uiso   1.00
C878   C     0.41725   0.14987   0.93920   0.00000  Uiso   1.00
C879   C     0.39717   0.16101   0.99334   0.00000  Uiso   1.00
C880   C     0.42361   0.18507   0.52016   0.00000  Uiso   1.00
C881   C     0.47184   0.19242   0.99456   0.00000  Uiso   1.00
C882   C     0.48989   0.18612   0.93941   0.00000  Uiso   1.00
C883   C     0.50475   0.20262   0.52264   0.00000  Uiso   1.00
C884   C     0.54575   0.22462   0.99790   0.00000  Uiso   1.00
C885   C     0.55663   0.22837   0.94266   0.00000  Uiso   1.00
C886   C     0.53764   0.19748   0.91609   0.00000  Uiso   1.00
C887   C     0.50176   0.18437   0.57028   0.00000  Uiso   1.00
C888   C     0.57066   0.22125   0.57861   0.00000  Uiso   1.00
C889   C     0.46115   0.16654   0.91087   0.00000  Uiso   1.00
H890   H     0.47433   0.16233   0.58468   0.00000  Uiso   1.00
C891   C     0.53516   0.31173   0.76760   0.00000  Uiso   1.00
H892   H     0.56451   0.29389   0.77314   0.00000  Uiso   1.00
C893   C     0.53391   0.02117   0.77599   0.00000  Uiso   1.00
C894   C     0.49430   0.04355   0.77090   0.00000  Uiso   1.00
C895   C     0.45332   0.02200   0.76904   0.00000  Uiso   1.00
C896   C     0.45952   0.31472   0.74753   0.00000  Uiso   1.00
C897   C     0.49922   0.29197   0.75169   0.00000  Uiso   1.00
C898   C     0.65041   0.13738   0.72001   0.00000  Uiso   1.00
C899   C     0.36559   0.13839   0.71866   0.00000  Uiso   1.00
N900   N     0.38093   0.16668   0.75001   0.00000  Uiso   1.00
C901   C     0.34866   0.19425   0.78171   0.00000  Uiso   1.00
C902   C     0.63483   0.19546   0.77946   0.00000  Uiso   1.00
H903   H     0.61002   0.21803   0.80330   0.00000  Uiso   1.00
N904   N     0.61906   0.16665   0.75000   0.00000  Uiso   1.00
C905   C     0.60114   0.23760   0.61062   0.00000  Uiso   1.00
H906   H     0.59423   0.23099   0.65201   0.00000  Uiso   1.00
O907   O     0.63440   0.25996   0.59108   0.00000  Uiso   1.00
C908   C     0.57219   0.04104   0.79385   0.00000  Uiso   1.00
H909   H     0.56613   0.07079   0.81543   0.00000  Uiso   1.00
O910   O     0.61085   0.02411   0.78518   0.00000  Uiso   1.00
C911   C     0.40515   0.03962   0.79591   0.00000  Uiso   1.00
H912   H     0.39875   0.07265   0.80432   0.00000  Uiso   1.00
O913   O     0.37167   0.01692   0.81259   0.00000  Uiso   1.00
C914   C     0.43078   0.29984   0.71232   0.00000  Uiso   1.00
O915   O     0.44825   0.27520   0.67547   0.00000  Uiso   1.00
O916   O     0.38532   0.31571   0.71864   0.00000  Uiso   1.00
H917   H     0.36994   0.30340   0.69198   0.00000  Uiso   1.00
C918   C     0.63389   0.10477   0.68858   0.00000  Uiso   1.00
H919   H     0.60803   0.11166   0.66852   0.00000  Uiso   1.00
O920   O     0.64909   0.06898   0.68496   0.00000  Uiso   1.00
C921   C     0.39950   0.11047   0.68048   0.00000  Uiso   1.00
O922   O     0.41432   0.12020   0.63445   0.00000  Uiso   1.00
O923   O     0.40935   0.07074   0.69482   0.00000  Uiso   1.00
H924   H     0.43173   0.05413   0.66449   0.00000  Uiso   1.00
C925   C     0.36135   0.22066   0.82162   0.00000  Uiso   1.00
O926   O     0.36106   0.20621   0.86404   0.00000  Uiso   1.00
O927   O     0.37119   0.26256   0.81239   0.00000  Uiso   1.00
H928   H     0.38039   0.27688   0.84272   0.00000  Uiso   1.00
C929   C     0.59093   0.25800   0.91125   0.00000  Uiso   1.00
O930   O     0.62678   0.26715   0.92282   0.00000  Uiso   1.00
O931   O     0.58134   0.27609   0.86786   0.00000  Uiso   1.00
H932   H     0.60718   0.29544   0.84894   0.00000  Uiso   1.00
C933   C     0.39365   0.11929   0.91251   0.00000  Uiso   1.00
O934   O     0.41522   0.08773   0.89156   0.00000  Uiso   1.00
O935   O     0.34709   0.12606   0.91194   0.00000  Uiso   1.00
H936   H     0.33525   0.10282   0.89238   0.00000  Uiso   1.00
C937   C     0.40074   0.20622   0.57243   0.00000  Uiso   1.00
O938   O     0.37084   0.18876   0.60669   0.00000  Uiso   1.00
O939   O     0.41331   0.24701   0.58179   0.00000  Uiso   1.00
H940   H     0.39329   0.25916   0.61695   0.00000  Uiso   1.00
C941   C     0.34868   0.14796   0.52171   0.00000  Uiso   1.00
H942   H     0.65660   0.17059   0.54508   0.00000  Uiso   1.00
O943   O     0.33713   0.11156   0.52027   0.00000  Uiso   1.00
C944   C     0.57248   0.16340   0.89261   0.00000  Uiso   1.00
H945   H     0.60971   0.17009   0.87929   0.00000  Uiso   1.00
O946   O     0.56043   0.12711   0.89141   0.00000  Uiso   1.00
O947   O     0.79512   0.22775   0.75000   0.00000  Uiso   1.00
O948   O     0.87157   0.22774   0.75000   0.00000  Uiso   1.00
C949   C     0.83358   0.24700   0.74851   0.00000  Uiso   1.00
O950   O     0.77613   0.16666   0.82681   0.00000  Uiso   1.00
O951   O     0.85258   0.16665   0.82681   0.00000  Uiso   1.00
C952   C     0.80828   0.16608   0.85206   0.00000  Uiso   1.00
Zn953  Zn    0.78229   0.16667   0.75000   0.00000  Uiso   1.00
Zn954  Zn    0.88438   0.16666   0.75000   0.00000  Uiso   1.00
O955   O     0.79510   0.10559   0.74999   0.00000  Uiso   1.00
O956   O     0.87154   0.10558   0.74999   0.00000  Uiso   1.00
O957   O     0.81409   0.16668   0.67319   0.00000  Uiso   1.00
O958   O     0.89053   0.16667   0.67319   0.00000  Uiso   1.00
C959   C     0.83124   0.08741   0.75827   0.00000  Uiso   1.00
C960   C     0.85807   0.17274   0.64981   0.00000  Uiso   1.00
C961   C     0.90937   0.23709   0.52801   0.00000  Uiso   1.00
H962   H     0.93820   0.25767   0.51239   0.00000  Uiso   1.00
C963   C     0.86847   0.19139   0.59762   0.00000  Uiso   1.00
C964   C     0.75058   0.14987   0.93920   0.00000  Uiso   1.00
C965   C     0.73050   0.16101   0.99334   0.00000  Uiso   1.00
C966   C     0.75694   0.18507   0.52016   0.00000  Uiso   1.00
C967   C     0.80518   0.19242   0.99456   0.00000  Uiso   1.00
C968   C     0.82322   0.18612   0.93941   0.00000  Uiso   1.00
C969   C     0.83808   0.20262   0.52264   0.00000  Uiso   1.00
C970   C     0.87909   0.22462   0.99790   0.00000  Uiso   1.00
C971   C     0.88997   0.22837   0.94266   0.00000  Uiso   1.00
C972   C     0.87098   0.19748   0.91609   0.00000  Uiso   1.00
C973   C     0.83510   0.18437   0.57028   0.00000  Uiso   1.00
C974   C     0.90399   0.22125   0.57861   0.00000  Uiso   1.00
C975   C     0.79449   0.16654   0.91087   0.00000  Uiso   1.00
H976   H     0.80766   0.16233   0.58468   0.00000  Uiso   1.00
C977   C     0.86849   0.31173   0.76760   0.00000  Uiso   1.00
H978   H     0.89784   0.29389   0.77314   0.00000  Uiso   1.00
C979   C     0.86724   0.02117   0.77599   0.00000  Uiso   1.00
C980   C     0.82763   0.04355   0.77090   0.00000  Uiso   1.00
C981   C     0.78665   0.02200   0.76904   0.00000  Uiso   1.00
C982   C     0.79286   0.31472   0.74753   0.00000  Uiso   1.00
C983   C     0.83256   0.29197   0.75169   0.00000  Uiso   1.00
C984   C     0.98375   0.13738   0.72001   0.00000  Uiso   1.00
C985   C     0.69892   0.13839   0.71866   0.00000  Uiso   1.00
N986   N     0.71426   0.16668   0.75001   0.00000  Uiso   1.00
C987   C     0.68200   0.19425   0.78171   0.00000  Uiso   1.00
C988   C     0.96816   0.19546   0.77946   0.00000  Uiso   1.00
H989   H     0.94335   0.21803   0.80330   0.00000  Uiso   1.00
N990   N     0.95239   0.16665   0.75000   0.00000  Uiso   1.00
C991   C     0.93448   0.23760   0.61062   0.00000  Uiso   1.00
H992   H     0.92756   0.23099   0.65201   0.00000  Uiso   1.00
O993   O     0.96773   0.25996   0.59108   0.00000  Uiso   1.00
C994   C     0.90552   0.04104   0.79385   0.00000  Uiso   1.00
H995   H     0.89947   0.07079   0.81543   0.00000  Uiso   1.00
O996   O     0.94418   0.02411   0.78518   0.00000  Uiso   1.00
C997   C     0.73848   0.03962   0.79591   0.00000  Uiso   1.00
H998   H     0.73209   0.07265   0.80432   0.00000  Uiso   1.00
O999   O     0.70500   0.01692   0.81259   0.00000  Uiso   1.00
C1000  C     0.76412   0.29984   0.71232   0.00000  Uiso   1.00
O1001  O     0.78158   0.27520   0.67547   0.00000  Uiso   1.00
O1002  O     0.71865   0.31571   0.71864   0.00000  Uiso   1.00
H1003  H     0.70328   0.30340   0.69198   0.00000  Uiso   1.00
C1004  C     0.96723   0.10477   0.68858   0.00000  Uiso   1.00
H1005  H     0.94136   0.11166   0.66852   0.00000  Uiso   1.00
O1006  O     0.98242   0.06898   0.68496   0.00000  Uiso   1.00
C1007  C     0.73283   0.11047   0.68048   0.00000  Uiso   1.00
O1008  O     0.74765   0.12020   0.63445   0.00000  Uiso   1.00
O1009  O     0.74269   0.07074   0.69482   0.00000  Uiso   1.00
H1010  H     0.76506   0.05413   0.66449   0.00000  Uiso   1.00
C1011  C     0.69468   0.22066   0.82162   0.00000  Uiso   1.00
O1012  O     0.69440   0.20621   0.86404   0.00000  Uiso   1.00
O1013  O     0.70452   0.26256   0.81239   0.00000  Uiso   1.00
H1014  H     0.71372   0.27688   0.84272   0.00000  Uiso   1.00
C1015  C     0.92426   0.25800   0.91125   0.00000  Uiso   1.00
O1016  O     0.96011   0.26715   0.92282   0.00000  Uiso   1.00
O1017  O     0.91468   0.27609   0.86786   0.00000  Uiso   1.00
H1018  H     0.94051   0.29544   0.84894   0.00000  Uiso   1.00
C1019  C     0.72698   0.11929   0.91251   0.00000  Uiso   1.00
O1020  O     0.74856   0.08773   0.89156   0.00000  Uiso   1.00
O1021  O     0.68042   0.12606   0.91194   0.00000  Uiso   1.00
H1022  H     0.66858   0.10282   0.89238   0.00000  Uiso   1.00
C1023  C     0.73407   0.20622   0.57243   0.00000  Uiso   1.00
O1024  O     0.70417   0.18876   0.60669   0.00000  Uiso   1.00
O1025  O     0.74664   0.24701   0.58179   0.00000  Uiso   1.00
H1026  H     0.72663   0.25916   0.61695   0.00000  Uiso   1.00
C1027  C     0.68201   0.14796   0.52171   0.00000  Uiso   1.00
H1028  H     0.98994   0.17059   0.54508   0.00000  Uiso   1.00
O1029  O     0.67046   0.11156   0.52027   0.00000  Uiso   1.00
C1030  C     0.90581   0.16340   0.89261   0.00000  Uiso   1.00
H1031  H     0.94304   0.17009   0.87929   0.00000  Uiso   1.00
O1032  O     0.89377   0.12711   0.89141   0.00000  Uiso   1.00
O1033  O     0.12846   0.56108   0.75000   0.00000  Uiso   1.00
O1034  O     0.20490   0.56107   0.75000   0.00000  Uiso   1.00
C1035  C     0.16691   0.58033   0.74851   0.00000  Uiso   1.00
O1036  O     0.10947   0.50000   0.82681   0.00000  Uiso   1.00
O1037  O     0.18591   0.49999   0.82681   0.00000  Uiso   1.00
C1038  C     0.14162   0.49941   0.85206   0.00000  Uiso   1.00
Zn1039 Zn    0.11562   0.50001   0.75000   0.00000  Uiso   1.00
Zn1040 Zn    0.21771   0.49999   0.75000   0.00000  Uiso   1.00
O1041  O     0.12843   0.43893   0.74999   0.00000  Uiso   1.00
O1042  O     0.20488   0.43892   0.74999   0.00000  Uiso   1.00
O1043  O     0.14742   0.50001   0.67319   0.00000  Uiso   1.00
O1044  O     0.22387   0.50000   0.67319   0.00000  Uiso   1.00
C1045  C     0.16458   0.42074   0.75827   0.00000  Uiso   1.00
C1046  C     0.19140   0.50607   0.64981   0.00000  Uiso   1.00
C1047  C     0.24271   0.57042   0.52801   0.00000  Uiso   1.00
H1048  H     0.27154   0.59100   0.51239   0.00000  Uiso   1.00
C1049  C     0.20181   0.52472   0.59762   0.00000  Uiso   1.00
C1050  C     0.08392   0.48320   0.93920   0.00000  Uiso   1.00
C1051  C     0.06383   0.49435   0.99334   0.00000  Uiso   1.00
C1052  C     0.09027   0.51840   0.52016   0.00000  Uiso   1.00
C1053  C     0.13851   0.52575   0.99456   0.00000  Uiso   1.00
C1054  C     0.15655   0.51946   0.93941   0.00000  Uiso   1.00
C1055  C     0.17142   0.53595   0.52264   0.00000  Uiso   1.00
C1056  C     0.21242   0.55795   0.99790   0.00000  Uiso   1.00
C1057  C     0.22330   0.56170   0.94266   0.00000  Uiso   1.00
C1058  C     0.20431   0.53081   0.91609   0.00000  Uiso   1.00
C1059  C     0.16843   0.51770   0.57028   0.00000  Uiso   1.00
C1060  C     0.23732   0.55458   0.57861   0.00000  Uiso   1.00
C1061  C     0.12782   0.49987   0.91087   0.00000  Uiso   1.00
H1062  H     0.14099   0.49566   0.58468   0.00000  Uiso   1.00
C1063  C     0.20182   0.64507   0.76760   0.00000  Uiso   1.00
H1064  H     0.23117   0.62722   0.77314   0.00000  Uiso   1.00
C1065  C     0.20057   0.35451   0.77599   0.00000  Uiso   1.00
C1066  C     0.16096   0.37688   0.77090   0.00000  Uiso   1.00
C1067  C     0.11998   0.35533   0.76904   0.00000  Uiso   1.00
C1068  C     0.12619   0.64805   0.74753   0.00000  Uiso   1.00
C1069  C     0.16589   0.62530   0.75169   0.00000  Uiso   1.00
C1070  C     0.31708   0.47071   0.72001   0.00000  Uiso   1.00
C1071  C     0.03225   0.47173   0.71866   0.00000  Uiso   1.00
N1072  N     0.04760   0.50001   0.75001   0.00000  Uiso   1.00
C1073  C     0.01533   0.52758   0.78171   0.00000  Uiso   1.00
C1074  C     0.30150   0.52879   0.77946   0.00000  Uiso   1.00
H1075  H     0.27669   0.55136   0.80330   0.00000  Uiso   1.00
N1076  N     0.28573   0.49998   0.75000   0.00000  Uiso   1.00
C1077  C     0.26781   0.57093   0.61062   0.00000  Uiso   1.00
H1078  H     0.26089   0.56432   0.65201   0.00000  Uiso   1.00
O1079  O     0.30106   0.59330   0.59108   0.00000  Uiso   1.00
C1080  C     0.23885   0.37437   0.79385   0.00000  Uiso   1.00
H1081  H     0.23280   0.40412   0.81543   0.00000  Uiso   1.00
O1082  O     0.27751   0.35744   0.78518   0.00000  Uiso   1.00
C1083  C     0.07181   0.37295   0.79591   0.00000  Uiso   1.00
H1084  H     0.06542   0.40598   0.80432   0.00000  Uiso   1.00
O1085  O     0.03834   0.35026   0.81259   0.00000  Uiso   1.00
C1086  C     0.09745   0.63318   0.71232   0.00000  Uiso   1.00
O1087  O     0.11491   0.60854   0.67547   0.00000  Uiso   1.00
O1088  O     0.05199   0.64904   0.71864   0.00000  Uiso   1.00
H1089  H     0.03661   0.63674   0.69198   0.00000  Uiso   1.00
C1090  C     0.30056   0.43810   0.68858   0.00000  Uiso   1.00
H1091  H     0.27469   0.44499   0.66852   0.00000  Uiso   1.00
O1092  O     0.31576   0.40231   0.68496   0.00000  Uiso   1.00
C1093  C     0.06617   0.44380   0.68048   0.00000  Uiso   1.00
O1094  O     0.08099   0.45353   0.63445   0.00000  Uiso   1.00
O1095  O     0.07602   0.40407   0.69482   0.00000  Uiso   1.00
H1096  H     0.09839   0.38746   0.66449   0.00000  Uiso   1.00
C1097  C     0.02802   0.55399   0.82162   0.00000  Uiso   1.00
O1098  O     0.02773   0.53954   0.86404   0.00000  Uiso   1.00
O1099  O     0.03785   0.59590   0.81239   0.00000  Uiso   1.00
H1100  H     0.04705   0.61021   0.84272   0.00000  Uiso   1.00
C1101  C     0.25759   0.59133   0.91125   0.00000  Uiso   1.00
O1102  O     0.29344   0.60048   0.92282   0.00000  Uiso   1.00
O1103  O     0.24801   0.60943   0.86786   0.00000  Uiso   1.00
H1104  H     0.27384   0.62877   0.84894   0.00000  Uiso   1.00
C1105  C     0.06031   0.45262   0.91251   0.00000  Uiso   1.00
O1106  O     0.08189   0.42106   0.89156   0.00000  Uiso   1.00
O1107  O     0.01375   0.45940   0.91194   0.00000  Uiso   1.00
H1108  H     0.00191   0.43615   0.89238   0.00000  Uiso   1.00
C1109  C     0.06741   0.53955   0.57243   0.00000  Uiso   1.00
O1110  O     0.03750   0.52210   0.60669   0.00000  Uiso   1.00
O1111  O     0.07997   0.58034   0.58179   0.00000  Uiso   1.00
H1112  H     0.05996   0.59249   0.61695   0.00000  Uiso   1.00
C1113  C     0.01534   0.48129   0.52171   0.00000  Uiso   1.00
H1114  H     0.32327   0.50392   0.54508   0.00000  Uiso   1.00
O1115  O     0.00380   0.44490   0.52027   0.00000  Uiso   1.00
C1116  C     0.23914   0.49673   0.89261   0.00000  Uiso   1.00
H1117  H     0.27637   0.50342   0.87929   0.00000  Uiso   1.00
O1118  O     0.22710   0.46044   0.89141   0.00000  Uiso   1.00
O1119  O     0.46179   0.56108   0.75000   0.00000  Uiso   1.00
O1120  O     0.53823   0.56107   0.75000   0.00000  Uiso   1.00
C1121  C     0.50024   0.58033   0.74851   0.00000  Uiso   1.00
O1122  O     0.44280   0.50000   0.82681   0.00000  Uiso   1.00
O1123  O     0.51924   0.49999   0.82681   0.00000  Uiso   1.00
C1124  C     0.47495   0.49941   0.85206   0.00000  Uiso   1.00
Zn1125 Zn    0.44896   0.50001   0.75000   0.00000  Uiso   1.00
Zn1126 Zn    0.55104   0.49999   0.75000   0.00000  Uiso   1.00
O1127  O     0.46177   0.43893   0.74999   0.00000  Uiso   1.00
O1128  O     0.53821   0.43892   0.74999   0.00000  Uiso   1.00
O1129  O     0.48076   0.50001   0.67319   0.00000  Uiso   1.00
O1130  O     0.55720   0.50000   0.67319   0.00000  Uiso   1.00
C1131  C     0.49791   0.42074   0.75827   0.00000  Uiso   1.00
C1132  C     0.52473   0.50607   0.64981   0.00000  Uiso   1.00
C1133  C     0.57604   0.57042   0.52801   0.00000  Uiso   1.00
H1134  H     0.60487   0.59100   0.51239   0.00000  Uiso   1.00
C1135  C     0.53514   0.52472   0.59762   0.00000  Uiso   1.00
C1136  C     0.41725   0.48320   0.93920   0.00000  Uiso   1.00
C1137  C     0.39717   0.49435   0.99334   0.00000  Uiso   1.00
C1138  C     0.42361   0.51840   0.52016   0.00000  Uiso   1.00
C1139  C     0.47184   0.52575   0.99456   0.00000  Uiso   1.00
C1140  C     0.48989   0.51946   0.93941   0.00000  Uiso   1.00
C1141  C     0.50475   0.53595   0.52264   0.00000  Uiso   1.00
C1142  C     0.54575   0.55795   0.99790   0.00000  Uiso   1.00
C1143  C     0.55663   0.56170   0.94266   0.00000  Uiso   1.00
C1144  C     0.53764   0.53081   0.91609   0.00000  Uiso   1.00
C1145  C     0.50176   0.51770   0.57028   0.00000  Uiso   1.00
C1146  C     0.57066   0.55458   0.57861   0.00000  Uiso   1.00
C1147  C     0.46115   0.49987   0.91087   0.00000  Uiso   1.00
H1148  H     0.47433   0.49566   0.58468   0.00000  Uiso   1.00
C1149  C     0.53516   0.64507   0.76760   0.00000  Uiso   1.00
H1150  H     0.56451   0.62722   0.77314   0.00000  Uiso   1.00
C1151  C     0.53391   0.35451   0.77599   0.00000  Uiso   1.00
C1152  C     0.49430   0.37688   0.77090   0.00000  Uiso   1.00
C1153  C     0.45332   0.35533   0.76904   0.00000  Uiso   1.00
C1154  C     0.45952   0.64805   0.74753   0.00000  Uiso   1.00
C1155  C     0.49922   0.62530   0.75169   0.00000  Uiso   1.00
C1156  C     0.65041   0.47071   0.72001   0.00000  Uiso   1.00
C1157  C     0.36559   0.47173   0.71866   0.00000  Uiso   1.00
N1158  N     0.38093   0.50001   0.75001   0.00000  Uiso   1.00
C1159  C     0.34866   0.52758   0.78171   0.00000  Uiso   1.00
C1160  C     0.63483   0.52879   0.77946   0.00000  Uiso   1.00
H1161  H     0.61002   0.55136   0.80330   0.00000  Uiso   1.00
N1162  N     0.61906   0.49998   0.75000   0.00000  Uiso   1.00
C1163  C     0.60114   0.57093   0.61062   0.00000  Uiso   1.00
H1164  H     0.59423   0.56432   0.65201   0.00000  Uiso   1.00
O1165  O     0.63440   0.59330   0.59108   0.00000  Uiso   1.00
C1166  C     0.57219   0.37437   0.79385   0.00000  Uiso   1.00
H1167  H     0.56613   0.40412   0.81543   0.00000  Uiso   1.00
O1168  O     0.61085   0.35744   0.78518   0.00000  Uiso   1.00
C1169  C     0.40515   0.37295   0.79591   0.00000  Uiso   1.00
H1170  H     0.39875   0.40598   0.80432   0.00000  Uiso   1.00
O1171  O     0.37167   0.35026   0.81259   0.00000  Uiso   1.00
C1172  C     0.43078   0.63318   0.71232   0.00000  Uiso   1.00
O1173  O     0.44825   0.60854   0.67547   0.00000  Uiso   1.00
O1174  O     0.38532   0.64904   0.71864   0.00000  Uiso   1.00
H1175  H     0.36994   0.63674   0.69198   0.00000  Uiso   1.00
C1176  C     0.63389   0.43810   0.68858   0.00000  Uiso   1.00
H1177  H     0.60803   0.44499   0.66852   0.00000  Uiso   1.00
O1178  O     0.64909   0.40231   0.68496   0.00000  Uiso   1.00
C1179  C     0.39950   0.44380   0.68048   0.00000  Uiso   1.00
O1180  O     0.41432   0.45353   0.63445   0.00000  Uiso   1.00
O1181  O     0.40935   0.40407   0.69482   0.00000  Uiso   1.00
H1182  H     0.43173   0.38746   0.66449   0.00000  Uiso   1.00
C1183  C     0.36135   0.55399   0.82162   0.00000  Uiso   1.00
O1184  O     0.36106   0.53954   0.86404   0.00000  Uiso   1.00
O1185  O     0.37119   0.59590   0.81239   0.00000  Uiso   1.00
H1186  H     0.38039   0.61021   0.84272   0.00000  Uiso   1.00
C1187  C     0.59093   0.59133   0.91125   0.00000  Uiso   1.00
O1188  O     0.62678   0.60048   0.92282   0.00000  Uiso   1.00
O1189  O     0.58134   0.60943   0.86786   0.00000  Uiso   1.00
H1190  H     0.60718   0.62877   0.84894   0.00000  Uiso   1.00
C1191  C     0.39365   0.45262   0.91251   0.00000  Uiso   1.00
O1192  O     0.41522   0.42106   0.89156   0.00000  Uiso   1.00
O1193  O     0.34709   0.45940   0.91194   0.00000  Uiso   1.00
H1194  H     0.33525   0.43615   0.89238   0.00000  Uiso   1.00
C1195  C     0.40074   0.53955   0.57243   0.00000  Uiso   1.00
O1196  O     0.37084   0.52210   0.60669   0.00000  Uiso   1.00
O1197  O     0.41331   0.58034   0.58179   0.00000  Uiso   1.00
H1198  H     0.39329   0.59249   0.61695   0.00000  Uiso   1.00
C1199  C     0.34868   0.48129   0.52171   0.00000  Uiso   1.00
H1200  H     0.65660   0.50392   0.54508   0.00000  Uiso   1.00
O1201  O     0.33713   0.44490   0.52027   0.00000  Uiso   1.00
C1202  C     0.57248   0.49673   0.89261   0.00000  Uiso   1.00
H1203  H     0.60971   0.50342   0.87929   0.00000  Uiso   1.00
O1204  O     0.56043   0.46044   0.89141   0.00000  Uiso   1.00
O1205  O     0.79512   0.56108   0.75000   0.00000  Uiso   1.00
O1206  O     0.87157   0.56107   0.75000   0.00000  Uiso   1.00
C1207  C     0.83358   0.58033   0.74851   0.00000  Uiso   1.00
O1208  O     0.77613   0.50000   0.82681   0.00000  Uiso   1.00
O1209  O     0.85258   0.49999   0.82681   0.00000  Uiso   1.00
C1210  C     0.80828   0.49941   0.85206   0.00000  Uiso   1.00
Zn1211 Zn    0.78229   0.50001   0.75000   0.00000  Uiso   1.00
Zn1212 Zn    0.88438   0.49999   0.75000   0.00000  Uiso   1.00
O1213  O     0.79510   0.43893   0.74999   0.00000  Uiso   1.00
O1214  O     0.87154   0.43892   0.74999   0.00000  Uiso   1.00
O1215  O     0.81409   0.50001   0.67319   0.00000  Uiso   1.00
O1216  O     0.89053   0.50000   0.67319   0.00000  Uiso   1.00
C1217  C     0.83124   0.42074   0.75827   0.00000  Uiso   1.00
C1218  C     0.85807   0.50607   0.64981   0.00000  Uiso   1.00
C1219  C     0.90937   0.57042   0.52801   0.00000  Uiso   1.00
H1220  H     0.93820   0.59100   0.51239   0.00000  Uiso   1.00
C1221  C     0.86847   0.52472   0.59762   0.00000  Uiso   1.00
C1222  C     0.75058   0.48320   0.93920   0.00000  Uiso   1.00
C1223  C     0.73050   0.49435   0.99334   0.00000  Uiso   1.00
C1224  C     0.75694   0.51840   0.52016   0.00000  Uiso   1.00
C1225  C     0.80518   0.52575   0.99456   0.00000  Uiso   1.00
C1226  C     0.82322   0.51946   0.93941   0.00000  Uiso   1.00
C1227  C     0.83808   0.53595   0.52264   0.00000  Uiso   1.00
C1228  C     0.87909   0.55795   0.99790   0.00000  Uiso   1.00
C1229  C     0.88997   0.56170   0.94266   0.00000  Uiso   1.00
C1230  C     0.87098   0.53081   0.91609   0.00000  Uiso   1.00
C1231  C     0.83510   0.51770   0.57028   0.00000  Uiso   1.00
C1232  C     0.90399   0.55458   0.57861   0.00000  Uiso   1.00
C1233  C     0.79449   0.49987   0.91087   0.00000  Uiso   1.00
H1234  H     0.80766   0.49566   0.58468   0.00000  Uiso   1.00
C1235  C     0.86849   0.64507   0.76760   0.00000  Uiso   1.00
H1236  H     0.89784   0.62722   0.77314   0.00000  Uiso   1.00
C1237  C     0.86724   0.35451   0.77599   0.00000  Uiso   1.00
C1238  C     0.82763   0.37688   0.77090   0.00000  Uiso   1.00
C1239  C     0.78665   0.35533   0.76904   0.00000  Uiso   1.00
C1240  C     0.79286   0.64805   0.74753   0.00000  Uiso   1.00
C1241  C     0.83256   0.62530   0.75169   0.00000  Uiso   1.00
C1242  C     0.98375   0.47071   0.72001   0.00000  Uiso   1.00
C1243  C     0.69892   0.47173   0.71866   0.00000  Uiso   1.00
N1244  N     0.71426   0.50001   0.75001   0.00000  Uiso   1.00
C1245  C     0.68200   0.52758   0.78171   0.00000  Uiso   1.00
C1246  C     0.96816   0.52879   0.77946   0.00000  Uiso   1.00
H1247  H     0.94335   0.55136   0.80330   0.00000  Uiso   1.00
N1248  N     0.95239   0.49998   0.75000   0.00000  Uiso   1.00
C1249  C     0.93448   0.57093   0.61062   0.00000  Uiso   1.00
H1250  H     0.92756   0.56432   0.65201   0.00000  Uiso   1.00
O1251  O     0.96773   0.59330   0.59108   0.00000  Uiso   1.00
C1252  C     0.90552   0.37437   0.79385   0.00000  Uiso   1.00
H1253  H     0.89947   0.40412   0.81543   0.00000  Uiso   1.00
O1254  O     0.94418   0.35744   0.78518   0.00000  Uiso   1.00
C1255  C     0.73848   0.37295   0.79591   0.00000  Uiso   1.00
H1256  H     0.73209   0.40598   0.80432   0.00000  Uiso   1.00
O1257  O     0.70500   0.35026   0.81259   0.00000  Uiso   1.00
C1258  C     0.76412   0.63318   0.71232   0.00000  Uiso   1.00
O1259  O     0.78158   0.60854   0.67547   0.00000  Uiso   1.00
O1260  O     0.71865   0.64904   0.71864   0.00000  Uiso   1.00
H1261  H     0.70328   0.63674   0.69198   0.00000  Uiso   1.00
C1262  C     0.96723   0.43810   0.68858   0.00000  Uiso   1.00
H1263  H     0.94136   0.44499   0.66852   0.00000  Uiso   1.00
O1264  O     0.98242   0.40231   0.68496   0.00000  Uiso   1.00
C1265  C     0.73283   0.44380   0.68048   0.00000  Uiso   1.00
O1266  O     0.74765   0.45353   0.63445   0.00000  Uiso   1.00
O1267  O     0.74269   0.40407   0.69482   0.00000  Uiso   1.00
H1268  H     0.76506   0.38746   0.66449   0.00000  Uiso   1.00
C1269  C     0.69468   0.55399   0.82162   0.00000  Uiso   1.00
O1270  O     0.69440   0.53954   0.86404   0.00000  Uiso   1.00
O1271  O     0.70452   0.59590   0.81239   0.00000  Uiso   1.00
H1272  H     0.71372   0.61021   0.84272   0.00000  Uiso   1.00
C1273  C     0.92426   0.59133   0.91125   0.00000  Uiso   1.00
O1274  O     0.96011   0.60048   0.92282   0.00000  Uiso   1.00
O1275  O     0.91468   0.60943   0.86786   0.00000  Uiso   1.00
H1276  H     0.94051   0.62877   0.84894   0.00000  Uiso   1.00
C1277  C     0.72698   0.45262   0.91251   0.00000  Uiso   1.00
O1278  O     0.74856   0.42106   0.89156   0.00000  Uiso   1.00
O1279  O     0.68042   0.45940   0.91194   0.00000  Uiso   1.00
H1280  H     0.66858   0.43615   0.89238   0.00000  Uiso   1.00
C1281  C     0.73407   0.53955   0.57243   0.00000  Uiso   1.00
O1282  O     0.70417   0.52210   0.60669   0.00000  Uiso   1.00
O1283  O     0.74664   0.58034   0.58179   0.00000  Uiso   1.00
H1284  H     0.72663   0.59249   0.61695   0.00000  Uiso   1.00
C1285  C     0.68201   0.48129   0.52171   0.00000  Uiso   1.00
H1286  H     0.98994   0.50392   0.54508   0.00000  Uiso   1.00
O1287  O     0.67046   0.44490   0.52027   0.00000  Uiso   1.00
C1288  C     0.90581   0.49673   0.89261   0.00000  Uiso   1.00
H1289  H     0.94304   0.50342   0.87929   0.00000  Uiso   1.00
O1290  O     0.89377   0.46044   0.89141   0.00000  Uiso   1.00
O1291  O     0.12846   0.89442   0.75000   0.00000  Uiso   1.00
O1292  O     0.20490   0.89441   0.75000   0.00000  Uiso   1.00
C1293  C     0.16691   0.91366   0.74851   0.00000  Uiso   1.00
O1294  O     0.10947   0.83333   0.82681   0.00000  Uiso   1.00
O1295  O     0.18591   0.83332   0.82681   0.00000  Uiso   1.00
C1296  C     0.14162   0.83274   0.85206   0.00000  Uiso   1.00
Zn1297 Zn    0.11562   0.83334   0.75000   0.00000  Uiso   1.00
Zn1298 Zn    0.21771   0.83333   0.75000   0.00000  Uiso   1.00
O1299  O     0.12843   0.77226   0.74999   0.00000  Uiso   1.00
O1300  O     0.20488   0.77225   0.74999   0.00000  Uiso   1.00
O1301  O     0.14742   0.83335   0.67319   0.00000  Uiso   1.00
O1302  O     0.22387   0.83334   0.67319   0.00000  Uiso   1.00
C1303  C     0.16458   0.75407   0.75827   0.00000  Uiso   1.00
C1304  C     0.19140   0.83941   0.64981   0.00000  Uiso   1.00
C1305  C     0.24271   0.90375   0.52801   0.00000  Uiso   1.00
H1306  H     0.27154   0.92433   0.51239   0.00000  Uiso   1.00
C1307  C     0.20181   0.85806   0.59762   0.00000  Uiso   1.00
C1308  C     0.08392   0.81653   0.93920   0.00000  Uiso   1.00
C1309  C     0.06383   0.82768   0.99334   0.00000  Uiso   1.00
C1310  C     0.09027   0.85173   0.52016   0.00000  Uiso   1.00
C1311  C     0.13851   0.85909   0.99456   0.00000  Uiso   1.00
C1312  C     0.15655   0.85279   0.93941   0.00000  Uiso   1.00
C1313  C     0.17142   0.86929   0.52264   0.00000  Uiso   1.00
C1314  C     0.21242   0.89129   0.99790   0.00000  Uiso   1.00
C1315  C     0.22330   0.89504   0.94266   0.00000  Uiso   1.00
C1316  C     0.20431   0.86414   0.91609   0.00000  Uiso   1.00
C1317  C     0.16843   0.85104   0.57028   0.00000  Uiso   1.00
C1318  C     0.23732   0.88791   0.57861   0.00000  Uiso   1.00
C1319  C     0.12782   0.83320   0.91087   0.00000  Uiso   1.00
H1320  H     0.14099   0.82899   0.58468   0.00000  Uiso   1.00
C1321  C     0.20182   0.97840   0.76760   0.00000  Uiso   1.00
H1322  H     0.23117   0.96056   0.77314   0.00000  Uiso   1.00
C1323  C     0.20057   0.68784   0.77599   0.00000  Uiso   1.00
C1324  C     0.16096   0.71022   0.77090   0.00000  Uiso   1.00
C1325  C     0.11998   0.68867   0.76904   0.00000  Uiso   1.00
C1326  C     0.12619   0.98138   0.74753   0.00000  Uiso   1.00
C1327  C     0.16589   0.95864   0.75169   0.00000  Uiso   1.00
C1328  C     0.31708   0.80404   0.72001   0.00000  Uiso   1.00
C1329  C     0.03225   0.80506   0.71866   0.00000  Uiso   1.00
N1330  N     0.04760   0.83334   0.75001   0.00000  Uiso   1.00
C1331  C     0.01533   0.86092   0.78171   0.00000  Uiso   1.00
C1332  C     0.30150   0.86212   0.77946   0.00000  Uiso   1.00
H1333  H     0.27669   0.88470   0.80330   0.00000  Uiso   1.00
N1334  N     0.28573   0.83331   0.75000   0.00000  Uiso   1.00
C1335  C     0.26781   0.90427   0.61062   0.00000  Uiso   1.00
H1336  H     0.26089   0.89766   0.65201   0.00000  Uiso   1.00
O1337  O     0.30106   0.92663   0.59108   0.00000  Uiso   1.00
C1338  C     0.23885   0.70770   0.79385   0.00000  Uiso   1.00
H1339  H     0.23280   0.73746   0.81543   0.00000  Uiso   1.00
O1340  O     0.27751   0.69077   0.78518   0.00000  Uiso   1.00
C1341  C     0.07181   0.70629   0.79591   0.00000  Uiso   1.00
H1342  H     0.06542   0.73931   0.80432   0.00000  Uiso   1.00
O1343  O     0.03834   0.68359   0.81259   0.00000  Uiso   1.00
C1344  C     0.09745   0.96651   0.71232   0.00000  Uiso   1.00
O1345  O     0.11491   0.94187   0.67547   0.00000  Uiso   1.00
O1346  O     0.05199   0.98238   0.71864   0.00000  Uiso   1.00
H1347  H     0.03661   0.97007   0.69198   0.00000  Uiso   1.00
C1348  C     0.30056   0.77144   0.68858   0.00000  Uiso   1.00
H1349  H     0.27469   0.77832   0.66852   0.00000  Uiso   1.00
O1350  O     0.31576   0.73564   0.68496   0.00000  Uiso   1.00
C1351  C     0.06617   0.77714   0.68048   0.00000  Uiso   1.00
O1352  O     0.08099   0.78687   0.63445   0.00000  Uiso   1.00
O1353  O     0.07602   0.73741   0.69482   0.00000  Uiso   1.00
H1354  H     0.09839   0.72079   0.66449   0.00000  Uiso   1.00
C1355  C     0.02802   0.88732   0.82162   0.00000  Uiso   1.00
O1356  O     0.02773   0.87287   0.86404   0.00000  Uiso   1.00
O1357  O     0.03785   0.92923   0.81239   0.00000  Uiso   1.00
H1358  H     0.04705   0.94355   0.84272   0.00000  Uiso   1.00
C1359  C     0.25759   0.92466   0.91125   0.00000  Uiso   1.00
O1360  O     0.29344   0.93382   0.92282   0.00000  Uiso   1.00
O1361  O     0.24801   0.94276   0.86786   0.00000  Uiso   1.00
H1362  H     0.27384   0.96211   0.84894   0.00000  Uiso   1.00
C1363  C     0.06031   0.78595   0.91251   0.00000  Uiso   1.00
O1364  O     0.08189   0.75439   0.89156   0.00000  Uiso   1.00
O1365  O     0.01375   0.79273   0.91194   0.00000  Uiso   1.00
H1366  H     0.00191   0.76948   0.89238   0.00000  Uiso   1.00
C1367  C     0.06741   0.87289   0.57243   0.00000  Uiso   1.00
O1368  O     0.03750   0.85543   0.60669   0.00000  Uiso   1.00
O1369  O     0.07997   0.91367   0.58179   0.00000  Uiso   1.00
H1370  H     0.05996   0.92583   0.61695   0.00000  Uiso   1.00
C1371  C     0.01534   0.81462   0.52171   0.00000  Uiso   1.00
H1372  H     0.32327   0.83725   0.54508   0.00000  Uiso   1.00
O1373  O     0.00380   0.77823   0.52027   0.00000  Uiso   1.00
C1374  C     0.23914   0.83006   0.89261   0.00000  Uiso   1.00
H1375  H     0.27637   0.83676   0.87929   0.00000  Uiso   1.00
O1376  O     0.22710   0.79378   0.89141   0.00000  Uiso   1.00
O1377  O     0.46179   0.89442   0.75000   0.00000  Uiso   1.00
O1378  O     0.53823   0.89441   0.75000   0.00000  Uiso   1.00
C1379  C     0.50024   0.91366   0.74851   0.00000  Uiso   1.00
O1380  O     0.44280   0.83333   0.82681   0.00000  Uiso   1.00
O1381  O     0.51924   0.83332   0.82681   0.00000  Uiso   1.00
C1382  C     0.47495   0.83274   0.85206   0.00000  Uiso   1.00
Zn1383 Zn    0.44896   0.83334   0.75000   0.00000  Uiso   1.00
Zn1384 Zn    0.55104   0.83333   0.75000   0.00000  Uiso   1.00
O1385  O     0.46177   0.77226   0.74999   0.00000  Uiso   1.00
O1386  O     0.53821   0.77225   0.74999   0.00000  Uiso   1.00
O1387  O     0.48076   0.83335   0.67319   0.00000  Uiso   1.00
O1388  O     0.55720   0.83334   0.67319   0.00000  Uiso   1.00
C1389  C     0.49791   0.75407   0.75827   0.00000  Uiso   1.00
C1390  C     0.52473   0.83941   0.64981   0.00000  Uiso   1.00
C1391  C     0.57604   0.90375   0.52801   0.00000  Uiso   1.00
H1392  H     0.60487   0.92433   0.51239   0.00000  Uiso   1.00
C1393  C     0.53514   0.85806   0.59762   0.00000  Uiso   1.00
C1394  C     0.41725   0.81653   0.93920   0.00000  Uiso   1.00
C1395  C     0.39717   0.82768   0.99334   0.00000  Uiso   1.00
C1396  C     0.42361   0.85173   0.52016   0.00000  Uiso   1.00
C1397  C     0.47184   0.85909   0.99456   0.00000  Uiso   1.00
C1398  C     0.48989   0.85279   0.93941   0.00000  Uiso   1.00
C1399  C     0.50475   0.86929   0.52264   0.00000  Uiso   1.00
C1400  C     0.54575   0.89129   0.99790   0.00000  Uiso   1.00
C1401  C     0.55663   0.89504   0.94266   0.00000  Uiso   1.00
C1402  C     0.53764   0.86414   0.91609   0.00000  Uiso   1.00
C1403  C     0.50176   0.85104   0.57028   0.00000  Uiso   1.00
C1404  C     0.57066   0.88791   0.57861   0.00000  Uiso   1.00
C1405  C     0.46115   0.83320   0.91087   0.00000  Uiso   1.00
H1406  H     0.47433   0.82899   0.58468   0.00000  Uiso   1.00
C1407  C     0.53516   0.97840   0.76760   0.00000  Uiso   1.00
H1408  H     0.56451   0.96056   0.77314   0.00000  Uiso   1.00
C1409  C     0.53391   0.68784   0.77599   0.00000  Uiso   1.00
C1410  C     0.49430   0.71022   0.77090   0.00000  Uiso   1.00
C1411  C     0.45332   0.68867   0.76904   0.00000  Uiso   1.00
C1412  C     0.45952   0.98138   0.74753   0.00000  Uiso   1.00
C1413  C     0.49922   0.95864   0.75169   0.00000  Uiso   1.00
C1414  C     0.65041   0.80404   0.72001   0.00000  Uiso   1.00
C1415  C     0.36559   0.80506   0.71866   0.00000  Uiso   1.00
N1416  N     0.38093   0.83334   0.75001   0.00000  Uiso   1.00
C1417  C     0.34866   0.86092   0.78171   0.00000  Uiso   1.00
C1418  C     0.63483   0.86212   0.77946   0.00000  Uiso   1.00
H1419  H     0.61002   0.88470   0.80330   0.00000  Uiso   1.00
N1420  N     0.61906   0.83331   0.75000   0.00000  Uiso   1.00
C1421  C     0.60114   0.90427   0.61062   0.00000  Uiso   1.00
H1422  H     0.59423   0.89766   0.65201   0.00000  Uiso   1.00
O1423  O     0.63440   0.92663   0.59108   0.00000  Uiso   1.00
C1424  C     0.57219   0.70770   0.79385   0.00000  Uiso   1.00
H1425  H     0.56613   0.73746   0.81543   0.00000  Uiso   1.00
O1426  O     0.61085   0.69077   0.78518   0.00000  Uiso   1.00
C1427  C     0.40515   0.70629   0.79591   0.00000  Uiso   1.00
H1428  H     0.39875   0.73931   0.80432   0.00000  Uiso   1.00
O1429  O     0.37167   0.68359   0.81259   0.00000  Uiso   1.00
C1430  C     0.43078   0.96651   0.71232   0.00000  Uiso   1.00
O1431  O     0.44825   0.94187   0.67547   0.00000  Uiso   1.00
O1432  O     0.38532   0.98238   0.71864   0.00000  Uiso   1.00
H1433  H     0.36994   0.97007   0.69198   0.00000  Uiso   1.00
C1434  C     0.63389   0.77144   0.68858   0.00000  Uiso   1.00
H1435  H     0.60803   0.77832   0.66852   0.00000  Uiso   1.00
O1436  O     0.64909   0.73564   0.68496   0.00000  Uiso   1.00
C1437  C     0.39950   0.77714   0.68048   0.00000  Uiso   1.00
O1438  O     0.41432   0.78687   0.63445   0.00000  Uiso   1.00
O1439  O     0.40935   0.73741   0.69482   0.00000  Uiso   1.00
H1440  H     0.43173   0.72079   0.66449   0.00000  Uiso   1.00
C1441  C     0.36135   0.88732   0.82162   0.00000  Uiso   1.00
O1442  O     0.36106   0.87287   0.86404   0.00000  Uiso   1.00
O1443  O     0.37119   0.92923   0.81239   0.00000  Uiso   1.00
H1444  H     0.38039   0.94355   0.84272   0.00000  Uiso   1.00
C1445  C     0.59093   0.92466   0.91125   0.00000  Uiso   1.00
O1446  O     0.62678   0.93382   0.92282   0.00000  Uiso   1.00
O1447  O     0.58134   0.94276   0.86786   0.00000  Uiso   1.00
H1448  H     0.60718   0.96211   0.84894   0.00000  Uiso   1.00
C1449  C     0.39365   0.78595   0.91251   0.00000  Uiso   1.00
O1450  O     0.41522   0.75439   0.89156   0.00000  Uiso   1.00
O1451  O     0.34709   0.79273   0.91194   0.00000  Uiso   1.00
H1452  H     0.33525   0.76948   0.89238   0.00000  Uiso   1.00
C1453  C     0.40074   0.87289   0.57243   0.00000  Uiso   1.00
O1454  O     0.37084   0.85543   0.60669   0.00000  Uiso   1.00
O1455  O     0.41331   0.91367   0.58179   0.00000  Uiso   1.00
H1456  H     0.39329   0.92583   0.61695   0.00000  Uiso   1.00
C1457  C     0.34868   0.81462   0.52171   0.00000  Uiso   1.00
H1458  H     0.65660   0.83725   0.54508   0.00000  Uiso   1.00
O1459  O     0.33713   0.77823   0.52027   0.00000  Uiso   1.00
C1460  C     0.57248   0.83006   0.89261   0.00000  Uiso   1.00
H1461  H     0.60971   0.83676   0.87929   0.00000  Uiso   1.00
O1462  O     0.56043   0.79378   0.89141   0.00000  Uiso   1.00
O1463  O     0.79512   0.89442   0.75000   0.00000  Uiso   1.00
O1464  O     0.87157   0.89441   0.75000   0.00000  Uiso   1.00
C1465  C     0.83358   0.91366   0.74851   0.00000  Uiso   1.00
O1466  O     0.77613   0.83333   0.82681   0.00000  Uiso   1.00
O1467  O     0.85258   0.83332   0.82681   0.00000  Uiso   1.00
C1468  C     0.80828   0.83274   0.85206   0.00000  Uiso   1.00
Zn1469 Zn    0.78229   0.83334   0.75000   0.00000  Uiso   1.00
Zn1470 Zn    0.88438   0.83333   0.75000   0.00000  Uiso   1.00
O1471  O     0.79510   0.77226   0.74999   0.00000  Uiso   1.00
O1472  O     0.87154   0.77225   0.74999   0.00000  Uiso   1.00
O1473  O     0.81409   0.83335   0.67319   0.00000  Uiso   1.00
O1474  O     0.89053   0.83334   0.67319   0.00000  Uiso   1.00
C1475  C     0.83124   0.75407   0.75827   0.00000  Uiso   1.00
C1476  C     0.85807   0.83941   0.64981   0.00000  Uiso   1.00
C1477  C     0.90937   0.90375   0.52801   0.00000  Uiso   1.00
H1478  H     0.93820   0.92433   0.51239   0.00000  Uiso   1.00
C1479  C     0.86847   0.85806   0.59762   0.00000  Uiso   1.00
C1480  C     0.75058   0.81653   0.93920   0.00000  Uiso   1.00
C1481  C     0.73050   0.82768   0.99334   0.00000  Uiso   1.00
C1482  C     0.75694   0.85173   0.52016   0.00000  Uiso   1.00
C1483  C     0.80518   0.85909   0.99456   0.00000  Uiso   1.00
C1484  C     0.82322   0.85279   0.93941   0.00000  Uiso   1.00
C1485  C     0.83808   0.86929   0.52264   0.00000  Uiso   1.00
C1486  C     0.87909   0.89129   0.99790   0.00000  Uiso   1.00
C1487  C     0.88997   0.89504   0.94266   0.00000  Uiso   1.00
C1488  C     0.87098   0.86414   0.91609   0.00000  Uiso   1.00
C1489  C     0.83510   0.85104   0.57028   0.00000  Uiso   1.00
C1490  C     0.90399   0.88791   0.57861   0.00000  Uiso   1.00
C1491  C     0.79449   0.83320   0.91087   0.00000  Uiso   1.00
H1492  H     0.80766   0.82899   0.58468   0.00000  Uiso   1.00
C1493  C     0.86849   0.97840   0.76760   0.00000  Uiso   1.00
H1494  H     0.89784   0.96056   0.77314   0.00000  Uiso   1.00
C1495  C     0.86724   0.68784   0.77599   0.00000  Uiso   1.00
C1496  C     0.82763   0.71022   0.77090   0.00000  Uiso   1.00
C1497  C     0.78665   0.68867   0.76904   0.00000  Uiso   1.00
C1498  C     0.79286   0.98138   0.74753   0.00000  Uiso   1.00
C1499  C     0.83256   0.95864   0.75169   0.00000  Uiso   1.00
C1500  C     0.98375   0.80404   0.72001   0.00000  Uiso   1.00
C1501  C     0.69892   0.80506   0.71866   0.00000  Uiso   1.00
N1502  N     0.71426   0.83334   0.75001   0.00000  Uiso   1.00
C1503  C     0.68200   0.86092   0.78171   0.00000  Uiso   1.00
C1504  C     0.96816   0.86212   0.77946   0.00000  Uiso   1.00
H1505  H     0.94335   0.88470   0.80330   0.00000  Uiso   1.00
N1506  N     0.95239   0.83331   0.75000   0.00000  Uiso   1.00
C1507  C     0.93448   0.90427   0.61062   0.00000  Uiso   1.00
H1508  H     0.92756   0.89766   0.65201   0.00000  Uiso   1.00
O1509  O     0.96773   0.92663   0.59108   0.00000  Uiso   1.00
C1510  C     0.90552   0.70770   0.79385   0.00000  Uiso   1.00
H1511  H     0.89947   0.73746   0.81543   0.00000  Uiso   1.00
O1512  O     0.94418   0.69077   0.78518   0.00000  Uiso   1.00
C1513  C     0.73848   0.70629   0.79591   0.00000  Uiso   1.00
H1514  H     0.73209   0.73931   0.80432   0.00000  Uiso   1.00
O1515  O     0.70500   0.68359   0.81259   0.00000  Uiso   1.00
C1516  C     0.76412   0.96651   0.71232   0.00000  Uiso   1.00
O1517  O     0.78158   0.94187   0.67547   0.00000  Uiso   1.00
O1518  O     0.71865   0.98238   0.71864   0.00000  Uiso   1.00
H1519  H     0.70328   0.97007   0.69198   0.00000  Uiso   1.00
C1520  C     0.96723   0.77144   0.68858   0.00000  Uiso   1.00
H1521  H     0.94136   0.77832   0.66852   0.00000  Uiso   1.00
O1522  O     0.98242   0.73564   0.68496   0.00000  Uiso   1.00
C1523  C     0.73283   0.77714   0.68048   0.00000  Uiso   1.00
O1524  O     0.74765   0.78687   0.63445   0.00000  Uiso   1.00
O1525  O     0.74269   0.73741   0.69482   0.00000  Uiso   1.00
H1526  H     0.76506   0.72079   0.66449   0.00000  Uiso   1.00
C1527  C     0.69468   0.88732   0.82162   0.00000  Uiso   1.00
O1528  O     0.69440   0.87287   0.86404   0.00000  Uiso   1.00
O1529  O     0.70452   0.92923   0.81239   0.00000  Uiso   1.00
H1530  H     0.71372   0.94355   0.84272   0.00000  Uiso   1.00
C1531  C     0.92426   0.92466   0.91125   0.00000  Uiso   1.00
O1532  O     0.96011   0.93382   0.92282   0.00000  Uiso   1.00
O1533  O     0.91468   0.94276   0.86786   0.00000  Uiso   1.00
H1534  H     0.94051   0.96211   0.84894   0.00000  Uiso   1.00
C1535  C     0.72698   0.78595   0.91251   0.00000  Uiso   1.00
O1536  O     0.74856   0.75439   0.89156   0.00000  Uiso   1.00
O1537  O     0.68042   0.79273   0.91194   0.00000  Uiso   1.00
H1538  H     0.66858   0.76948   0.89238   0.00000  Uiso   1.00
C1539  C     0.73407   0.87289   0.57243   0.00000  Uiso   1.00
O1540  O     0.70417   0.85543   0.60669   0.00000  Uiso   1.00
O1541  O     0.74664   0.91367   0.58179   0.00000  Uiso   1.00
H1542  H     0.72663   0.92583   0.61695   0.00000  Uiso   1.00
C1543  C     0.68201   0.81462   0.52171   0.00000  Uiso   1.00
H1544  H     0.98994   0.83725   0.54508   0.00000  Uiso   1.00
O1545  O     0.67046   0.77823   0.52027   0.00000  Uiso   1.00
C1546  C     0.90581   0.83006   0.89261   0.00000  Uiso   1.00
H1547  H     0.94304   0.83676   0.87929   0.00000  Uiso   1.00
O1548  O     0.89377   0.79378   0.89141   0.00000  Uiso   1.00
loop_
_geom_bond_atom_site_label_1
_geom_bond_atom_site_label_2
_geom_bond_distance
_geom_bond_site_symmetry_2
_ccdc_geom_bond_type
O1     Zn7     1.998   .     S
O1     C3      1.290   .     A
O2     Zn8     1.992   .     S
O2     C3      1.290   .     A
C3     C37     1.442   .     S
O4     Zn7     1.980   .     S
O4     C6      1.308   .     A
O5     C6      1.290   .     A
O5     Zn8     1.974   .     S
C6     C29     1.486   .     S
Zn7    O11     1.974   .     S
Zn7    N40     2.014   .     S
Zn7    O9      1.992   .     S
Zn8    O12     1.980   .     S
Zn8    N44     2.013   .     S
Zn8    O10     1.998   .     S
O9     C13     1.290   .     A
O10    C13     1.296   .     A
O11    C14     1.290   .     A
O12    C14     1.298   .     A
C13    C34     1.453   .     S
C14    C17     1.468   .     S
C15    H16     1.076   .     S
C15    C28     1.408   .     A
C15    C798    1.409   1_554 S
C17    C27     1.395   .     A
C17    C28     1.420   .     A
C18    C19     1.414   .     A
C18    C29     1.419   .     A
C18    C73     1.481   .     S
C19    C794    1.414   .     S
C19    C855    1.487   .     S
C20    C77     1.490   .     S
C20    C793    1.414   1_554 S
C20    C795    1.419   1_554 S
C21    C22     1.406   .     A
C21    C794    1.419   .     S
C21    C797    1.416   .     S
C22    C29     1.424   .     A
C22    C26     1.426   .     A
C23    C27     1.382   .     A
C23    C795    1.416   1_554 S
C23    C798    1.409   1_554 S
C24    C25     1.408   .     A
C24    C789    1.409   .     S
C24    C797    1.409   .     S
C25    C69     1.483   .     S
C25    C26     1.407   .     A
C26    C84     1.489   .     S
C27    H30     1.073   .     S
C28    C45     1.489   .     S
C31    C37     1.399   .     A
C31    H32     1.083   .     S
C31    C291    1.381   .     S
C33    C34     1.411   .     A
C33    C48     1.486   .     S
C33    C547    1.381   1_545 S
C34    C35     1.413   .     A
C35    C51     1.497   .     S
C35    C552    1.394   1_545 S
C36    C37     1.411   .     A
C36    C54     1.498   .     S
C36    C293    1.394   .     S
C38    C58     1.485   .     S
C38    N44     1.375   .     A
C38    C125    1.427   .     S
C39    C61     1.476   .     S
C39    N40     1.374   .     A
C39    C210    1.427   1_455 S
N40    C41     1.371   .     A
C41    C65     1.463   .     S
C41    C214    1.415   1_455 S
C42    N44     1.358   .     A
C42    H43     1.077   .     S
C42    C127    1.415   .     S
C45    O47     1.221   .     D
C45    H46     1.079   .     S
C48    O50     1.221   .     D
C48    H49     1.083   .     S
C51    O53     1.219   .     D
C51    H52     1.079   .     S
C54    O56     1.398   .     S
C54    O55     1.223   .     D
O56    H57     1.012   .     S
C58    O60     1.221   .     D
C58    H59     1.073   .     S
C61    O63     1.392   .     S
C61    O62     1.218   .     D
O63    H64     1.014   .     S
C65    O67     1.391   .     S
C65    O66     1.221   .     D
O67    H68     1.014   .     S
C69    O71     1.396   .     S
C69    O70     1.221   .     D
O71    H72     1.013   .     S
C73    O74     1.222   .     D
C73    O75     1.398   .     S
O75    H76     1.014   .     S
C77    O78     1.222   .     D
C77    O79     1.396   .     S
O79    H80     1.012   .     S
C81    O83     1.221   .     D
C81    C793    1.487   1_554 S
C81    H254    1.083   1_455 S
H82    C167    1.083   .     S
C84    O86     1.222   .     D
C84    H85     1.082   .     S
O87    Zn93    1.998   .     S
O87    C89     1.290   .     A
O88    Zn94    1.992   .     S
O88    C89     1.290   .     A
C89    C123    1.442   .     S
O90    Zn93    1.980   .     S
O90    C92     1.308   .     A
O91    C92     1.290   .     A
O91    Zn94    1.974   .     S
C92    C115    1.486   .     S
Zn93   O97     1.974   .     S
Zn93   N126    2.014   .     S
Zn93   O95     1.992   .     S
Zn94   O98     1.980   .     S
Zn94   N130    2.013   .     S
Zn94   O96     1.998   .     S
O95    C99     1.290   .     A
O96    C99     1.296   .     A
O97    C100    1.290   .     A
O98    C100    1.298   .     A
C99    C120    1.453   .     S
C100   C103    1.468   .     S
C101   H102    1.076   .     S
C101   C114    1.408   .     A
C101   C884    1.409   1_554 S
C103   C113    1.395   .     A
C103   C114    1.420   .     A
C104   C105    1.414   .     A
C104   C115    1.419   .     A
C104   C159    1.481   .     S
C105   C880    1.414   .     S
C105   C941    1.487   .     S
C106   C163    1.490   .     S
C106   C879    1.414   1_554 S
C106   C881    1.419   1_554 S
C107   C108    1.406   .     A
C107   C880    1.419   .     S
C107   C883    1.416   .     S
C108   C115    1.424   .     A
C108   C112    1.426   .     A
C109   C113    1.382   .     A
C109   C881    1.416   1_554 S
C109   C884    1.409   1_554 S
C110   C111    1.408   .     A
C110   C875    1.409   .     S
C110   C883    1.409   .     S
C111   C155    1.483   .     S
C111   C112    1.407   .     A
C112   C170    1.489   .     S
C113   H116    1.073   .     S
C114   C131    1.489   .     S
C117   C123    1.399   .     A
C117   H118    1.083   .     S
C117   C377    1.381   .     S
C119   C120    1.411   .     A
C119   C134    1.486   .     S
C119   C633    1.381   1_545 S
C120   C121    1.413   .     A
C121   C137    1.497   .     S
C121   C638    1.394   1_545 S
C122   C123    1.411   .     A
C122   C140    1.498   .     S
C122   C379    1.394   .     S
C124   C144    1.485   .     S
C124   N130    1.375   .     A
C124   C211    1.427   .     S
C125   C147    1.476   .     S
C125   N126    1.374   .     A
N126   C127    1.371   .     A
C127   C151    1.463   .     S
C128   N130    1.358   .     A
C128   H129    1.077   .     S
C128   C213    1.415   .     S
C131   O133    1.221   .     D
C131   H132    1.079   .     S
C134   O136    1.221   .     D
C134   H135    1.083   .     S
C137   O139    1.219   .     D
C137   H138    1.079   .     S
C140   O142    1.398   .     S
C140   O141    1.223   .     D
O142   H143    1.012   .     S
C144   O146    1.221   .     D
C144   H145    1.073   .     S
C147   O149    1.392   .     S
C147   O148    1.218   .     D
O149   H150    1.014   .     S
C151   O153    1.391   .     S
C151   O152    1.221   .     D
O153   H154    1.014   .     S
C155   O157    1.396   .     S
C155   O156    1.221   .     D
O157   H158    1.013   .     S
C159   O160    1.222   .     D
C159   O161    1.398   .     S
O161   H162    1.014   .     S
C163   O164    1.222   .     D
C163   O165    1.396   .     S
O165   H166    1.012   .     S
C167   O169    1.221   .     D
C167   C879    1.487   1_554 S
H168   C253    1.083   .     S
C170   O172    1.222   .     D
C170   H171    1.082   .     S
O173   Zn179   1.998   .     S
O173   C175    1.290   .     A
O174   Zn180   1.992   .     S
O174   C175    1.290   .     A
C175   C209    1.442   .     S
O176   Zn179   1.980   .     S
O176   C178    1.308   .     A
O177   C178    1.290   .     A
O177   Zn180   1.974   .     S
C178   C201    1.486   .     S
Zn179  O183    1.974   .     S
Zn179  N212    2.014   .     S
Zn179  O181    1.992   .     S
Zn180  O184    1.980   .     S
Zn180  N216    2.013   .     S
Zn180  O182    1.998   .     S
O181   C185    1.290   .     A
O182   C185    1.296   .     A
O183   C186    1.290   .     A
O184   C186    1.298   .     A
C185   C206    1.453   .     S
C186   C189    1.468   .     S
C187   H188    1.076   .     S
C187   C200    1.408   .     A
C187   C970    1.409   1_554 S
C189   C199    1.395   .     A
C189   C200    1.420   .     A
C190   C191    1.414   .     A
C190   C201    1.419   .     A
C190   C245    1.481   .     S
C191   C966    1.414   .     S
C191   C1027   1.487   .     S
C192   C249    1.490   .     S
C192   C965    1.414   1_554 S
C192   C967    1.419   1_554 S
C193   C194    1.406   .     A
C193   C966    1.419   .     S
C193   C969    1.416   .     S
C194   C201    1.424   .     A
C194   C198    1.426   .     A
C195   C199    1.382   .     A
C195   C967    1.416   1_554 S
C195   C970    1.409   1_554 S
C196   C197    1.408   .     A
C196   C961    1.409   .     S
C196   C969    1.409   .     S
C197   C241    1.483   .     S
C197   C198    1.407   .     A
C198   C256    1.489   .     S
C199   H202    1.073   .     S
C200   C217    1.489   .     S
C203   C209    1.399   .     A
C203   H204    1.083   .     S
C203   C463    1.381   .     S
C205   C206    1.411   .     A
C205   C220    1.486   .     S
C205   C719    1.381   1_545 S
C206   C207    1.413   .     A
C207   C223    1.497   .     S
C207   C724    1.394   1_545 S
C208   C209    1.411   .     A
C208   C226    1.498   .     S
C208   C465    1.394   .     S
C210   C230    1.485   .     S
C210   N216    1.375   .     A
C210   C39     1.427   1_655 S
C211   C233    1.476   .     S
C211   N212    1.374   .     A
N212   C213    1.371   .     A
C213   C237    1.463   .     S
C214   N216    1.358   .     A
C214   H215    1.077   .     S
C214   C41     1.415   1_655 S
C217   O219    1.221   .     D
C217   H218    1.079   .     S
C220   O222    1.221   .     D
C220   H221    1.083   .     S
C223   O225    1.219   .     D
C223   H224    1.079   .     S
C226   O228    1.398   .     S
C226   O227    1.223   .     D
O228   H229    1.012   .     S
C230   O232    1.221   .     D
C230   H231    1.073   .     S
C233   O235    1.392   .     S
C233   O234    1.218   .     D
O235   H236    1.014   .     S
C237   O239    1.391   .     S
C237   O238    1.221   .     D
O239   H240    1.014   .     S
C241   O243    1.396   .     S
C241   O242    1.221   .     D
O243   H244    1.013   .     S
C245   O246    1.222   .     D
C245   O247    1.398   .     S
O247   H248    1.014   .     S
C249   O250    1.222   .     D
C249   O251    1.396   .     S
O251   H252    1.012   .     S
C253   O255    1.221   .     D
C253   C965    1.487   1_554 S
H254   C81     1.083   1_655 S
C256   O258    1.222   .     D
C256   H257    1.082   .     S
O259   Zn265   1.998   .     S
O259   C261    1.290   .     A
O260   Zn266   1.992   .     S
O260   C261    1.290   .     A
C261   C295    1.442   .     S
O262   Zn265   1.980   .     S
O262   C264    1.308   .     A
O263   C264    1.290   .     A
O263   Zn266   1.974   .     S
C264   C287    1.486   .     S
Zn265  O269    1.974   .     S
Zn265  N298    2.014   .     S
Zn265  O267    1.992   .     S
Zn266  O270    1.980   .     S
Zn266  N302    2.013   .     S
Zn266  O268    1.998   .     S
O267   C271    1.290   .     A
O268   C271    1.296   .     A
O269   C272    1.290   .     A
O270   C272    1.298   .     A
C271   C292    1.453   .     S
C272   C275    1.468   .     S
C273   H274    1.076   .     S
C273   C286    1.408   .     A
C273   C1056   1.409   1_554 S
C275   C285    1.395   .     A
C275   C286    1.420   .     A
C276   C277    1.414   .     A
C276   C287    1.419   .     A
C276   C331    1.481   .     S
C277   C1052   1.414   .     S
C277   C1113   1.487   .     S
C278   C335    1.490   .     S
C278   C1051   1.414   1_554 S
C278   C1053   1.419   1_554 S
C279   C280    1.406   .     A
C279   C1052   1.419   .     S
C279   C1055   1.416   .     S
C280   C287    1.424   .     A
C280   C284    1.426   .     A
C281   C285    1.382   .     A
C281   C1053   1.416   1_554 S
C281   C1056   1.409   1_554 S
C282   C283    1.408   .     A
C282   C1047   1.409   .     S
C282   C1055   1.409   .     S
C283   C327    1.483   .     S
C283   C284    1.407   .     A
C284   C342    1.489   .     S
C285   H288    1.073   .     S
C286   C303    1.489   .     S
C289   C295    1.399   .     A
C289   H290    1.083   .     S
C289   C549    1.381   .     S
C291   C292    1.411   .     A
C291   C306    1.486   .     S
C292   C293    1.413   .     A
C293   C309    1.497   .     S
C294   C295    1.411   .     A
C294   C312    1.498   .     S
C294   C551    1.394   .     S
C296   C316    1.485   .     S
C296   N302    1.375   .     A
C296   C383    1.427   .     S
C297   C319    1.476   .     S
C297   N298    1.374   .     A
C297   C468    1.427   1_455 S
N298   C299    1.371   .     A
C299   C323    1.463   .     S
C299   C472    1.415   1_455 S
C300   N302    1.358   .     A
C300   H301    1.077   .     S
C300   C385    1.415   .     S
C303   O305    1.221   .     D
C303   H304    1.079   .     S
C306   O308    1.221   .     D
C306   H307    1.083   .     S
C309   O311    1.219   .     D
C309   H310    1.079   .     S
C312   O314    1.398   .     S
C312   O313    1.223   .     D
O314   H315    1.012   .     S
C316   O318    1.221   .     D
C316   H317    1.073   .     S
C319   O321    1.392   .     S
C319   O320    1.218   .     D
O321   H322    1.014   .     S
C323   O325    1.391   .     S
C323   O324    1.221   .     D
O325   H326    1.014   .     S
C327   O329    1.396   .     S
C327   O328    1.221   .     D
O329   H330    1.013   .     S
C331   O332    1.222   .     D
C331   O333    1.398   .     S
O333   H334    1.014   .     S
C335   O336    1.222   .     D
C335   O337    1.396   .     S
O337   H338    1.012   .     S
C339   O341    1.221   .     D
C339   C1051   1.487   1_554 S
C339   H512    1.083   1_455 S
H340   C425    1.083   .     S
C342   O344    1.222   .     D
C342   H343    1.082   .     S
O345   Zn351   1.998   .     S
O345   C347    1.290   .     A
O346   Zn352   1.992   .     S
O346   C347    1.290   .     A
C347   C381    1.442   .     S
O348   Zn351   1.980   .     S
O348   C350    1.308   .     A
O349   C350    1.290   .     A
O349   Zn352   1.974   .     S
C350   C373    1.486   .     S
Zn351  O355    1.974   .     S
Zn351  N384    2.014   .     S
Zn351  O353    1.992   .     S
Zn352  O356    1.980   .     S
Zn352  N388    2.013   .     S
Zn352  O354    1.998   .     S
O353   C357    1.290   .     A
O354   C357    1.296   .     A
O355   C358    1.290   .     A
O356   C358    1.298   .     A
C357   C378    1.453   .     S
C358   C361    1.468   .     S
C359   H360    1.076   .     S
C359   C372    1.408   .     A
C359   C1142   1.409   1_554 S
C361   C371    1.395   .     A
C361   C372    1.420   .     A
C362   C363    1.414   .     A
C362   C373    1.419   .     A
C362   C417    1.481   .     S
C363   C1138   1.414   .     S
C363   C1199   1.487   .     S
C364   C421    1.490   .     S
C364   C1137   1.414   1_554 S
C364   C1139   1.419   1_554 S
C365   C366    1.406   .     A
C365   C1138   1.419   .     S
C365   C1141   1.416   .     S
C366   C373    1.424   .     A
C366   C370    1.426   .     A
C367   C371    1.382   .     A
C367   C1139   1.416   1_554 S
C367   C1142   1.409   1_554 S
C368   C369    1.408   .     A
C368   C1133   1.409   .     S
C368   C1141   1.409   .     S
C369   C413    1.483   .     S
C369   C370    1.407   .     A
C370   C428    1.489   .     S
C371   H374    1.073   .     S
C372   C389    1.489   .     S
C375   C381    1.399   .     A
C375   H376    1.083   .     S
C375   C635    1.381   .     S
C377   C378    1.411   .     A
C377   C392    1.486   .     S
C378   C379    1.413   .     A
C379   C395    1.497   .     S
C380   C381    1.411   .     A
C380   C398    1.498   .     S
C380   C637    1.394   .     S
C382   C402    1.485   .     S
C382   N388    1.375   .     A
C382   C469    1.427   .     S
C383   C405    1.476   .     S
C383   N384    1.374   .     A
N384   C385    1.371   .     A
C385   C409    1.463   .     S
C386   N388    1.358   .     A
C386   H387    1.077   .     S
C386   C471    1.415   .     S
C389   O391    1.221   .     D
C389   H390    1.079   .     S
C392   O394    1.221   .     D
C392   H393    1.083   .     S
C395   O397    1.219   .     D
C395   H396    1.079   .     S
C398   O400    1.398   .     S
C398   O399    1.223   .     D
O400   H401    1.012   .     S
C402   O404    1.221   .     D
C402   H403    1.073   .     S
C405   O407    1.392   .     S
C405   O406    1.218   .     D
O407   H408    1.014   .     S
C409   O411    1.391   .     S
C409   O410    1.221   .     D
O411   H412    1.014   .     S
C413   O415    1.396   .     S
C413   O414    1.221   .     D
O415   H416    1.013   .     S
C417   O418    1.222   .     D
C417   O419    1.398   .     S
O419   H420    1.014   .     S
C421   O422    1.222   .     D
C421   O423    1.396   .     S
O423   H424    1.012   .     S
C425   O427    1.221   .     D
C425   C1137   1.487   1_554 S
H426   C511    1.083   .     S
C428   O430    1.222   .     D
C428   H429    1.082   .     S
O431   Zn437   1.998   .     S
O431   C433    1.290   .     A
O432   Zn438   1.992   .     S
O432   C433    1.290   .     A
C433   C467    1.442   .     S
O434   Zn437   1.980   .     S
O434   C436    1.308   .     A
O435   C436    1.290   .     A
O435   Zn438   1.974   .     S
C436   C459    1.486   .     S
Zn437  O441    1.974   .     S
Zn437  N470    2.014   .     S
Zn437  O439    1.992   .     S
Zn438  O442    1.980   .     S
Zn438  N474    2.013   .     S
Zn438  O440    1.998   .     S
O439   C443    1.290   .     A
O440   C443    1.296   .     A
O441   C444    1.290   .     A
O442   C444    1.298   .     A
C443   C464    1.453   .     S
C444   C447    1.468   .     S
C445   H446    1.076   .     S
C445   C458    1.408   .     A
C445   C1228   1.409   1_554 S
C447   C457    1.395   .     A
C447   C458    1.420   .     A
C448   C449    1.414   .     A
C448   C459    1.419   .     A
C448   C503    1.481   .     S
C449   C1224   1.414   .     S
C449   C1285   1.487   .     S
C450   C507    1.490   .     S
C450   C1223   1.414   1_554 S
C450   C1225   1.419   1_554 S
C451   C452    1.406   .     A
C451   C1224   1.419   .     S
C451   C1227   1.416   .     S
C452   C459    1.424   .     A
C452   C456    1.426   .     A
C453   C457    1.382   .     A
C453   C1225   1.416   1_554 S
C453   C1228   1.409   1_554 S
C454   C455    1.408   .     A
C454   C1219   1.409   .     S
C454   C1227   1.409   .     S
C455   C499    1.483   .     S
C455   C456    1.407   .     A
C456   C514    1.489   .     S
C457   H460    1.073   .     S
C458   C475    1.489   .     S
C461   C467    1.399   .     A
C461   H462    1.083   .     S
C461   C721    1.381   .     S
C463   C464    1.411   .     A
C463   C478    1.486   .     S
C464   C465    1.413   .     A
C465   C481    1.497   .     S
C466   C467    1.411   .     A
C466   C484    1.498   .     S
C466   C723    1.394   .     S
C468   C488    1.485   .     S
C468   N474    1.375   .     A
C468   C297    1.427   1_655 S
C469   C491    1.476   .     S
C469   N470    1.374   .     A
N470   C471    1.371   .     A
C471   C495    1.463   .     S
C472   N474    1.358   .     A
C472   H473    1.077   .     S
C472   C299    1.415   1_655 S
C475   O477    1.221   .     D
C475   H476    1.079   .     S
C478   O480    1.221   .     D
C478   H479    1.083   .     S
C481   O483    1.219   .     D
C481   H482    1.079   .     S
C484   O486    1.398   .     S
C484   O485    1.223   .     D
O486   H487    1.012   .     S
C488   O490    1.221   .     D
C488   H489    1.073   .     S
C491   O493    1.392   .     S
C491   O492    1.218   .     D
O493   H494    1.014   .     S
C495   O497    1.391   .     S
C495   O496    1.221   .     D
O497   H498    1.014   .     S
C499   O501    1.396   .     S
C499   O500    1.221   .     D
O501   H502    1.013   .     S
C503   O504    1.222   .     D
C503   O505    1.398   .     S
O505   H506    1.014   .     S
C507   O508    1.222   .     D
C507   O509    1.396   .     S
O509   H510    1.012   .     S
C511   O513    1.221   .     D
C511   C1223   1.487   1_554 S
H512   C339    1.083   1_655 S
C514   O516    1.222   .     D
C514   H515    1.082   .     S
O517   Zn523   1.998   .     S
O517   C519    1.290   .     A
O518   Zn524   1.992   .     S
O518   C519    1.290   .     A
C519   C553    1.442   .     S
O520   Zn523   1.980   .     S
O520   C522    1.308   .     A
O521   C522    1.290   .     A
O521   Zn524   1.974   .     S
C522   C545    1.486   .     S
Zn523  O527    1.974   .     S
Zn523  N556    2.014   .     S
Zn523  O525    1.992   .     S
Zn524  O528    1.980   .     S
Zn524  N560    2.013   .     S
Zn524  O526    1.998   .     S
O525   C529    1.290   .     A
O526   C529    1.296   .     A
O527   C530    1.290   .     A
O528   C530    1.298   .     A
C529   C550    1.453   .     S
C530   C533    1.468   .     S
C531   H532    1.076   .     S
C531   C544    1.408   .     A
C531   C1314   1.409   1_554 S
C533   C543    1.395   .     A
C533   C544    1.420   .     A
C534   C535    1.414   .     A
C534   C545    1.419   .     A
C534   C589    1.481   .     S
C535   C1310   1.414   .     S
C535   C1371   1.487   .     S
C536   C593    1.490   .     S
C536   C1309   1.414   1_554 S
C536   C1311   1.419   1_554 S
C537   C538    1.406   .     A
C537   C1310   1.419   .     S
C537   C1313   1.416   .     S
C538   C545    1.424   .     A
C538   C542    1.426   .     A
C539   C543    1.382   .     A
C539   C1311   1.416   1_554 S
C539   C1314   1.409   1_554 S
C540   C541    1.408   .     A
C540   C1305   1.409   .     S
C540   C1313   1.409   .     S
C541   C585    1.483   .     S
C541   C542    1.407   .     A
C542   C600    1.489   .     S
C543   H546    1.073   .     S
C544   C561    1.489   .     S
C547   C553    1.399   .     A
C547   H548    1.083   .     S
C547   C33     1.381   1_565 S
C549   C550    1.411   .     A
C549   C564    1.486   .     S
C550   C551    1.413   .     A
C551   C567    1.497   .     S
C552   C553    1.411   .     A
C552   C570    1.498   .     S
C552   C35     1.394   1_565 S
C554   C574    1.485   .     S
C554   N560    1.375   .     A
C554   C641    1.427   .     S
C555   C577    1.476   .     S
C555   N556    1.374   .     A
C555   C726    1.427   1_455 S
N556   C557    1.371   .     A
C557   C581    1.463   .     S
C557   C730    1.415   1_455 S
C558   N560    1.358   .     A
C558   H559    1.077   .     S
C558   C643    1.415   .     S
C561   O563    1.221   .     D
C561   H562    1.079   .     S
C564   O566    1.221   .     D
C564   H565    1.083   .     S
C567   O569    1.219   .     D
C567   H568    1.079   .     S
C570   O572    1.398   .     S
C570   O571    1.223   .     D
O572   H573    1.012   .     S
C574   O576    1.221   .     D
C574   H575    1.073   .     S
C577   O579    1.392   .     S
C577   O578    1.218   .     D
O579   H580    1.014   .     S
C581   O583    1.391   .     S
C581   O582    1.221   .     D
O583   H584    1.014   .     S
C585   O587    1.396   .     S
C585   O586    1.221   .     D
O587   H588    1.013   .     S
C589   O590    1.222   .     D
C589   O591    1.398   .     S
O591   H592    1.014   .     S
C593   O594    1.222   .     D
C593   O595    1.396   .     S
O595   H596    1.012   .     S
C597   O599    1.221   .     D
C597   C1309   1.487   1_554 S
C597   H770    1.083   1_455 S
H598   C683    1.083   .     S
C600   O602    1.222   .     D
C600   H601    1.082   .     S
O603   Zn609   1.998   .     S
O603   C605    1.290   .     A
O604   Zn610   1.992   .     S
O604   C605    1.290   .     A
C605   C639    1.442   .     S
O606   Zn609   1.980   .     S
O606   C608    1.308   .     A
O607   C608    1.290   .     A
O607   Zn610   1.974   .     S
C608   C631    1.486   .     S
Zn609  O613    1.974   .     S
Zn609  N642    2.014   .     S
Zn609  O611    1.992   .     S
Zn610  O614    1.980   .     S
Zn610  N646    2.013   .     S
Zn610  O612    1.998   .     S
O611   C615    1.290   .     A
O612   C615    1.296   .     A
O613   C616    1.290   .     A
O614   C616    1.298   .     A
C615   C636    1.453   .     S
C616   C619    1.468   .     S
C617   H618    1.076   .     S
C617   C630    1.408   .     A
C617   C1400   1.409   1_554 S
C619   C629    1.395   .     A
C619   C630    1.420   .     A
C620   C621    1.414   .     A
C620   C631    1.419   .     A
C620   C675    1.481   .     S
C621   C1396   1.414   .     S
C621   C1457   1.487   .     S
C622   C679    1.490   .     S
C622   C1395   1.414   1_554 S
C622   C1397   1.419   1_554 S
C623   C624    1.406   .     A
C623   C1396   1.419   .     S
C623   C1399   1.416   .     S
C624   C631    1.424   .     A
C624   C628    1.426   .     A
C625   C629    1.382   .     A
C625   C1397   1.416   1_554 S
C625   C1400   1.409   1_554 S
C626   C627    1.408   .     A
C626   C1391   1.409   .     S
C626   C1399   1.409   .     S
C627   C671    1.483   .     S
C627   C628    1.407   .     A
C628   C686    1.489   .     S
C629   H632    1.073   .     S
C630   C647    1.489   .     S
C633   C639    1.399   .     A
C633   H634    1.083   .     S
C633   C119    1.381   1_565 S
C635   C636    1.411   .     A
C635   C650    1.486   .     S
C636   C637    1.413   .     A
C637   C653    1.497   .     S
C638   C639    1.411   .     A
C638   C656    1.498   .     S
C638   C121    1.394   1_565 S
C640   C660    1.485   .     S
C640   N646    1.375   .     A
C640   C727    1.427   .     S
C641   C663    1.476   .     S
C641   N642    1.374   .     A
N642   C643    1.371   .     A
C643   C667    1.463   .     S
C644   N646    1.358   .     A
C644   H645    1.077   .     S
C644   C729    1.415   .     S
C647   O649    1.221   .     D
C647   H648    1.079   .     S
C650   O652    1.221   .     D
C650   H651    1.083   .     S
C653   O655    1.219   .     D
C653   H654    1.079   .     S
C656   O658    1.398   .     S
C656   O657    1.223   .     D
O658   H659    1.012   .     S
C660   O662    1.221   .     D
C660   H661    1.073   .     S
C663   O665    1.392   .     S
C663   O664    1.218   .     D
O665   H666    1.014   .     S
C667   O669    1.391   .     S
C667   O668    1.221   .     D
O669   H670    1.014   .     S
C671   O673    1.396   .     S
C671   O672    1.221   .     D
O673   H674    1.013   .     S
C675   O676    1.222   .     D
C675   O677    1.398   .     S
O677   H678    1.014   .     S
C679   O680    1.222   .     D
C679   O681    1.396   .     S
O681   H682    1.012   .     S
C683   O685    1.221   .     D
C683   C1395   1.487   1_554 S
H684   C769    1.083   .     S
C686   O688    1.222   .     D
C686   H687    1.082   .     S
O689   Zn695   1.998   .     S
O689   C691    1.290   .     A
O690   Zn696   1.992   .     S
O690   C691    1.290   .     A
C691   C725    1.442   .     S
O692   Zn695   1.980   .     S
O692   C694    1.308   .     A
O693   C694    1.290   .     A
O693   Zn696   1.974   .     S
C694   C717    1.486   .     S
Zn695  O699    1.974   .     S
Zn695  N728    2.014   .     S
Zn695  O697    1.992   .     S
Zn696  O700    1.980   .     S
Zn696  N732    2.013   .     S
Zn696  O698    1.998   .     S
O697   C701    1.290   .     A
O698   C701    1.296   .     A
O699   C702    1.290   .     A
O700   C702    1.298   .     A
C701   C722    1.453   .     S
C702   C705    1.468   .     S
C703   H704    1.076   .     S
C703   C716    1.408   .     A
C703   C1486   1.409   1_554 S
C705   C715    1.395   .     A
C705   C716    1.420   .     A
C706   C707    1.414   .     A
C706   C717    1.419   .     A
C706   C761    1.481   .     S
C707   C1482   1.414   .     S
C707   C1543   1.487   .     S
C708   C765    1.490   .     S
C708   C1481   1.414   1_554 S
C708   C1483   1.419   1_554 S
C709   C710    1.406   .     A
C709   C1482   1.419   .     S
C709   C1485   1.416   .     S
C710   C717    1.424   .     A
C710   C714    1.426   .     A
C711   C715    1.382   .     A
C711   C1483   1.416   1_554 S
C711   C1486   1.409   1_554 S
C712   C713    1.408   .     A
C712   C1477   1.409   .     S
C712   C1485   1.409   .     S
C713   C757    1.483   .     S
C713   C714    1.407   .     A
C714   C772    1.489   .     S
C715   H718    1.073   .     S
C716   C733    1.489   .     S
C719   C725    1.399   .     A
C719   H720    1.083   .     S
C719   C205    1.381   1_565 S
C721   C722    1.411   .     A
C721   C736    1.486   .     S
C722   C723    1.413   .     A
C723   C739    1.497   .     S
C724   C725    1.411   .     A
C724   C742    1.498   .     S
C724   C207    1.394   1_565 S
C726   C746    1.485   .     S
C726   N732    1.375   .     A
C726   C555    1.427   1_655 S
C727   C749    1.476   .     S
C727   N728    1.374   .     A
N728   C729    1.371   .     A
C729   C753    1.463   .     S
C730   N732    1.358   .     A
C730   H731    1.077   .     S
C730   C557    1.415   1_655 S
C733   O735    1.221   .     D
C733   H734    1.079   .     S
C736   O738    1.221   .     D
C736   H737    1.083   .     S
C739   O741    1.219   .     D
C739   H740    1.079   .     S
C742   O744    1.398   .     S
C742   O743    1.223   .     D
O744   H745    1.012   .     S
C746   O748    1.221   .     D
C746   H747    1.073   .     S
C749   O751    1.392   .     S
C749   O750    1.218   .     D
O751   H752    1.014   .     S
C753   O755    1.391   .     S
C753   O754    1.221   .     D
O755   H756    1.014   .     S
C757   O759    1.396   .     S
C757   O758    1.221   .     D
O759   H760    1.013   .     S
C761   O762    1.222   .     D
C761   O763    1.398   .     S
O763   H764    1.014   .     S
C765   O766    1.222   .     D
C765   O767    1.396   .     S
O767   H768    1.012   .     S
C769   O771    1.221   .     D
C769   C1481   1.487   1_554 S
H770   C597    1.083   1_655 S
C772   O774    1.222   .     D
C772   H773    1.082   .     S
O775   Zn781   1.998   .     S
O775   C777    1.290   .     A
O776   Zn782   1.992   .     S
O776   C777    1.290   .     A
C777   C811    1.442   .     S
O778   Zn781   1.980   .     S
O778   C780    1.308   .     A
O779   C780    1.290   .     A
O779   Zn782   1.974   .     S
C780   C803    1.486   .     S
Zn781  O785    1.974   .     S
Zn781  N814    2.014   .     S
Zn781  O783    1.992   .     S
Zn782  O786    1.980   .     S
Zn782  N818    2.013   .     S
Zn782  O784    1.998   .     S
O783   C787    1.290   .     A
O784   C787    1.296   .     A
O785   C788    1.290   .     A
O786   C788    1.298   .     A
C787   C808    1.453   .     S
C788   C791    1.468   .     S
C789   H790    1.076   .     S
C789   C802    1.408   .     A
C791   C801    1.395   .     A
C791   C802    1.420   .     A
C792   C793    1.414   .     A
C792   C803    1.419   .     A
C792   C847    1.481   .     S
C793   C20     1.414   1_556 S
C793   C81     1.487   1_556 S
C794   C851    1.490   .     S
C795   C796    1.406   .     A
C795   C20     1.419   1_556 S
C795   C23     1.416   1_556 S
C796   C803    1.424   .     A
C796   C800    1.426   .     A
C797   C801    1.382   .     A
C798   C799    1.408   .     A
C798   C15     1.409   1_556 S
C798   C23     1.409   1_556 S
C799   C843    1.483   .     S
C799   C800    1.407   .     A
C800   C858    1.489   .     S
C801   H804    1.073   .     S
C802   C819    1.489   .     S
C805   C811    1.399   .     A
C805   H806    1.083   .     S
C805   C1065   1.381   .     S
C807   C808    1.411   .     A
C807   C822    1.486   .     S
C807   C1321   1.381   1_545 S
C808   C809    1.413   .     A
C809   C825    1.497   .     S
C809   C1326   1.394   1_545 S
C810   C811    1.411   .     A
C810   C828    1.498   .     S
C810   C1067   1.394   .     S
C812   C832    1.485   .     S
C812   N818    1.375   .     A
C812   C899    1.427   .     S
C813   C835    1.476   .     S
C813   N814    1.374   .     A
C813   C984    1.427   1_455 S
N814   C815    1.371   .     A
C815   C839    1.463   .     S
C815   C988    1.415   1_455 S
C816   N818    1.358   .     A
C816   H817    1.077   .     S
C816   C901    1.415   .     S
C819   O821    1.221   .     D
C819   H820    1.079   .     S
C822   O824    1.221   .     D
C822   H823    1.083   .     S
C825   O827    1.219   .     D
C825   H826    1.079   .     S
C828   O830    1.398   .     S
C828   O829    1.223   .     D
O830   H831    1.012   .     S
C832   O834    1.221   .     D
C832   H833    1.073   .     S
C835   O837    1.392   .     S
C835   O836    1.218   .     D
O837   H838    1.014   .     S
C839   O841    1.391   .     S
C839   O840    1.221   .     D
O841   H842    1.014   .     S
C843   O845    1.396   .     S
C843   O844    1.221   .     D
O845   H846    1.013   .     S
C847   O848    1.222   .     D
C847   O849    1.398   .     S
O849   H850    1.014   .     S
C851   O852    1.222   .     D
C851   O853    1.396   .     S
O853   H854    1.012   .     S
C855   O857    1.221   .     D
C855   H1028   1.083   1_455 S
H856   C941    1.083   .     S
C858   O860    1.222   .     D
C858   H859    1.082   .     S
O861   Zn867   1.998   .     S
O861   C863    1.290   .     A
O862   Zn868   1.992   .     S
O862   C863    1.290   .     A
C863   C897    1.442   .     S
O864   Zn867   1.980   .     S
O864   C866    1.308   .     A
O865   C866    1.290   .     A
O865   Zn868   1.974   .     S
C866   C889    1.486   .     S
Zn867  O871    1.974   .     S
Zn867  N900    2.014   .     S
Zn867  O869    1.992   .     S
Zn868  O872    1.980   .     S
Zn868  N904    2.013   .     S
Zn868  O870    1.998   .     S
O869   C873    1.290   .     A
O870   C873    1.296   .     A
O871   C874    1.290   .     A
O872   C874    1.298   .     A
C873   C894    1.453   .     S
C874   C877    1.468   .     S
C875   H876    1.076   .     S
C875   C888    1.408   .     A
C877   C887    1.395   .     A
C877   C888    1.420   .     A
C878   C879    1.414   .     A
C878   C889    1.419   .     A
C878   C933    1.481   .     S
C879   C106    1.414   1_556 S
C879   C167    1.487   1_556 S
C880   C937    1.490   .     S
C881   C882    1.406   .     A
C881   C106    1.419   1_556 S
C881   C109    1.416   1_556 S
C882   C889    1.424   .     A
C882   C886    1.426   .     A
C883   C887    1.382   .     A
C884   C885    1.408   .     A
C884   C101    1.409   1_556 S
C884   C109    1.409   1_556 S
C885   C929    1.483   .     S
C885   C886    1.407   .     A
C886   C944    1.489   .     S
C887   H890    1.073   .     S
C888   C905    1.489   .     S
C891   C897    1.399   .     A
C891   H892    1.083   .     S
C891   C1151   1.381   .     S
C893   C894    1.411   .     A
C893   C908    1.486   .     S
C893   C1407   1.381   1_545 S
C894   C895    1.413   .     A
C895   C911    1.497   .     S
C895   C1412   1.394   1_545 S
C896   C897    1.411   .     A
C896   C914    1.498   .     S
C896   C1153   1.394   .     S
C898   C918    1.485   .     S
C898   N904    1.375   .     A
C898   C985    1.427   .     S
C899   C921    1.476   .     S
C899   N900    1.374   .     A
N900   C901    1.371   .     A
C901   C925    1.463   .     S
C902   N904    1.358   .     A
C902   H903    1.077   .     S
C902   C987    1.415   .     S
C905   O907    1.221   .     D
C905   H906    1.079   .     S
C908   O910    1.221   .     D
C908   H909    1.083   .     S
C911   O913    1.219   .     D
C911   H912    1.079   .     S
C914   O916    1.398   .     S
C914   O915    1.223   .     D
O916   H917    1.012   .     S
C918   O920    1.221   .     D
C918   H919    1.073   .     S
C921   O923    1.392   .     S
C921   O922    1.218   .     D
O923   H924    1.014   .     S
C925   O927    1.391   .     S
C925   O926    1.221   .     D
O927   H928    1.014   .     S
C929   O931    1.396   .     S
C929   O930    1.221   .     D
O931   H932    1.013   .     S
C933   O934    1.222   .     D
C933   O935    1.398   .     S
O935   H936    1.014   .     S
C937   O938    1.222   .     D
C937   O939    1.396   .     S
O939   H940    1.012   .     S
C941   O943    1.221   .     D
H942   C1027   1.083   .     S
C944   O946    1.222   .     D
C944   H945    1.082   .     S
O947   Zn953   1.998   .     S
O947   C949    1.290   .     A
O948   Zn954   1.992   .     S
O948   C949    1.290   .     A
C949   C983    1.442   .     S
O950   Zn953   1.980   .     S
O950   C952    1.308   .     A
O951   C952    1.290   .     A
O951   Zn954   1.974   .     S
C952   C975    1.486   .     S
Zn953  O957    1.974   .     S
Zn953  N986    2.014   .     S
Zn953  O955    1.992   .     S
Zn954  O958    1.980   .     S
Zn954  N990    2.013   .     S
Zn954  O956    1.998   .     S
O955   C959    1.290   .     A
O956   C959    1.296   .     A
O957   C960    1.290   .     A
O958   C960    1.298   .     A
C959   C980    1.453   .     S
C960   C963    1.468   .     S
C961   H962    1.076   .     S
C961   C974    1.408   .     A
C963   C973    1.395   .     A
C963   C974    1.420   .     A
C964   C965    1.414   .     A
C964   C975    1.419   .     A
C964   C1019   1.481   .     S
C965   C192    1.414   1_556 S
C965   C253    1.487   1_556 S
C966   C1023   1.490   .     S
C967   C968    1.406   .     A
C967   C192    1.419   1_556 S
C967   C195    1.416   1_556 S
C968   C975    1.424   .     A
C968   C972    1.426   .     A
C969   C973    1.382   .     A
C970   C971    1.408   .     A
C970   C187    1.409   1_556 S
C970   C195    1.409   1_556 S
C971   C1015   1.483   .     S
C971   C972    1.407   .     A
C972   C1030   1.489   .     S
C973   H976    1.073   .     S
C974   C991    1.489   .     S
C977   C983    1.399   .     A
C977   H978    1.083   .     S
C977   C1237   1.381   .     S
C979   C980    1.411   .     A
C979   C994    1.486   .     S
C979   C1493   1.381   1_545 S
C980   C981    1.413   .     A
C981   C997    1.497   .     S
C981   C1498   1.394   1_545 S
C982   C983    1.411   .     A
C982   C1000   1.498   .     S
C982   C1239   1.394   .     S
C984   C1004   1.485   .     S
C984   N990    1.375   .     A
C984   C813    1.427   1_655 S
C985   C1007   1.476   .     S
C985   N986    1.374   .     A
N986   C987    1.371   .     A
C987   C1011   1.463   .     S
C988   N990    1.358   .     A
C988   H989    1.077   .     S
C988   C815    1.415   1_655 S
C991   O993    1.221   .     D
C991   H992    1.079   .     S
C994   O996    1.221   .     D
C994   H995    1.083   .     S
C997   O999    1.219   .     D
C997   H998    1.079   .     S
C1000  O1002   1.398   .     S
C1000  O1001   1.223   .     D
O1002  H1003   1.012   .     S
C1004  O1006   1.221   .     D
C1004  H1005   1.073   .     S
C1007  O1009   1.392   .     S
C1007  O1008   1.218   .     D
O1009  H1010   1.014   .     S
C1011  O1013   1.391   .     S
C1011  O1012   1.221   .     D
O1013  H1014   1.014   .     S
C1015  O1017   1.396   .     S
C1015  O1016   1.221   .     D
O1017  H1018   1.013   .     S
C1019  O1020   1.222   .     D
C1019  O1021   1.398   .     S
O1021  H1022   1.014   .     S
C1023  O1024   1.222   .     D
C1023  O1025   1.396   .     S
O1025  H1026   1.012   .     S
C1027  O1029   1.221   .     D
H1028  C855    1.083   1_655 S
C1030  O1032   1.222   .     D
C1030  H1031   1.082   .     S
O1033  Zn1039  1.998   .     S
O1033  C1035   1.290   .     A
O1034  Zn1040  1.992   .     S
O1034  C1035   1.290   .     A
C1035  C1069   1.442   .     S
O1036  Zn1039  1.980   .     S
O1036  C1038   1.308   .     A
O1037  C1038   1.290   .     A
O1037  Zn1040  1.974   .     S
C1038  C1061   1.486   .     S
Zn1039 O1043   1.974   .     S
Zn1039 N1072   2.014   .     S
Zn1039 O1041   1.992   .     S
Zn1040 O1044   1.980   .     S
Zn1040 N1076   2.013   .     S
Zn1040 O1042   1.998   .     S
O1041  C1045   1.290   .     A
O1042  C1045   1.296   .     A
O1043  C1046   1.290   .     A
O1044  C1046   1.298   .     A
C1045  C1066   1.453   .     S
C1046  C1049   1.468   .     S
C1047  H1048   1.076   .     S
C1047  C1060   1.408   .     A
C1049  C1059   1.395   .     A
C1049  C1060   1.420   .     A
C1050  C1051   1.414   .     A
C1050  C1061   1.419   .     A
C1050  C1105   1.481   .     S
C1051  C278    1.414   1_556 S
C1051  C339    1.487   1_556 S
C1052  C1109   1.490   .     S
C1053  C1054   1.406   .     A
C1053  C278    1.419   1_556 S
C1053  C281    1.416   1_556 S
C1054  C1061   1.424   .     A
C1054  C1058   1.426   .     A
C1055  C1059   1.382   .     A
C1056  C1057   1.408   .     A
C1056  C273    1.409   1_556 S
C1056  C281    1.409   1_556 S
C1057  C1101   1.483   .     S
C1057  C1058   1.407   .     A
C1058  C1116   1.489   .     S
C1059  H1062   1.073   .     S
C1060  C1077   1.489   .     S
C1063  C1069   1.399   .     A
C1063  H1064   1.083   .     S
C1063  C1323   1.381   .     S
C1065  C1066   1.411   .     A
C1065  C1080   1.486   .     S
C1066  C1067   1.413   .     A
C1067  C1083   1.497   .     S
C1068  C1069   1.411   .     A
C1068  C1086   1.498   .     S
C1068  C1325   1.394   .     S
C1070  C1090   1.485   .     S
C1070  N1076   1.375   .     A
C1070  C1157   1.427   .     S
C1071  C1093   1.476   .     S
C1071  N1072   1.374   .     A
C1071  C1242   1.427   1_455 S
N1072  C1073   1.371   .     A
C1073  C1097   1.463   .     S
C1073  C1246   1.415   1_455 S
C1074  N1076   1.358   .     A
C1074  H1075   1.077   .     S
C1074  C1159   1.415   .     S
C1077  O1079   1.221   .     D
C1077  H1078   1.079   .     S
C1080  O1082   1.221   .     D
C1080  H1081   1.083   .     S
C1083  O1085   1.219   .     D
C1083  H1084   1.079   .     S
C1086  O1088   1.398   .     S
C1086  O1087   1.223   .     D
O1088  H1089   1.012   .     S
C1090  O1092   1.221   .     D
C1090  H1091   1.073   .     S
C1093  O1095   1.392   .     S
C1093  O1094   1.218   .     D
O1095  H1096   1.014   .     S
C1097  O1099   1.391   .     S
C1097  O1098   1.221   .     D
O1099  H1100   1.014   .     S
C1101  O1103   1.396   .     S
C1101  O1102   1.221   .     D
O1103  H1104   1.013   .     S
C1105  O1106   1.222   .     D
C1105  O1107   1.398   .     S
O1107  H1108   1.014   .     S
C1109  O1110   1.222   .     D
C1109  O1111   1.396   .     S
O1111  H1112   1.012   .     S
C1113  O1115   1.221   .     D
C1113  H1286   1.083   1_455 S
H1114  C1199   1.083   .     S
C1116  O1118   1.222   .     D
C1116  H1117   1.082   .     S
O1119  Zn1125  1.998   .     S
O1119  C1121   1.290   .     A
O1120  Zn1126  1.992   .     S
O1120  C1121   1.290   .     A
C1121  C1155   1.442   .     S
O1122  Zn1125  1.980   .     S
O1122  C1124   1.308   .     A
O1123  C1124   1.290   .     A
O1123  Zn1126  1.974   .     S
C1124  C1147   1.486   .     S
Zn1125 O1129   1.974   .     S
Zn1125 N1158   2.014   .     S
Zn1125 O1127   1.992   .     S
Zn1126 O1130   1.980   .     S
Zn1126 N1162   2.013   .     S
Zn1126 O1128   1.998   .     S
O1127  C1131   1.290   .     A
O1128  C1131   1.296   .     A
O1129  C1132   1.290   .     A
O1130  C1132   1.298   .     A
C1131  C1152   1.453   .     S
C1132  C1135   1.468   .     S
C1133  H1134   1.076   .     S
C1133  C1146   1.408   .     A
C1135  C1145   1.395   .     A
C1135  C1146   1.420   .     A
C1136  C1137   1.414   .     A
C1136  C1147   1.419   .     A
C1136  C1191   1.481   .     S
C1137  C364    1.414   1_556 S
C1137  C425    1.487   1_556 S
C1138  C1195   1.490   .     S
C1139  C1140   1.406   .     A
C1139  C364    1.419   1_556 S
C1139  C367    1.416   1_556 S
C1140  C1147   1.424   .     A
C1140  C1144   1.426   .     A
C1141  C1145   1.382   .     A
C1142  C1143   1.408   .     A
C1142  C359    1.409   1_556 S
C1142  C367    1.409   1_556 S
C1143  C1187   1.483   .     S
C1143  C1144   1.407   .     A
C1144  C1202   1.489   .     S
C1145  H1148   1.073   .     S
C1146  C1163   1.489   .     S
C1149  C1155   1.399   .     A
C1149  H1150   1.083   .     S
C1149  C1409   1.381   .     S
C1151  C1152   1.411   .     A
C1151  C1166   1.486   .     S
C1152  C1153   1.413   .     A
C1153  C1169   1.497   .     S
C1154  C1155   1.411   .     A
C1154  C1172   1.498   .     S
C1154  C1411   1.394   .     S
C1156  C1176   1.485   .     S
C1156  N1162   1.375   .     A
C1156  C1243   1.427   .     S
C1157  C1179   1.476   .     S
C1157  N1158   1.374   .     A
N1158  C1159   1.371   .     A
C1159  C1183   1.463   .     S
C1160  N1162   1.358   .     A
C1160  H1161   1.077   .     S
C1160  C1245   1.415   .     S
C1163  O1165   1.221   .     D
C1163  H1164   1.079   .     S
C1166  O1168   1.221   .     D
C1166  H1167   1.083   .     S
C1169  O1171   1.219   .     D
C1169  H1170   1.079   .     S
C1172  O1174   1.398   .     S
C1172  O1173   1.223   .     D
O1174  H1175   1.012   .     S
C1176  O1178   1.221   .     D
C1176  H1177   1.073   .     S
C1179  O1181   1.392   .     S
C1179  O1180   1.218   .     D
O1181  H1182   1.014   .     S
C1183  O1185   1.391   .     S
C1183  O1184   1.221   .     D
O1185  H1186   1.014   .     S
C1187  O1189   1.396   .     S
C1187  O1188   1.221   .     D
O1189  H1190   1.013   .     S
C1191  O1192   1.222   .     D
C1191  O1193   1.398   .     S
O1193  H1194   1.014   .     S
C1195  O1196   1.222   .     D
C1195  O1197   1.396   .     S
O1197  H1198   1.012   .     S
C1199  O1201   1.221   .     D
H1200  C1285   1.083   .     S
C1202  O1204   1.222   .     D
C1202  H1203   1.082   .     S
O1205  Zn1211  1.998   .     S
O1205  C1207   1.290   .     A
O1206  Zn1212  1.992   .     S
O1206  C1207   1.290   .     A
C1207  C1241   1.442   .     S
O1208  Zn1211  1.980   .     S
O1208  C1210   1.308   .     A
O1209  C1210   1.290   .     A
O1209  Zn1212  1.974   .     S
C1210  C1233   1.486   .     S
Zn1211 O1215   1.974   .     S
Zn1211 N1244   2.014   .     S
Zn1211 O1213   1.992   .     S
Zn1212 O1216   1.980   .     S
Zn1212 N1248   2.013   .     S
Zn1212 O1214   1.998   .     S
O1213  C1217   1.290   .     A
O1214  C1217   1.296   .     A
O1215  C1218   1.290   .     A
O1216  C1218   1.298   .     A
C1217  C1238   1.453   .     S
C1218  C1221   1.468   .     S
C1219  H1220   1.076   .     S
C1219  C1232   1.408   .     A
C1221  C1231   1.395   .     A
C1221  C1232   1.420   .     A
C1222  C1223   1.414   .     A
C1222  C1233   1.419   .     A
C1222  C1277   1.481   .     S
C1223  C450    1.414   1_556 S
C1223  C511    1.487   1_556 S
C1224  C1281   1.490   .     S
C1225  C1226   1.406   .     A
C1225  C450    1.419   1_556 S
C1225  C453    1.416   1_556 S
C1226  C1233   1.424   .     A
C1226  C1230   1.426   .     A
C1227  C1231   1.382   .     A
C1228  C1229   1.408   .     A
C1228  C445    1.409   1_556 S
C1228  C453    1.409   1_556 S
C1229  C1273   1.483   .     S
C1229  C1230   1.407   .     A
C1230  C1288   1.489   .     S
C1231  H1234   1.073   .     S
C1232  C1249   1.489   .     S
C1235  C1241   1.399   .     A
C1235  H1236   1.083   .     S
C1235  C1495   1.381   .     S
C1237  C1238   1.411   .     A
C1237  C1252   1.486   .     S
C1238  C1239   1.413   .     A
C1239  C1255   1.497   .     S
C1240  C1241   1.411   .     A
C1240  C1258   1.498   .     S
C1240  C1497   1.394   .     S
C1242  C1262   1.485   .     S
C1242  N1248   1.375   .     A
C1242  C1071   1.427   1_655 S
C1243  C1265   1.476   .     S
C1243  N1244   1.374   .     A
N1244  C1245   1.371   .     A
C1245  C1269   1.463   .     S
C1246  N1248   1.358   .     A
C1246  H1247   1.077   .     S
C1246  C1073   1.415   1_655 S
C1249  O1251   1.221   .     D
C1249  H1250   1.079   .     S
C1252  O1254   1.221   .     D
C1252  H1253   1.083   .     S
C1255  O1257   1.219   .     D
C1255  H1256   1.079   .     S
C1258  O1260   1.398   .     S
C1258  O1259   1.223   .     D
O1260  H1261   1.012   .     S
C1262  O1264   1.221   .     D
C1262  H1263   1.073   .     S
C1265  O1267   1.392   .     S
C1265  O1266   1.218   .     D
O1267  H1268   1.014   .     S
C1269  O1271   1.391   .     S
C1269  O1270   1.221   .     D
O1271  H1272   1.014   .     S
C1273  O1275   1.396   .     S
C1273  O1274   1.221   .     D
O1275  H1276   1.013   .     S
C1277  O1278   1.222   .     D
C1277  O1279   1.398   .     S
O1279  H1280   1.014   .     S
C1281  O1282   1.222   .     D
C1281  O1283   1.396   .     S
O1283  H1284   1.012   .     S
C1285  O1287   1.221   .     D
H1286  C1113   1.083   1_655 S
C1288  O1290   1.222   .     D
C1288  H1289   1.082   .     S
O1291  Zn1297  1.998   .     S
O1291  C1293   1.290   .     A
O1292  Zn1298  1.992   .     S
O1292  C1293   1.290   .     A
C1293  C1327   1.442   .     S
O1294  Zn1297  1.980   .     S
O1294  C1296   1.308   .     A
O1295  C1296   1.290   .     A
O1295  Zn1298  1.974   .     S
C1296  C1319   1.486   .     S
Zn1297 O1301   1.974   .     S
Zn1297 N1330   2.014   .     S
Zn1297 O1299   1.992   .     S
Zn1298 O1302   1.980   .     S
Zn1298 N1334   2.013   .     S
Zn1298 O1300   1.998   .     S
O1299  C1303   1.290   .     A
O1300  C1303   1.296   .     A
O1301  C1304   1.290   .     A
O1302  C1304   1.298   .     A
C1303  C1324   1.453   .     S
C1304  C1307   1.468   .     S
C1305  H1306   1.076   .     S
C1305  C1318   1.408   .     A
C1307  C1317   1.395   .     A
C1307  C1318   1.420   .     A
C1308  C1309   1.414   .     A
C1308  C1319   1.419   .     A
C1308  C1363   1.481   .     S
C1309  C536    1.414   1_556 S
C1309  C597    1.487   1_556 S
C1310  C1367   1.490   .     S
C1311  C1312   1.406   .     A
C1311  C536    1.419   1_556 S
C1311  C539    1.416   1_556 S
C1312  C1319   1.424   .     A
C1312  C1316   1.426   .     A
C1313  C1317   1.382   .     A
C1314  C1315   1.408   .     A
C1314  C531    1.409   1_556 S
C1314  C539    1.409   1_556 S
C1315  C1359   1.483   .     S
C1315  C1316   1.407   .     A
C1316  C1374   1.489   .     S
C1317  H1320   1.073   .     S
C1318  C1335   1.489   .     S
C1321  C1327   1.399   .     A
C1321  H1322   1.083   .     S
C1321  C807    1.381   1_565 S
C1323  C1324   1.411   .     A
C1323  C1338   1.486   .     S
C1324  C1325   1.413   .     A
C1325  C1341   1.497   .     S
C1326  C1327   1.411   .     A
C1326  C1344   1.498   .     S
C1326  C809    1.394   1_565 S
C1328  C1348   1.485   .     S
C1328  N1334   1.375   .     A
C1328  C1415   1.427   .     S
C1329  C1351   1.476   .     S
C1329  N1330   1.374   .     A
C1329  C1500   1.427   1_455 S
N1330  C1331   1.371   .     A
C1331  C1355   1.463   .     S
C1331  C1504   1.415   1_455 S
C1332  N1334   1.358   .     A
C1332  H1333   1.077   .     S
C1332  C1417   1.415   .     S
C1335  O1337   1.221   .     D
C1335  H1336   1.079   .     S
C1338  O1340   1.221   .     D
C1338  H1339   1.083   .     S
C1341  O1343   1.219   .     D
C1341  H1342   1.079   .     S
C1344  O1346   1.398   .     S
C1344  O1345   1.223   .     D
O1346  H1347   1.012   .     S
C1348  O1350   1.221   .     D
C1348  H1349   1.073   .     S
C1351  O1353   1.392   .     S
C1351  O1352   1.218   .     D
O1353  H1354   1.014   .     S
C1355  O1357   1.391   .     S
C1355  O1356   1.221   .     D
O1357  H1358   1.014   .     S
C1359  O1361   1.396   .     S
C1359  O1360   1.221   .     D
O1361  H1362   1.013   .     S
C1363  O1364   1.222   .     D
C1363  O1365   1.398   .     S
O1365  H1366   1.014   .     S
C1367  O1368   1.222   .     D
C1367  O1369   1.396   .     S
O1369  H1370   1.012   .     S
C1371  O1373   1.221   .     D
C1371  H1544   1.083   1_455 S
H1372  C1457   1.083   .     S
C1374  O1376   1.222   .     D
C1374  H1375   1.082   .     S
O1377  Zn1383  1.998   .     S
O1377  C1379   1.290   .     A
O1378  Zn1384  1.992   .     S
O1378  C1379   1.290   .     A
C1379  C1413   1.442   .     S
O1380  Zn1383  1.980   .     S
O1380  C1382   1.308   .     A
O1381  C1382   1.290   .     A
O1381  Zn1384  1.974   .     S
C1382  C1405   1.486   .     S
Zn1383 O1387   1.974   .     S
Zn1383 N1416   2.014   .     S
Zn1383 O1385   1.992   .     S
Zn1384 O1388   1.980   .     S
Zn1384 N1420   2.013   .     S
Zn1384 O1386   1.998   .     S
O1385  C1389   1.290   .     A
O1386  C1389   1.296   .     A
O1387  C1390   1.290   .     A
O1388  C1390   1.298   .     A
C1389  C1410   1.453   .     S
C1390  C1393   1.468   .     S
C1391  H1392   1.076   .     S
C1391  C1404   1.408   .     A
C1393  C1403   1.395   .     A
C1393  C1404   1.420   .     A
C1394  C1395   1.414   .     A
C1394  C1405   1.419   .     A
C1394  C1449   1.481   .     S
C1395  C622    1.414   1_556 S
C1395  C683    1.487   1_556 S
C1396  C1453   1.490   .     S
C1397  C1398   1.406   .     A
C1397  C622    1.419   1_556 S
C1397  C625    1.416   1_556 S
C1398  C1405   1.424   .     A
C1398  C1402   1.426   .     A
C1399  C1403   1.382   .     A
C1400  C1401   1.408   .     A
C1400  C617    1.409   1_556 S
C1400  C625    1.409   1_556 S
C1401  C1445   1.483   .     S
C1401  C1402   1.407   .     A
C1402  C1460   1.489   .     S
C1403  H1406   1.073   .     S
C1404  C1421   1.489   .     S
C1407  C1413   1.399   .     A
C1407  H1408   1.083   .     S
C1407  C893    1.381   1_565 S
C1409  C1410   1.411   .     A
C1409  C1424   1.486   .     S
C1410  C1411   1.413   .     A
C1411  C1427   1.497   .     S
C1412  C1413   1.411   .     A
C1412  C1430   1.498   .     S
C1412  C895    1.394   1_565 S
C1414  C1434   1.485   .     S
C1414  N1420   1.375   .     A
C1414  C1501   1.427   .     S
C1415  C1437   1.476   .     S
C1415  N1416   1.374   .     A
N1416  C1417   1.371   .     A
C1417  C1441   1.463   .     S
C1418  N1420   1.358   .     A
C1418  H1419   1.077   .     S
C1418  C1503   1.415   .     S
C1421  O1423   1.221   .     D
C1421  H1422   1.079   .     S
C1424  O1426   1.221   .     D
C1424  H1425   1.083   .     S
C1427  O1429   1.219   .     D
C1427  H1428   1.079   .     S
C1430  O1432   1.398   .     S
C1430  O1431   1.223   .     D
O1432  H1433   1.012   .     S
C1434  O1436   1.221   .     D
C1434  H1435   1.073   .     S
C1437  O1439   1.392   .     S
C1437  O1438   1.218   .     D
O1439  H1440   1.014   .     S
C1441  O1443   1.391   .     S
C1441  O1442   1.221   .     D
O1443  H1444   1.014   .     S
C1445  O1447   1.396   .     S
C1445  O1446   1.221   .     D
O1447  H1448   1.013   .     S
C1449  O1450   1.222   .     D
C1449  O1451   1.398   .     S
O1451  H1452   1.014   .     S
C1453  O1454   1.222   .     D
C1453  O1455   1.396   .     S
O1455  H1456   1.012   .     S
C1457  O1459   1.221   .     D
H1458  C1543   1.083   .     S
C1460  O1462   1.222   .     D
C1460  H1461   1.082   .     S
O1463  Zn1469  1.998   .     S
O1463  C1465   1.290   .     A
O1464  Zn1470  1.992   .     S
O1464  C1465   1.290   .     A
C1465  C1499   1.442   .     S
O1466  Zn1469  1.980   .     S
O1466  C1468   1.308   .     A
O1467  C1468   1.290   .     A
O1467  Zn1470  1.974   .     S
C1468  C1491   1.486   .     S
Zn1469 O1473   1.974   .     S
Zn1469 N1502   2.014   .     S
Zn1469 O1471   1.992   .     S
Zn1470 O1474   1.980   .     S
Zn1470 N1506   2.013   .     S
Zn1470 O1472   1.998   .     S
O1471  C1475   1.290   .     A
O1472  C1475   1.296   .     A
O1473  C1476   1.290   .     A
O1474  C1476   1.298   .     A
C1475  C1496   1.453   .     S
C1476  C1479   1.468   .     S
C1477  H1478   1.076   .     S
C1477  C1490   1.408   .     A
C1479  C1489   1.395   .     A
C1479  C1490   1.420   .     A
C1480  C1481   1.414   .     A
C1480  C1491   1.419   .     A
C1480  C1535   1.481   .     S
C1481  C708    1.414   1_556 S
C1481  C769    1.487   1_556 S
C1482  C1539   1.490   .     S
C1483  C1484   1.406   .     A
C1483  C708    1.419   1_556 S
C1483  C711    1.416   1_556 S
C1484  C1491   1.424   .     A
C1484  C1488   1.426   .     A
C1485  C1489   1.382   .     A
C1486  C1487   1.408   .     A
C1486  C703    1.409   1_556 S
C1486  C711    1.409   1_556 S
C1487  C1531   1.483   .     S
C1487  C1488   1.407   .     A
C1488  C1546   1.489   .     S
C1489  H1492   1.073   .     S
C1490  C1507   1.489   .     S
C1493  C1499   1.399   .     A
C1493  H1494   1.083   .     S
C1493  C979    1.381   1_565 S
C1495  C1496   1.411   .     A
C1495  C1510   1.486   .     S
C1496  C1497   1.413   .     A
C1497  C1513   1.497   .     S
C1498  C1499   1.411   .     A
C1498  C1516   1.498   .     S
C1498  C981    1.394   1_565 S
C1500  C1520   1.485   .     S
C1500  N1506   1.375   .     A
C1500  C1329   1.427   1_655 S
C1501  C1523   1.476   .     S
C1501  N1502   1.374   .     A
N1502  C1503   1.371   .     A
C1503  C1527   1.463   .     S
C1504  N1506   1.358   .     A
C1504  H1505   1.077   .     S
C1504  C1331   1.415   1_655 S
C1507  O1509   1.221   .     D
C1507  H1508   1.079   .     S
C1510  O1512   1.221   .     D
C1510  H1511   1.083   .     S
C1513  O1515   1.219   .     D
C1513  H1514   1.079   .     S
C1516  O1518   1.398   .     S
C1516  O1517   1.223   .     D
O1518  H1519   1.012   .     S
C1520  O1522   1.221   .     D
C1520  H1521   1.073   .     S
C1523  O1525   1.392   .     S
C1523  O1524   1.218   .     D
O1525  H1526   1.014   .     S
C1527  O1529   1.391   .     S
C1527  O1528   1.221   .     D
O1529  H1530   1.014   .     S
C1531  O1533   1.396   .     S
C1531  O1532   1.221   .     D
O1533  H1534   1.013   .     S
C1535  O1536   1.222   .     D
C1535  O1537   1.398   .     S
O1537  H1538   1.014   .     S
C1539  O1540   1.222   .     D
C1539  O1541   1.396   .     S
O1541  H1542   1.012   .     S
C1543  O1545   1.221   .     D
H1544  C1371   1.083   1_655 S
C1546  O1548   1.222   .     D
C1546  H1547   1.082   .     S
