data_str_m1_o1_o17_pcu_sym.60
_audit_creation_date              2020-01-03
_audit_creation_method            'Materials Studio'
_symmetry_space_group_name_H-M    'P1'
_symmetry_Int_Tables_number       1
_symmetry_cell_setting            triclinic
loop_
_symmetry_equiv_pos_as_xyz
  x,y,z
_cell_length_a                    36.5957
_cell_length_b                    36.6050
_cell_length_c                    34.4561
_cell_angle_alpha                 89.9913
_cell_angle_beta                  89.9733
_cell_angle_gamma                 90.0017
loop_
_atom_site_label
_atom_site_type_symbol
_atom_site_fract_x
_atom_site_fract_y
_atom_site_fract_z
_atom_site_U_iso_or_equiv
_atom_site_adp_type
_atom_site_occupancy
Zn1    Zn    0.20659   0.00000   0.21735   0.00000  Uiso   1.00
Zn2    Zn    0.29340   0.00000   0.78265   0.00000  Uiso   1.00
Zn3    Zn   -0.00000   0.20660   0.21735   0.00000  Uiso   1.00
Zn4    Zn   -0.00000   0.29341   0.78265   0.00000  Uiso   1.00
Zn5    Zn    0.29340   0.00000   0.21735   0.00000  Uiso   1.00
Zn6    Zn    0.20659   0.00000   0.78265   0.00000  Uiso   1.00
Zn7    Zn    0.00000   0.29341   0.21735   0.00000  Uiso   1.00
Zn8    Zn    0.00000   0.20660   0.78265   0.00000  Uiso   1.00
Zn9    Zn    0.45659   0.25000   0.71735   0.00000  Uiso   1.00
Zn10   Zn    0.04340   0.25000   0.28265   0.00000  Uiso   1.00
Zn11   Zn    0.25000   0.45660   0.71735   0.00000  Uiso   1.00
Zn12   Zn    0.25000   0.04341   0.28265   0.00000  Uiso   1.00
Zn13   Zn    0.04340   0.25000   0.71735   0.00000  Uiso   1.00
Zn14   Zn    0.45659   0.25000   0.28265   0.00000  Uiso   1.00
Zn15   Zn    0.25000   0.04341   0.71735   0.00000  Uiso   1.00
Zn16   Zn    0.25000   0.45660   0.28265   0.00000  Uiso   1.00
C17    C     0.46686   0.24968   0.41871   0.00000  Uiso   1.00
C18    C     0.03314   0.24978   0.58129   0.00000  Uiso   1.00
C19    C     0.24984   0.46688   0.41870   0.00000  Uiso   1.00
C20    C     0.25071   0.03311   0.58130   0.00000  Uiso   1.00
C21    C     0.03312   0.25033   0.41867   0.00000  Uiso   1.00
C22    C     0.46688   0.25023   0.58132   0.00000  Uiso   1.00
C23    C     0.25016   0.03312   0.41869   0.00000  Uiso   1.00
C24    C     0.24928   0.46689   0.58131   0.00000  Uiso   1.00
C25    C     0.28310   0.00117   0.91868   0.00000  Uiso   1.00
C26    C     0.21693   0.49827   0.08133   0.00000  Uiso   1.00
C27    C     0.00046   0.28311   0.91869   0.00000  Uiso   1.00
C28    C     0.00010   0.21688   0.08131   0.00000  Uiso   1.00
C29    C     0.21688   0.49882   0.91871   0.00000  Uiso   1.00
C30    C     0.28309   0.00171   0.08129   0.00000  Uiso   1.00
C31    C     0.49955   0.21688   0.91870   0.00000  Uiso   1.00
C32    C     0.49990   0.28312   0.08130   0.00000  Uiso   1.00
C33    C     0.49999   0.25001   0.39843   0.00000  Uiso   1.00
C34    C     0.00001   0.25001   0.60157   0.00000  Uiso   1.00
C35    C     0.25000  -0.00000   0.39843   0.00000  Uiso   1.00
C36    C     0.25000   0.00000   0.60158   0.00000  Uiso   1.00
C37    C     0.24999  -0.00000   0.89843   0.00000  Uiso   1.00
C38    C     0.25001   0.49999   0.10158   0.00000  Uiso   1.00
C39    C     0.00000   0.25000   0.89842   0.00000  Uiso   1.00
C40    C     0.00000   0.25000   0.10158   0.00000  Uiso   1.00
O41    O     0.25000   0.00000   0.25000   0.00000  Uiso   1.00
O42    O     0.25000   0.00000   0.75000   0.00000  Uiso   1.00
O43    O     0.00000   0.25000   0.25000   0.00000  Uiso   1.00
O44    O    -0.00000   0.25000   0.75000   0.00000  Uiso   1.00
O45    O     0.25000   0.46964   0.33755   0.00000  Uiso   1.00
O46    O     0.25000   0.03037   0.66245   0.00000  Uiso   1.00
O47    O     0.03036   0.25000   0.33755   0.00000  Uiso   1.00
O48    O     0.46963   0.25000   0.66245   0.00000  Uiso   1.00
O49    O     0.25000   0.03037   0.33755   0.00000  Uiso   1.00
O50    O     0.25000   0.46964   0.66245   0.00000  Uiso   1.00
O51    O     0.46963   0.25000   0.33755   0.00000  Uiso   1.00
O52    O     0.03036   0.25000   0.66245   0.00000  Uiso   1.00
O53    O     0.00000   0.21964   0.83755   0.00000  Uiso   1.00
O54    O     0.00000   0.28037   0.16245   0.00000  Uiso   1.00
O55    O     0.28036   0.00000   0.83755   0.00000  Uiso   1.00
O56    O     0.21963   0.00000   0.16245   0.00000  Uiso   1.00
O57    O     0.00000   0.28037   0.83755   0.00000  Uiso   1.00
O58    O     0.00000   0.21964   0.16245   0.00000  Uiso   1.00
O59    O     0.21963   0.00000   0.83755   0.00000  Uiso   1.00
O60    O     0.28036   0.00000   0.16245   0.00000  Uiso   1.00
O61    O     0.20724   0.07308   0.27302   0.00000  Uiso   1.00
O62    O     0.29275   0.42693   0.72698   0.00000  Uiso   1.00
O63    O     0.42692   0.20725   0.27302   0.00000  Uiso   1.00
O64    O     0.07307   0.29276   0.72698   0.00000  Uiso   1.00
O65    O     0.29275   0.42693   0.27302   0.00000  Uiso   1.00
O66    O     0.20724   0.07308   0.72698   0.00000  Uiso   1.00
O67    O     0.07307   0.29276   0.27302   0.00000  Uiso   1.00
O68    O     0.42692   0.20725   0.72698   0.00000  Uiso   1.00
O69    O     0.20724   0.42693   0.72698   0.00000  Uiso   1.00
O70    O     0.29275   0.07308   0.27302   0.00000  Uiso   1.00
O71    O     0.42692   0.29276   0.72698   0.00000  Uiso   1.00
O72    O     0.07307   0.20725   0.27302   0.00000  Uiso   1.00
O73    O     0.29275   0.07308   0.72698   0.00000  Uiso   1.00
O74    O     0.20724   0.42693   0.27302   0.00000  Uiso   1.00
O75    O     0.07307   0.20725   0.72698   0.00000  Uiso   1.00
O76    O     0.42692   0.29276   0.27302   0.00000  Uiso   1.00
O77    O     0.45724   0.32308   0.77302   0.00000  Uiso   1.00
O78    O     0.04275   0.17693   0.22698   0.00000  Uiso   1.00
O79    O     0.17692   0.45725   0.77302   0.00000  Uiso   1.00
O80    O     0.32307   0.04276   0.22698   0.00000  Uiso   1.00
O81    O     0.04275   0.17693   0.77302   0.00000  Uiso   1.00
O82    O     0.45724   0.32308   0.22698   0.00000  Uiso   1.00
O83    O     0.32307   0.04276   0.77302   0.00000  Uiso   1.00
O84    O     0.17692   0.45725   0.22698   0.00000  Uiso   1.00
O85    O     0.45724   0.17693   0.22698   0.00000  Uiso   1.00
O86    O     0.04275   0.32308   0.77302   0.00000  Uiso   1.00
O87    O     0.17692   0.04276   0.22698   0.00000  Uiso   1.00
O88    O     0.32307   0.45725   0.77302   0.00000  Uiso   1.00
O89    O     0.04275   0.32308   0.22698   0.00000  Uiso   1.00
O90    O     0.45724   0.17693   0.77302   0.00000  Uiso   1.00
O91    O     0.32307   0.45725   0.22698   0.00000  Uiso   1.00
O92    O     0.17692   0.04276   0.77302   0.00000  Uiso   1.00
C93    C     0.06690   0.25113   0.47961   0.00000  Uiso   1.00
C94    C     0.43310   0.25093   0.52038   0.00000  Uiso   1.00
C95    C     0.24988   0.06689   0.47964   0.00000  Uiso   1.00
C96    C     0.24807   0.43313   0.52036   0.00000  Uiso   1.00
C97    C     0.43309   0.24890   0.47969   0.00000  Uiso   1.00
C98    C     0.06691   0.24910   0.52031   0.00000  Uiso   1.00
C99    C     0.25010   0.43310   0.47967   0.00000  Uiso   1.00
C100   C     0.25192   0.06687   0.52033   0.00000  Uiso   1.00
C101   C     0.18311   0.49800   0.97970   0.00000  Uiso   1.00
C102   C     0.31679   0.00400   0.02031   0.00000  Uiso   1.00
C103   C     0.49862   0.18312   0.97967   0.00000  Uiso   1.00
C104   C     0.49936   0.31689   0.02033   0.00000  Uiso   1.00
C105   C     0.31688   0.00197   0.97962   0.00000  Uiso   1.00
C106   C     0.18321   0.49598   0.02039   0.00000  Uiso   1.00
C107   C     0.00139   0.31688   0.97964   0.00000  Uiso   1.00
C108   C     0.00065   0.18311   0.02036   0.00000  Uiso   1.00
C109   C     0.25000  -0.00000   0.35598   0.00000  Uiso   1.00
C110   C     0.25000   0.00000   0.64402   0.00000  Uiso   1.00
C111   C     0.49999   0.25000   0.35598   0.00000  Uiso   1.00
C112   C     0.00001   0.25000   0.64402   0.00000  Uiso   1.00
C113   C     0.00000   0.25000   0.85598   0.00000  Uiso   1.00
C114   C    -0.00000   0.25000   0.14402   0.00000  Uiso   1.00
C115   C     0.24999   0.00000   0.85598   0.00000  Uiso   1.00
C116   C     0.25001  -0.00000   0.14402   0.00000  Uiso   1.00
C117   C     0.17998   0.06998   0.25001   0.00000  Uiso   1.00
C118   C     0.31998   0.42998   0.75001   0.00000  Uiso   1.00
C119   C     0.42997   0.18002   0.24999   0.00000  Uiso   1.00
C120   C     0.07003   0.31998   0.75001   0.00000  Uiso   1.00
C121   C     0.32003   0.43002   0.25001   0.00000  Uiso   1.00
C122   C     0.17997   0.06998   0.74999   0.00000  Uiso   1.00
C123   C     0.06998   0.32002   0.25001   0.00000  Uiso   1.00
C124   C     0.43002   0.17998   0.74999   0.00000  Uiso   1.00
C125   C     0.17997   0.43002   0.74999   0.00000  Uiso   1.00
C126   C     0.32003   0.06998   0.25000   0.00000  Uiso   1.00
C127   C     0.43002   0.32002   0.74999   0.00000  Uiso   1.00
C128   C     0.07002   0.18002   0.24999   0.00000  Uiso   1.00
C129   C     0.31998   0.07002   0.75001   0.00000  Uiso   1.00
C130   C     0.18002   0.42998   0.24999   0.00000  Uiso   1.00
C131   C     0.07003   0.18002   0.75001   0.00000  Uiso   1.00
C132   C     0.42997   0.31998   0.24999   0.00000  Uiso   1.00
C133   C     0.13846   0.38855   0.21435   0.00000  Uiso   1.00
C134   C     0.36153   0.11147   0.78564   0.00000  Uiso   1.00
C135   C     0.11147   0.13844   0.21436   0.00000  Uiso   1.00
C136   C     0.38871   0.36170   0.78555   0.00000  Uiso   1.00
C137   C     0.36170   0.11129   0.21444   0.00000  Uiso   1.00
C138   C     0.13827   0.38874   0.78555   0.00000  Uiso   1.00
C139   C     0.38855   0.36156   0.21436   0.00000  Uiso   1.00
C140   C     0.11149   0.13847   0.78564   0.00000  Uiso   1.00
C141   C     0.13830   0.11128   0.78555   0.00000  Uiso   1.00
C142   C     0.36172   0.38873   0.21445   0.00000  Uiso   1.00
C143   C     0.11145   0.36155   0.78564   0.00000  Uiso   1.00
C144   C     0.38851   0.13849   0.21436   0.00000  Uiso   1.00
C145   C     0.36156   0.38855   0.78564   0.00000  Uiso   1.00
C146   C     0.13832   0.11128   0.21445   0.00000  Uiso   1.00
C147   C     0.38870   0.13831   0.78556   0.00000  Uiso   1.00
C148   C     0.11128   0.36171   0.21444   0.00000  Uiso   1.00
C149   C     0.38848   0.13852   0.71436   0.00000  Uiso   1.00
C150   C     0.11155   0.36145   0.28564   0.00000  Uiso   1.00
C151   C     0.36129   0.38831   0.71444   0.00000  Uiso   1.00
C152   C     0.13853   0.11156   0.28564   0.00000  Uiso   1.00
C153   C     0.11173   0.36126   0.71445   0.00000  Uiso   1.00
C154   C     0.38829   0.13872   0.28555   0.00000  Uiso   1.00
C155   C     0.13851   0.11153   0.71436   0.00000  Uiso   1.00
C156   C     0.36145   0.38844   0.28564   0.00000  Uiso   1.00
C157   C     0.38828   0.36126   0.28555   0.00000  Uiso   1.00
C158   C     0.11170   0.13872   0.71444   0.00000  Uiso   1.00
C159   C     0.36149   0.11151   0.28564   0.00000  Uiso   1.00
C160   C     0.13854   0.38846   0.71436   0.00000  Uiso   1.00
C161   C     0.11168   0.13872   0.28555   0.00000  Uiso   1.00
C162   C     0.38845   0.36145   0.71436   0.00000  Uiso   1.00
C163   C     0.13872   0.38829   0.28555   0.00000  Uiso   1.00
C164   C     0.36130   0.11169   0.71444   0.00000  Uiso   1.00
C165   C     0.03353   0.25047   0.45922   0.00000  Uiso   1.00
C166   C     0.46647   0.25037   0.54078   0.00000  Uiso   1.00
C167   C     0.25003   0.03353   0.45923   0.00000  Uiso   1.00
C168   C     0.24913   0.46648   0.54077   0.00000  Uiso   1.00
C169   C     0.46646   0.24955   0.45926   0.00000  Uiso   1.00
C170   C     0.03354   0.24965   0.54074   0.00000  Uiso   1.00
C171   C     0.24996   0.46647   0.45925   0.00000  Uiso   1.00
C172   C     0.25086   0.03352   0.54076   0.00000  Uiso   1.00
C173   C     0.21647   0.49891   0.95926   0.00000  Uiso   1.00
C174   C     0.28349   0.00189   0.04075   0.00000  Uiso   1.00
C175   C     0.49941   0.21647   0.95924   0.00000  Uiso   1.00
C176   C     0.49978   0.28353   0.04075   0.00000  Uiso   1.00
C177   C     0.28352   0.00107   0.95922   0.00000  Uiso   1.00
C178   C     0.21652   0.49809   0.04078   0.00000  Uiso   1.00
C179   C     0.00060   0.28353   0.95923   0.00000  Uiso   1.00
C180   C     0.00023   0.21647   0.04077   0.00000  Uiso   1.00
H181   H     0.44135   0.24954   0.40277   0.00000  Uiso   1.00
H182   H     0.05865   0.24972   0.59723   0.00000  Uiso   1.00
H183   H     0.24959   0.44138   0.40275   0.00000  Uiso   1.00
H184   H     0.25117   0.05861   0.59725   0.00000  Uiso   1.00
H185   H     0.05863   0.25048   0.40271   0.00000  Uiso   1.00
H186   H     0.44137   0.25030   0.59729   0.00000  Uiso   1.00
H187   H     0.25040   0.05862   0.40273   0.00000  Uiso   1.00
H188   H     0.24883   0.44139   0.59727   0.00000  Uiso   1.00
H189   H     0.30859   0.00222   0.90271   0.00000  Uiso   1.00
H190   H     0.19145   0.49701   0.09730   0.00000  Uiso   1.00
H191   H     0.00071   0.30862   0.90273   0.00000  Uiso   1.00
H192   H     0.00006   0.19138   0.09727   0.00000  Uiso   1.00
H193   H     0.19139   0.49778   0.90277   0.00000  Uiso   1.00
H194   H     0.30857   0.00297   0.09724   0.00000  Uiso   1.00
H195   H     0.49930   0.19138   0.90275   0.00000  Uiso   1.00
H196   H     0.49994   0.30863   0.09725   0.00000  Uiso   1.00
C197   C     0.09798   0.34820   0.25005   0.00000  Uiso   1.00
C198   C     0.40202   0.15180   0.74995   0.00000  Uiso   1.00
C199   C     0.15181   0.09799   0.25005   0.00000  Uiso   1.00
C200   C     0.34799   0.40181   0.75005   0.00000  Uiso   1.00
C201   C     0.40178   0.15204   0.24995   0.00000  Uiso   1.00
C202   C     0.09822   0.34796   0.75005   0.00000  Uiso   1.00
C203   C     0.34821   0.40203   0.25005   0.00000  Uiso   1.00
C204   C     0.15178   0.09797   0.74995   0.00000  Uiso   1.00
C205   C     0.09821   0.15203   0.75005   0.00000  Uiso   1.00
C206   C     0.40179   0.34797   0.24995   0.00000  Uiso   1.00
C207   C     0.15178   0.40204   0.74995   0.00000  Uiso   1.00
C208   C     0.34822   0.09796   0.25004   0.00000  Uiso   1.00
C209   C     0.40201   0.34819   0.74995   0.00000  Uiso   1.00
C210   C     0.09819   0.15201   0.24995   0.00000  Uiso   1.00
C211   C     0.34798   0.09820   0.75005   0.00000  Uiso   1.00
C212   C     0.15202   0.40180   0.24994   0.00000  Uiso   1.00
C213   C    -0.00000   0.25001   0.47964   0.00000  Uiso   1.00
C214   C     0.00000   0.25001   0.52036   0.00000  Uiso   1.00
C215   C     0.25000  -0.00000   0.47964   0.00000  Uiso   1.00
C216   C     0.24999   0.00000   0.52036   0.00000  Uiso   1.00
C217   C     0.25000   0.49999   0.97964   0.00000  Uiso   1.00
C218   C     0.25000   0.49999   0.02037   0.00000  Uiso   1.00
C219   C     0.00000   0.25000   0.97964   0.00000  Uiso   1.00
C220   C     0.00000   0.25000   0.02036   0.00000  Uiso   1.00
O221   O     0.09981   0.25149   0.45983   0.00000  Uiso   1.00
C222   C     0.11155   0.28804   0.45638   0.00000  Uiso   1.00
H223   H     0.09138   0.30488   0.44010   0.00000  Uiso   1.00
H224   H     0.13753   0.28848   0.43979   0.00000  Uiso   1.00
H225   H     0.11700   0.30038   0.48532   0.00000  Uiso   1.00
O226   O     0.40019   0.25119   0.54017   0.00000  Uiso   1.00
C227   C     0.38835   0.28770   0.54361   0.00000  Uiso   1.00
H228   H     0.40847   0.30460   0.55989   0.00000  Uiso   1.00
H229   H     0.36236   0.28807   0.56020   0.00000  Uiso   1.00
H230   H     0.38286   0.30003   0.51467   0.00000  Uiso   1.00
O231   O     0.25003   0.09980   0.45987   0.00000  Uiso   1.00
C232   C     0.21366   0.11209   0.45646   0.00000  Uiso   1.00
H233   H     0.19650   0.09219   0.44019   0.00000  Uiso   1.00
H234   H     0.21362   0.13807   0.43989   0.00000  Uiso   1.00
H235   H     0.20141   0.11774   0.48542   0.00000  Uiso   1.00
O236   O     0.24731   0.40024   0.54013   0.00000  Uiso   1.00
C237   C     0.21061   0.38896   0.54359   0.00000  Uiso   1.00
H238   H     0.19401   0.40933   0.55990   0.00000  Uiso   1.00
H239   H     0.20985   0.36299   0.56017   0.00000  Uiso   1.00
H240   H     0.19820   0.38366   0.51466   0.00000  Uiso   1.00
O241   O     0.40018   0.24855   0.45995   0.00000  Uiso   1.00
C242   C     0.38843   0.21201   0.45652   0.00000  Uiso   1.00
H243   H     0.40860   0.19516   0.44021   0.00000  Uiso   1.00
H244   H     0.36245   0.21158   0.43996   0.00000  Uiso   1.00
H245   H     0.38298   0.19967   0.48547   0.00000  Uiso   1.00
O246   O     0.09982   0.24886   0.54005   0.00000  Uiso   1.00
C247   C     0.11167   0.21235   0.54350   0.00000  Uiso   1.00
H248   H     0.09156   0.19545   0.55982   0.00000  Uiso   1.00
H249   H     0.13766   0.21199   0.56005   0.00000  Uiso   1.00
H250   H     0.11716   0.20001   0.51456   0.00000  Uiso   1.00
O251   O     0.24995   0.40020   0.45991   0.00000  Uiso   1.00
C252   C     0.28632   0.38790   0.45647   0.00000  Uiso   1.00
H253   H     0.30349   0.40780   0.44017   0.00000  Uiso   1.00
H254   H     0.28636   0.36192   0.43990   0.00000  Uiso   1.00
H255   H     0.29857   0.38226   0.48542   0.00000  Uiso   1.00
O256   O     0.25267   0.09976   0.54009   0.00000  Uiso   1.00
C257   C     0.28937   0.11105   0.54352   0.00000  Uiso   1.00
H258   H     0.30596   0.09069   0.55982   0.00000  Uiso   1.00
H259   H     0.29012   0.13702   0.56008   0.00000  Uiso   1.00
H260   H     0.30179   0.11635   0.51457   0.00000  Uiso   1.00
O261   O     0.15022   0.49679   0.95995   0.00000  Uiso   1.00
C262   C     0.13675   0.03274   0.95654   0.00000  Uiso   1.00
H263   H     0.11077   0.03194   0.93999   0.00000  Uiso   1.00
H264   H     0.15608   0.05054   0.94024   0.00000  Uiso   1.00
H265   H     0.13072   0.04479   0.98550   0.00000  Uiso   1.00
O266   O     0.34966   0.00579   0.04006   0.00000  Uiso   1.00
C267   C     0.35978   0.04282   0.04351   0.00000  Uiso   1.00
H268   H     0.38572   0.04439   0.06006   0.00000  Uiso   1.00
H269   H     0.33889   0.05874   0.05984   0.00000  Uiso   1.00
H270   H     0.36467   0.05541   0.01457   0.00000  Uiso   1.00
O271   O     0.49814   0.15022   0.95991   0.00000  Uiso   1.00
C272   C     0.46154   0.13861   0.95650   0.00000  Uiso   1.00
H273   H     0.46100   0.11264   0.93994   0.00000  Uiso   1.00
H274   H     0.44476   0.15884   0.94022   0.00000  Uiso   1.00
H275   H     0.44918   0.13320   0.98546   0.00000  Uiso   1.00
O276   O     0.49923   0.34980   0.04009   0.00000  Uiso   1.00
C277   C     0.46275   0.36178   0.04355   0.00000  Uiso   1.00
H278   H     0.46250   0.38776   0.06011   0.00000  Uiso   1.00
H279   H     0.44577   0.34174   0.05986   0.00000  Uiso   1.00
H280   H     0.45044   0.36731   0.01461   0.00000  Uiso   1.00
O281   O     0.34977   0.00317   0.95983   0.00000  Uiso   1.00
C282   C     0.36323   0.46722   0.95643   0.00000  Uiso   1.00
H283   H     0.38921   0.46801   0.93984   0.00000  Uiso   1.00
H284   H     0.34389   0.44942   0.94016   0.00000  Uiso   1.00
H285   H     0.36927   0.45517   0.98538   0.00000  Uiso   1.00
O286   O     0.15035   0.49418   0.04018   0.00000  Uiso   1.00
C287   C     0.14024   0.45714   0.04365   0.00000  Uiso   1.00
H288   H     0.11430   0.45556   0.06023   0.00000  Uiso   1.00
H289   H     0.16113   0.44122   0.05995   0.00000  Uiso   1.00
H290   H     0.13534   0.44456   0.01471   0.00000  Uiso   1.00
O291   O     0.00187   0.34978   0.95987   0.00000  Uiso   1.00
C292   C     0.03848   0.36138   0.95643   0.00000  Uiso   1.00
H293   H     0.03902   0.38735   0.93985   0.00000  Uiso   1.00
H294   H     0.05526   0.34116   0.94014   0.00000  Uiso   1.00
H295   H     0.05083   0.36679   0.98537   0.00000  Uiso   1.00
O296   O     0.00078   0.15021   0.04013   0.00000  Uiso   1.00
C297   C     0.03726   0.13823   0.04355   0.00000  Uiso   1.00
H298   H     0.03752   0.11225   0.06013   0.00000  Uiso   1.00
H299   H     0.05424   0.15827   0.05984   0.00000  Uiso   1.00
H300   H     0.04957   0.13270   0.01461   0.00000  Uiso   1.00
N301   N     0.15408   0.40035   0.17820   0.00000  Uiso   1.00
O302   O     0.18894   0.39658   0.17187   0.00000  Uiso   1.00
O303   O     0.13386   0.41634   0.15222   0.00000  Uiso   1.00
N304   N     0.34587   0.09969   0.82178   0.00000  Uiso   1.00
O305   O     0.31102   0.10353   0.82809   0.00000  Uiso   1.00
O306   O     0.36604   0.08358   0.84771   0.00000  Uiso   1.00
N307   N     0.09968   0.15405   0.17821   0.00000  Uiso   1.00
O308   O     0.10353   0.18888   0.17185   0.00000  Uiso   1.00
O309   O     0.08355   0.13386   0.15231   0.00000  Uiso   1.00
N310   N     0.40076   0.34619   0.82160   0.00000  Uiso   1.00
O311   O     0.39443   0.31196   0.82920   0.00000  Uiso   1.00
O312   O     0.42147   0.36507   0.84480   0.00000  Uiso   1.00
N313   N     0.34621   0.09923   0.17839   0.00000  Uiso   1.00
O314   O     0.31200   0.10568   0.17073   0.00000  Uiso   1.00
O315   O     0.36502   0.07833   0.15530   0.00000  Uiso   1.00
N316   N     0.15374   0.40082   0.82160   0.00000  Uiso   1.00
O317   O     0.18793   0.39433   0.82931   0.00000  Uiso   1.00
O318   O     0.13495   0.42182   0.84460   0.00000  Uiso   1.00
N319   N     0.40036   0.34595   0.17820   0.00000  Uiso   1.00
O320   O     0.39657   0.31110   0.17189   0.00000  Uiso   1.00
O321   O     0.41637   0.36617   0.15223   0.00000  Uiso   1.00
N322   N     0.09972   0.15413   0.82178   0.00000  Uiso   1.00
O323   O     0.10347   0.18899   0.82803   0.00000  Uiso   1.00
O324   O     0.08383   0.13392   0.84785   0.00000  Uiso   1.00
N325   N     0.15378   0.09921   0.82160   0.00000  Uiso   1.00
O326   O     0.18799   0.10567   0.82927   0.00000  Uiso   1.00
O327   O     0.13498   0.07827   0.84467   0.00000  Uiso   1.00
N328   N     0.34624   0.40081   0.17840   0.00000  Uiso   1.00
O329   O     0.31202   0.39439   0.17075   0.00000  Uiso   1.00
O330   O     0.36507   0.42168   0.15530   0.00000  Uiso   1.00
N331   N     0.09965   0.34592   0.82180   0.00000  Uiso   1.00
O332   O     0.10337   0.31107   0.82809   0.00000  Uiso   1.00
O333   O     0.08378   0.36617   0.84785   0.00000  Uiso   1.00
N334   N     0.40027   0.15416   0.17821   0.00000  Uiso   1.00
O335   O     0.39652   0.18902   0.17197   0.00000  Uiso   1.00
O336   O     0.41616   0.13396   0.15214   0.00000  Uiso   1.00
N337   N     0.34594   0.40036   0.82179   0.00000  Uiso   1.00
O338   O     0.31110   0.39649   0.82816   0.00000  Uiso   1.00
O339   O     0.36613   0.41654   0.84765   0.00000  Uiso   1.00
N340   N     0.15384   0.09923   0.17840   0.00000  Uiso   1.00
O341   O     0.18808   0.10556   0.17079   0.00000  Uiso   1.00
O342   O     0.13497   0.07849   0.15522   0.00000  Uiso   1.00
N343   N     0.40075   0.15380   0.82161   0.00000  Uiso   1.00
O344   O     0.39440   0.18804   0.82922   0.00000  Uiso   1.00
O345   O     0.42147   0.13493   0.84482   0.00000  Uiso   1.00
N346   N     0.09923   0.34622   0.17840   0.00000  Uiso   1.00
O347   O     0.10565   0.31201   0.17074   0.00000  Uiso   1.00
O348   O     0.07837   0.36504   0.15530   0.00000  Uiso   1.00
N349   N     0.40414   0.15030   0.67822   0.00000  Uiso   1.00
O350   O     0.43899   0.14648   0.67192   0.00000  Uiso   1.00
O351   O     0.38396   0.16636   0.65226   0.00000  Uiso   1.00
N352   N     0.09592   0.34964   0.32179   0.00000  Uiso   1.00
O353   O     0.06107   0.35344   0.32813   0.00000  Uiso   1.00
O354   O     0.11614   0.33360   0.34774   0.00000  Uiso   1.00
N355   N     0.34924   0.40381   0.67839   0.00000  Uiso   1.00
O356   O     0.35559   0.43804   0.67078   0.00000  Uiso   1.00
O357   O     0.32849   0.38494   0.65522   0.00000  Uiso   1.00
N358   N     0.15032   0.09595   0.32179   0.00000  Uiso   1.00
O359   O     0.14648   0.06112   0.32815   0.00000  Uiso   1.00
O360   O     0.16643   0.11615   0.34770   0.00000  Uiso   1.00
N361   N     0.09626   0.34919   0.67840   0.00000  Uiso   1.00
O362   O     0.06207   0.35567   0.67070   0.00000  Uiso   1.00
O363   O     0.11505   0.32821   0.65539   0.00000  Uiso   1.00
N364   N     0.40378   0.15078   0.32160   0.00000  Uiso   1.00
O365   O     0.43798   0.14431   0.32927   0.00000  Uiso   1.00
O366   O     0.38498   0.17170   0.34468   0.00000  Uiso   1.00
N367   N     0.15028   0.09587   0.67821   0.00000  Uiso   1.00
O368   O     0.14653   0.06101   0.67196   0.00000  Uiso   1.00
O369   O     0.16618   0.11608   0.65215   0.00000  Uiso   1.00
N370   N     0.34964   0.40405   0.32180   0.00000  Uiso   1.00
O371   O     0.35342   0.43890   0.32811   0.00000  Uiso   1.00
O372   O     0.33365   0.38383   0.34778   0.00000  Uiso   1.00
N373   N     0.40376   0.34919   0.32160   0.00000  Uiso   1.00
O374   O     0.43797   0.35561   0.32926   0.00000  Uiso   1.00
O375   O     0.38493   0.32830   0.34468   0.00000  Uiso   1.00
N376   N     0.09621   0.15079   0.67839   0.00000  Uiso   1.00
O377   O     0.06200   0.14434   0.67074   0.00000  Uiso   1.00
O378   O     0.11502   0.17170   0.65530   0.00000  Uiso   1.00
N379   N     0.34973   0.09584   0.32178   0.00000  Uiso   1.00
O380   O     0.35347   0.06098   0.32802   0.00000  Uiso   1.00
O381   O     0.33385   0.11605   0.34786   0.00000  Uiso   1.00
N382   N     0.15035   0.40408   0.67820   0.00000  Uiso   1.00
O383   O     0.14662   0.43893   0.67190   0.00000  Uiso   1.00
O384   O     0.16624   0.38384   0.65216   0.00000  Uiso   1.00
N385   N     0.09617   0.15078   0.32160   0.00000  Uiso   1.00
O386   O     0.06193   0.14443   0.32922   0.00000  Uiso   1.00
O387   O     0.11503   0.17155   0.34477   0.00000  Uiso   1.00
N388   N     0.40406   0.34965   0.67820   0.00000  Uiso   1.00
O389   O     0.43891   0.35349   0.67184   0.00000  Uiso   1.00
O390   O     0.38387   0.33352   0.65231   0.00000  Uiso   1.00
N391   N     0.15077   0.40378   0.32160   0.00000  Uiso   1.00
O392   O     0.14437   0.43799   0.32924   0.00000  Uiso   1.00
O393   O     0.17160   0.38494   0.34472   0.00000  Uiso   1.00
N394   N     0.34925   0.09620   0.67839   0.00000  Uiso   1.00
O395   O     0.35562   0.06197   0.67077   0.00000  Uiso   1.00
O396   O     0.32850   0.11505   0.65521   0.00000  Uiso   1.00
Zn397  Zn    0.70659   0.00000   0.21735   0.00000  Uiso   1.00
Zn398  Zn    0.79340   0.00000   0.78265   0.00000  Uiso   1.00
Zn399  Zn    0.50000   0.20660   0.21735   0.00000  Uiso   1.00
Zn400  Zn    0.50000   0.29341   0.78265   0.00000  Uiso   1.00
Zn401  Zn    0.79340   0.00000   0.21735   0.00000  Uiso   1.00
Zn402  Zn    0.70659   0.00000   0.78265   0.00000  Uiso   1.00
Zn403  Zn    0.50000   0.29341   0.21735   0.00000  Uiso   1.00
Zn404  Zn    0.50000   0.20660   0.78265   0.00000  Uiso   1.00
Zn405  Zn    0.95659   0.25000   0.71735   0.00000  Uiso   1.00
Zn406  Zn    0.54340   0.25000   0.28265   0.00000  Uiso   1.00
Zn407  Zn    0.75000   0.45660   0.71735   0.00000  Uiso   1.00
Zn408  Zn    0.75000   0.04341   0.28265   0.00000  Uiso   1.00
Zn409  Zn    0.54340   0.25000   0.71735   0.00000  Uiso   1.00
Zn410  Zn    0.95659   0.25000   0.28265   0.00000  Uiso   1.00
Zn411  Zn    0.75000   0.04341   0.71735   0.00000  Uiso   1.00
Zn412  Zn    0.75000   0.45660   0.28265   0.00000  Uiso   1.00
C413   C     0.96686   0.24968   0.41871   0.00000  Uiso   1.00
C414   C     0.53314   0.24978   0.58129   0.00000  Uiso   1.00
C415   C     0.74984   0.46688   0.41870   0.00000  Uiso   1.00
C416   C     0.75071   0.03311   0.58130   0.00000  Uiso   1.00
C417   C     0.53312   0.25033   0.41867   0.00000  Uiso   1.00
C418   C     0.96688   0.25023   0.58132   0.00000  Uiso   1.00
C419   C     0.75016   0.03312   0.41869   0.00000  Uiso   1.00
C420   C     0.74928   0.46689   0.58131   0.00000  Uiso   1.00
C421   C     0.78310   0.00117   0.91868   0.00000  Uiso   1.00
C422   C     0.71693   0.49827   0.08133   0.00000  Uiso   1.00
C423   C     0.50046   0.28311   0.91869   0.00000  Uiso   1.00
C424   C     0.50010   0.21688   0.08131   0.00000  Uiso   1.00
C425   C     0.71688   0.49882   0.91871   0.00000  Uiso   1.00
C426   C     0.78309   0.00171   0.08129   0.00000  Uiso   1.00
C427   C     0.99955   0.21688   0.91870   0.00000  Uiso   1.00
C428   C     0.99990   0.28312   0.08130   0.00000  Uiso   1.00
C429   C     0.99999   0.25001   0.39843   0.00000  Uiso   1.00
C430   C     0.50001   0.25001   0.60157   0.00000  Uiso   1.00
C431   C     0.75000  -0.00000   0.39843   0.00000  Uiso   1.00
C432   C     0.75000   0.00000   0.60158   0.00000  Uiso   1.00
C433   C     0.74999  -0.00000   0.89843   0.00000  Uiso   1.00
C434   C     0.75001   0.49999   0.10158   0.00000  Uiso   1.00
C435   C     0.50000   0.25000   0.89842   0.00000  Uiso   1.00
C436   C     0.50000   0.25000   0.10158   0.00000  Uiso   1.00
O437   O     0.75000   0.00000   0.25000   0.00000  Uiso   1.00
O438   O     0.75000   0.00000   0.75000   0.00000  Uiso   1.00
O439   O     0.50000   0.25000   0.25000   0.00000  Uiso   1.00
O440   O     0.50000   0.25000   0.75000   0.00000  Uiso   1.00
O441   O     0.75000   0.46964   0.33755   0.00000  Uiso   1.00
O442   O     0.75000   0.03037   0.66245   0.00000  Uiso   1.00
O443   O     0.53036   0.25000   0.33755   0.00000  Uiso   1.00
O444   O     0.96963   0.25000   0.66245   0.00000  Uiso   1.00
O445   O     0.75000   0.03037   0.33755   0.00000  Uiso   1.00
O446   O     0.75000   0.46964   0.66245   0.00000  Uiso   1.00
O447   O     0.96963   0.25000   0.33755   0.00000  Uiso   1.00
O448   O     0.53036   0.25000   0.66245   0.00000  Uiso   1.00
O449   O     0.50000   0.21964   0.83755   0.00000  Uiso   1.00
O450   O     0.50000   0.28037   0.16245   0.00000  Uiso   1.00
O451   O     0.78036   0.00000   0.83755   0.00000  Uiso   1.00
O452   O     0.71963   0.00000   0.16245   0.00000  Uiso   1.00
O453   O     0.50000   0.28037   0.83755   0.00000  Uiso   1.00
O454   O     0.50000   0.21964   0.16245   0.00000  Uiso   1.00
O455   O     0.71963   0.00000   0.83755   0.00000  Uiso   1.00
O456   O     0.78036   0.00000   0.16245   0.00000  Uiso   1.00
O457   O     0.70724   0.07308   0.27302   0.00000  Uiso   1.00
O458   O     0.79275   0.42693   0.72698   0.00000  Uiso   1.00
O459   O     0.92692   0.20725   0.27302   0.00000  Uiso   1.00
O460   O     0.57307   0.29276   0.72698   0.00000  Uiso   1.00
O461   O     0.79275   0.42693   0.27302   0.00000  Uiso   1.00
O462   O     0.70724   0.07308   0.72698   0.00000  Uiso   1.00
O463   O     0.57307   0.29276   0.27302   0.00000  Uiso   1.00
O464   O     0.92692   0.20725   0.72698   0.00000  Uiso   1.00
O465   O     0.70724   0.42693   0.72698   0.00000  Uiso   1.00
O466   O     0.79275   0.07308   0.27302   0.00000  Uiso   1.00
O467   O     0.92692   0.29276   0.72698   0.00000  Uiso   1.00
O468   O     0.57307   0.20725   0.27302   0.00000  Uiso   1.00
O469   O     0.79275   0.07308   0.72698   0.00000  Uiso   1.00
O470   O     0.70724   0.42693   0.27302   0.00000  Uiso   1.00
O471   O     0.57307   0.20725   0.72698   0.00000  Uiso   1.00
O472   O     0.92692   0.29276   0.27302   0.00000  Uiso   1.00
O473   O     0.95724   0.32308   0.77302   0.00000  Uiso   1.00
O474   O     0.54275   0.17693   0.22698   0.00000  Uiso   1.00
O475   O     0.67692   0.45725   0.77302   0.00000  Uiso   1.00
O476   O     0.82307   0.04276   0.22698   0.00000  Uiso   1.00
O477   O     0.54275   0.17693   0.77302   0.00000  Uiso   1.00
O478   O     0.95724   0.32308   0.22698   0.00000  Uiso   1.00
O479   O     0.82307   0.04276   0.77302   0.00000  Uiso   1.00
O480   O     0.67692   0.45725   0.22698   0.00000  Uiso   1.00
O481   O     0.95724   0.17693   0.22698   0.00000  Uiso   1.00
O482   O     0.54275   0.32308   0.77302   0.00000  Uiso   1.00
O483   O     0.67692   0.04276   0.22698   0.00000  Uiso   1.00
O484   O     0.82307   0.45725   0.77302   0.00000  Uiso   1.00
O485   O     0.54275   0.32308   0.22698   0.00000  Uiso   1.00
O486   O     0.95724   0.17693   0.77302   0.00000  Uiso   1.00
O487   O     0.82307   0.45725   0.22698   0.00000  Uiso   1.00
O488   O     0.67692   0.04276   0.77302   0.00000  Uiso   1.00
C489   C     0.56690   0.25113   0.47961   0.00000  Uiso   1.00
C490   C     0.93310   0.25093   0.52038   0.00000  Uiso   1.00
C491   C     0.74988   0.06689   0.47964   0.00000  Uiso   1.00
C492   C     0.74807   0.43313   0.52036   0.00000  Uiso   1.00
C493   C     0.93309   0.24890   0.47969   0.00000  Uiso   1.00
C494   C     0.56691   0.24910   0.52031   0.00000  Uiso   1.00
C495   C     0.75010   0.43310   0.47967   0.00000  Uiso   1.00
C496   C     0.75192   0.06687   0.52033   0.00000  Uiso   1.00
C497   C     0.68311   0.49800   0.97970   0.00000  Uiso   1.00
C498   C     0.81679   0.00400   0.02031   0.00000  Uiso   1.00
C499   C     0.99862   0.18312   0.97967   0.00000  Uiso   1.00
C500   C     0.99936   0.31689   0.02033   0.00000  Uiso   1.00
C501   C     0.81688   0.00197   0.97962   0.00000  Uiso   1.00
C502   C     0.68321   0.49598   0.02039   0.00000  Uiso   1.00
C503   C     0.50139   0.31688   0.97964   0.00000  Uiso   1.00
C504   C     0.50065   0.18311   0.02036   0.00000  Uiso   1.00
C505   C     0.75000  -0.00000   0.35598   0.00000  Uiso   1.00
C506   C     0.75000   0.00000   0.64402   0.00000  Uiso   1.00
C507   C     0.99999   0.25000   0.35598   0.00000  Uiso   1.00
C508   C     0.50001   0.25000   0.64402   0.00000  Uiso   1.00
C509   C     0.50000   0.25000   0.85598   0.00000  Uiso   1.00
C510   C     0.50000   0.25000   0.14402   0.00000  Uiso   1.00
C511   C     0.74999   0.00000   0.85598   0.00000  Uiso   1.00
C512   C     0.75001  -0.00000   0.14402   0.00000  Uiso   1.00
C513   C     0.67998   0.06998   0.25001   0.00000  Uiso   1.00
C514   C     0.81998   0.42998   0.75001   0.00000  Uiso   1.00
C515   C     0.92997   0.18002   0.24999   0.00000  Uiso   1.00
C516   C     0.57003   0.31998   0.75001   0.00000  Uiso   1.00
C517   C     0.82003   0.43002   0.25001   0.00000  Uiso   1.00
C518   C     0.67997   0.06998   0.74999   0.00000  Uiso   1.00
C519   C     0.56998   0.32002   0.25001   0.00000  Uiso   1.00
C520   C     0.93002   0.17998   0.74999   0.00000  Uiso   1.00
C521   C     0.67997   0.43002   0.74999   0.00000  Uiso   1.00
C522   C     0.82003   0.06998   0.25000   0.00000  Uiso   1.00
C523   C     0.93002   0.32002   0.74999   0.00000  Uiso   1.00
C524   C     0.57002   0.18002   0.24999   0.00000  Uiso   1.00
C525   C     0.81998   0.07002   0.75001   0.00000  Uiso   1.00
C526   C     0.68002   0.42998   0.24999   0.00000  Uiso   1.00
C527   C     0.57003   0.18002   0.75001   0.00000  Uiso   1.00
C528   C     0.92997   0.31998   0.24999   0.00000  Uiso   1.00
C529   C     0.63846   0.38855   0.21435   0.00000  Uiso   1.00
C530   C     0.86153   0.11147   0.78564   0.00000  Uiso   1.00
C531   C     0.61147   0.13844   0.21436   0.00000  Uiso   1.00
C532   C     0.88871   0.36170   0.78555   0.00000  Uiso   1.00
C533   C     0.86170   0.11129   0.21444   0.00000  Uiso   1.00
C534   C     0.63827   0.38874   0.78555   0.00000  Uiso   1.00
C535   C     0.88855   0.36156   0.21436   0.00000  Uiso   1.00
C536   C     0.61149   0.13847   0.78564   0.00000  Uiso   1.00
C537   C     0.63830   0.11128   0.78555   0.00000  Uiso   1.00
C538   C     0.86172   0.38873   0.21445   0.00000  Uiso   1.00
C539   C     0.61145   0.36155   0.78564   0.00000  Uiso   1.00
C540   C     0.88851   0.13849   0.21436   0.00000  Uiso   1.00
C541   C     0.86156   0.38855   0.78564   0.00000  Uiso   1.00
C542   C     0.63832   0.11128   0.21445   0.00000  Uiso   1.00
C543   C     0.88870   0.13831   0.78556   0.00000  Uiso   1.00
C544   C     0.61128   0.36171   0.21444   0.00000  Uiso   1.00
C545   C     0.88848   0.13852   0.71436   0.00000  Uiso   1.00
C546   C     0.61155   0.36145   0.28564   0.00000  Uiso   1.00
C547   C     0.86129   0.38831   0.71444   0.00000  Uiso   1.00
C548   C     0.63853   0.11156   0.28564   0.00000  Uiso   1.00
C549   C     0.61173   0.36126   0.71445   0.00000  Uiso   1.00
C550   C     0.88829   0.13872   0.28555   0.00000  Uiso   1.00
C551   C     0.63851   0.11153   0.71436   0.00000  Uiso   1.00
C552   C     0.86145   0.38844   0.28564   0.00000  Uiso   1.00
C553   C     0.88828   0.36126   0.28555   0.00000  Uiso   1.00
C554   C     0.61170   0.13872   0.71444   0.00000  Uiso   1.00
C555   C     0.86149   0.11151   0.28564   0.00000  Uiso   1.00
C556   C     0.63854   0.38846   0.71436   0.00000  Uiso   1.00
C557   C     0.61168   0.13872   0.28555   0.00000  Uiso   1.00
C558   C     0.88845   0.36145   0.71436   0.00000  Uiso   1.00
C559   C     0.63872   0.38829   0.28555   0.00000  Uiso   1.00
C560   C     0.86130   0.11169   0.71444   0.00000  Uiso   1.00
C561   C     0.53353   0.25047   0.45922   0.00000  Uiso   1.00
C562   C     0.96647   0.25037   0.54078   0.00000  Uiso   1.00
C563   C     0.75003   0.03353   0.45923   0.00000  Uiso   1.00
C564   C     0.74913   0.46648   0.54077   0.00000  Uiso   1.00
C565   C     0.96646   0.24955   0.45926   0.00000  Uiso   1.00
C566   C     0.53354   0.24965   0.54074   0.00000  Uiso   1.00
C567   C     0.74996   0.46647   0.45925   0.00000  Uiso   1.00
C568   C     0.75086   0.03352   0.54076   0.00000  Uiso   1.00
C569   C     0.71647   0.49891   0.95926   0.00000  Uiso   1.00
C570   C     0.78349   0.00189   0.04075   0.00000  Uiso   1.00
C571   C     0.99941   0.21647   0.95924   0.00000  Uiso   1.00
C572   C     0.99978   0.28353   0.04075   0.00000  Uiso   1.00
C573   C     0.78352   0.00107   0.95922   0.00000  Uiso   1.00
C574   C     0.71652   0.49809   0.04078   0.00000  Uiso   1.00
C575   C     0.50060   0.28353   0.95923   0.00000  Uiso   1.00
C576   C     0.50023   0.21647   0.04077   0.00000  Uiso   1.00
H577   H     0.94135   0.24954   0.40277   0.00000  Uiso   1.00
H578   H     0.55865   0.24972   0.59723   0.00000  Uiso   1.00
H579   H     0.74959   0.44138   0.40275   0.00000  Uiso   1.00
H580   H     0.75117   0.05861   0.59725   0.00000  Uiso   1.00
H581   H     0.55863   0.25048   0.40271   0.00000  Uiso   1.00
H582   H     0.94137   0.25030   0.59729   0.00000  Uiso   1.00
H583   H     0.75040   0.05862   0.40273   0.00000  Uiso   1.00
H584   H     0.74883   0.44139   0.59727   0.00000  Uiso   1.00
H585   H     0.80859   0.00222   0.90271   0.00000  Uiso   1.00
H586   H     0.69145   0.49701   0.09730   0.00000  Uiso   1.00
H587   H     0.50071   0.30862   0.90273   0.00000  Uiso   1.00
H588   H     0.50006   0.19138   0.09727   0.00000  Uiso   1.00
H589   H     0.69139   0.49778   0.90277   0.00000  Uiso   1.00
H590   H     0.80857   0.00297   0.09724   0.00000  Uiso   1.00
H591   H     0.99930   0.19138   0.90275   0.00000  Uiso   1.00
H592   H     0.99994   0.30863   0.09725   0.00000  Uiso   1.00
C593   C     0.59798   0.34820   0.25005   0.00000  Uiso   1.00
C594   C     0.90202   0.15180   0.74995   0.00000  Uiso   1.00
C595   C     0.65181   0.09799   0.25005   0.00000  Uiso   1.00
C596   C     0.84799   0.40181   0.75005   0.00000  Uiso   1.00
C597   C     0.90178   0.15204   0.24995   0.00000  Uiso   1.00
C598   C     0.59822   0.34796   0.75005   0.00000  Uiso   1.00
C599   C     0.84821   0.40203   0.25005   0.00000  Uiso   1.00
C600   C     0.65178   0.09797   0.74995   0.00000  Uiso   1.00
C601   C     0.59821   0.15203   0.75005   0.00000  Uiso   1.00
C602   C     0.90179   0.34797   0.24995   0.00000  Uiso   1.00
C603   C     0.65178   0.40204   0.74995   0.00000  Uiso   1.00
C604   C     0.84822   0.09796   0.25004   0.00000  Uiso   1.00
C605   C     0.90201   0.34819   0.74995   0.00000  Uiso   1.00
C606   C     0.59819   0.15201   0.24995   0.00000  Uiso   1.00
C607   C     0.84798   0.09820   0.75005   0.00000  Uiso   1.00
C608   C     0.65202   0.40180   0.24994   0.00000  Uiso   1.00
C609   C     0.50000   0.25001   0.47964   0.00000  Uiso   1.00
C610   C     0.50000   0.25001   0.52036   0.00000  Uiso   1.00
C611   C     0.75000  -0.00000   0.47964   0.00000  Uiso   1.00
C612   C     0.74999   0.00000   0.52036   0.00000  Uiso   1.00
C613   C     0.75000   0.49999   0.97964   0.00000  Uiso   1.00
C614   C     0.75000   0.49999   0.02037   0.00000  Uiso   1.00
C615   C     0.50000   0.25000   0.97964   0.00000  Uiso   1.00
C616   C     0.50000   0.25000   0.02036   0.00000  Uiso   1.00
O617   O     0.59981   0.25149   0.45983   0.00000  Uiso   1.00
C618   C     0.61155   0.28804   0.45638   0.00000  Uiso   1.00
H619   H     0.59138   0.30488   0.44010   0.00000  Uiso   1.00
H620   H     0.63753   0.28848   0.43979   0.00000  Uiso   1.00
H621   H     0.61700   0.30038   0.48532   0.00000  Uiso   1.00
O622   O     0.90019   0.25119   0.54017   0.00000  Uiso   1.00
C623   C     0.88835   0.28770   0.54361   0.00000  Uiso   1.00
H624   H     0.90847   0.30460   0.55989   0.00000  Uiso   1.00
H625   H     0.86236   0.28807   0.56020   0.00000  Uiso   1.00
H626   H     0.88286   0.30003   0.51467   0.00000  Uiso   1.00
O627   O     0.75003   0.09980   0.45987   0.00000  Uiso   1.00
C628   C     0.71366   0.11209   0.45646   0.00000  Uiso   1.00
H629   H     0.69650   0.09219   0.44019   0.00000  Uiso   1.00
H630   H     0.71362   0.13807   0.43989   0.00000  Uiso   1.00
H631   H     0.70141   0.11774   0.48542   0.00000  Uiso   1.00
O632   O     0.74731   0.40024   0.54013   0.00000  Uiso   1.00
C633   C     0.71061   0.38896   0.54359   0.00000  Uiso   1.00
H634   H     0.69401   0.40933   0.55990   0.00000  Uiso   1.00
H635   H     0.70985   0.36299   0.56017   0.00000  Uiso   1.00
H636   H     0.69820   0.38366   0.51466   0.00000  Uiso   1.00
O637   O     0.90018   0.24855   0.45995   0.00000  Uiso   1.00
C638   C     0.88843   0.21201   0.45652   0.00000  Uiso   1.00
H639   H     0.90860   0.19516   0.44021   0.00000  Uiso   1.00
H640   H     0.86245   0.21158   0.43996   0.00000  Uiso   1.00
H641   H     0.88298   0.19967   0.48547   0.00000  Uiso   1.00
O642   O     0.59982   0.24886   0.54005   0.00000  Uiso   1.00
C643   C     0.61167   0.21235   0.54350   0.00000  Uiso   1.00
H644   H     0.59156   0.19545   0.55982   0.00000  Uiso   1.00
H645   H     0.63766   0.21199   0.56005   0.00000  Uiso   1.00
H646   H     0.61716   0.20001   0.51456   0.00000  Uiso   1.00
O647   O     0.74995   0.40020   0.45991   0.00000  Uiso   1.00
C648   C     0.78632   0.38790   0.45647   0.00000  Uiso   1.00
H649   H     0.80349   0.40780   0.44017   0.00000  Uiso   1.00
H650   H     0.78636   0.36192   0.43990   0.00000  Uiso   1.00
H651   H     0.79857   0.38226   0.48542   0.00000  Uiso   1.00
O652   O     0.75267   0.09976   0.54009   0.00000  Uiso   1.00
C653   C     0.78937   0.11105   0.54352   0.00000  Uiso   1.00
H654   H     0.80596   0.09069   0.55982   0.00000  Uiso   1.00
H655   H     0.79012   0.13702   0.56008   0.00000  Uiso   1.00
H656   H     0.80179   0.11635   0.51457   0.00000  Uiso   1.00
O657   O     0.65022   0.49679   0.95995   0.00000  Uiso   1.00
C658   C     0.63675   0.03274   0.95654   0.00000  Uiso   1.00
H659   H     0.61077   0.03194   0.93999   0.00000  Uiso   1.00
H660   H     0.65608   0.05054   0.94024   0.00000  Uiso   1.00
H661   H     0.63072   0.04479   0.98550   0.00000  Uiso   1.00
O662   O     0.84966   0.00579   0.04006   0.00000  Uiso   1.00
C663   C     0.85978   0.04282   0.04351   0.00000  Uiso   1.00
H664   H     0.88572   0.04439   0.06006   0.00000  Uiso   1.00
H665   H     0.83889   0.05874   0.05984   0.00000  Uiso   1.00
H666   H     0.86467   0.05541   0.01457   0.00000  Uiso   1.00
O667   O     0.99814   0.15022   0.95991   0.00000  Uiso   1.00
C668   C     0.96154   0.13861   0.95650   0.00000  Uiso   1.00
H669   H     0.96100   0.11264   0.93994   0.00000  Uiso   1.00
H670   H     0.94476   0.15884   0.94022   0.00000  Uiso   1.00
H671   H     0.94918   0.13320   0.98546   0.00000  Uiso   1.00
O672   O     0.99923   0.34980   0.04009   0.00000  Uiso   1.00
C673   C     0.96275   0.36178   0.04355   0.00000  Uiso   1.00
H674   H     0.96250   0.38776   0.06011   0.00000  Uiso   1.00
H675   H     0.94577   0.34174   0.05986   0.00000  Uiso   1.00
H676   H     0.95044   0.36731   0.01461   0.00000  Uiso   1.00
O677   O     0.84977   0.00317   0.95983   0.00000  Uiso   1.00
C678   C     0.86323   0.46722   0.95643   0.00000  Uiso   1.00
H679   H     0.88921   0.46801   0.93984   0.00000  Uiso   1.00
H680   H     0.84389   0.44942   0.94016   0.00000  Uiso   1.00
H681   H     0.86927   0.45517   0.98538   0.00000  Uiso   1.00
O682   O     0.65035   0.49418   0.04018   0.00000  Uiso   1.00
C683   C     0.64024   0.45714   0.04365   0.00000  Uiso   1.00
H684   H     0.61430   0.45556   0.06023   0.00000  Uiso   1.00
H685   H     0.66113   0.44122   0.05995   0.00000  Uiso   1.00
H686   H     0.63534   0.44456   0.01471   0.00000  Uiso   1.00
O687   O     0.50187   0.34978   0.95987   0.00000  Uiso   1.00
C688   C     0.53848   0.36138   0.95643   0.00000  Uiso   1.00
H689   H     0.53902   0.38735   0.93985   0.00000  Uiso   1.00
H690   H     0.55526   0.34116   0.94014   0.00000  Uiso   1.00
H691   H     0.55083   0.36679   0.98537   0.00000  Uiso   1.00
O692   O     0.50078   0.15021   0.04013   0.00000  Uiso   1.00
C693   C     0.53726   0.13823   0.04355   0.00000  Uiso   1.00
H694   H     0.53752   0.11225   0.06013   0.00000  Uiso   1.00
H695   H     0.55424   0.15827   0.05984   0.00000  Uiso   1.00
H696   H     0.54957   0.13270   0.01461   0.00000  Uiso   1.00
N697   N     0.65408   0.40035   0.17820   0.00000  Uiso   1.00
O698   O     0.68894   0.39658   0.17187   0.00000  Uiso   1.00
O699   O     0.63386   0.41634   0.15222   0.00000  Uiso   1.00
N700   N     0.84587   0.09969   0.82178   0.00000  Uiso   1.00
O701   O     0.81102   0.10353   0.82809   0.00000  Uiso   1.00
O702   O     0.86604   0.08358   0.84771   0.00000  Uiso   1.00
N703   N     0.59968   0.15405   0.17821   0.00000  Uiso   1.00
O704   O     0.60353   0.18888   0.17185   0.00000  Uiso   1.00
O705   O     0.58355   0.13386   0.15231   0.00000  Uiso   1.00
N706   N     0.90076   0.34619   0.82160   0.00000  Uiso   1.00
O707   O     0.89443   0.31196   0.82920   0.00000  Uiso   1.00
O708   O     0.92147   0.36507   0.84480   0.00000  Uiso   1.00
N709   N     0.84621   0.09923   0.17839   0.00000  Uiso   1.00
O710   O     0.81200   0.10568   0.17073   0.00000  Uiso   1.00
O711   O     0.86502   0.07833   0.15530   0.00000  Uiso   1.00
N712   N     0.65374   0.40082   0.82160   0.00000  Uiso   1.00
O713   O     0.68793   0.39433   0.82931   0.00000  Uiso   1.00
O714   O     0.63495   0.42182   0.84460   0.00000  Uiso   1.00
N715   N     0.90036   0.34595   0.17820   0.00000  Uiso   1.00
O716   O     0.89657   0.31110   0.17189   0.00000  Uiso   1.00
O717   O     0.91637   0.36617   0.15223   0.00000  Uiso   1.00
N718   N     0.59972   0.15413   0.82178   0.00000  Uiso   1.00
O719   O     0.60347   0.18899   0.82803   0.00000  Uiso   1.00
O720   O     0.58383   0.13392   0.84785   0.00000  Uiso   1.00
N721   N     0.65378   0.09921   0.82160   0.00000  Uiso   1.00
O722   O     0.68799   0.10567   0.82927   0.00000  Uiso   1.00
O723   O     0.63498   0.07827   0.84467   0.00000  Uiso   1.00
N724   N     0.84624   0.40081   0.17840   0.00000  Uiso   1.00
O725   O     0.81202   0.39439   0.17075   0.00000  Uiso   1.00
O726   O     0.86507   0.42168   0.15530   0.00000  Uiso   1.00
N727   N     0.59965   0.34592   0.82180   0.00000  Uiso   1.00
O728   O     0.60337   0.31107   0.82809   0.00000  Uiso   1.00
O729   O     0.58378   0.36617   0.84785   0.00000  Uiso   1.00
N730   N     0.90027   0.15416   0.17821   0.00000  Uiso   1.00
O731   O     0.89652   0.18902   0.17197   0.00000  Uiso   1.00
O732   O     0.91616   0.13396   0.15214   0.00000  Uiso   1.00
N733   N     0.84594   0.40036   0.82179   0.00000  Uiso   1.00
O734   O     0.81110   0.39649   0.82816   0.00000  Uiso   1.00
O735   O     0.86613   0.41654   0.84765   0.00000  Uiso   1.00
N736   N     0.65384   0.09923   0.17840   0.00000  Uiso   1.00
O737   O     0.68808   0.10556   0.17079   0.00000  Uiso   1.00
O738   O     0.63497   0.07849   0.15522   0.00000  Uiso   1.00
N739   N     0.90075   0.15380   0.82161   0.00000  Uiso   1.00
O740   O     0.89440   0.18804   0.82922   0.00000  Uiso   1.00
O741   O     0.92147   0.13493   0.84482   0.00000  Uiso   1.00
N742   N     0.59923   0.34622   0.17840   0.00000  Uiso   1.00
O743   O     0.60565   0.31201   0.17074   0.00000  Uiso   1.00
O744   O     0.57837   0.36504   0.15530   0.00000  Uiso   1.00
N745   N     0.90414   0.15030   0.67822   0.00000  Uiso   1.00
O746   O     0.93899   0.14648   0.67192   0.00000  Uiso   1.00
O747   O     0.88396   0.16636   0.65226   0.00000  Uiso   1.00
N748   N     0.59592   0.34964   0.32179   0.00000  Uiso   1.00
O749   O     0.56107   0.35344   0.32813   0.00000  Uiso   1.00
O750   O     0.61614   0.33360   0.34774   0.00000  Uiso   1.00
N751   N     0.84924   0.40381   0.67839   0.00000  Uiso   1.00
O752   O     0.85559   0.43804   0.67078   0.00000  Uiso   1.00
O753   O     0.82849   0.38494   0.65522   0.00000  Uiso   1.00
N754   N     0.65032   0.09595   0.32179   0.00000  Uiso   1.00
O755   O     0.64648   0.06112   0.32815   0.00000  Uiso   1.00
O756   O     0.66643   0.11615   0.34770   0.00000  Uiso   1.00
N757   N     0.59626   0.34919   0.67840   0.00000  Uiso   1.00
O758   O     0.56207   0.35567   0.67070   0.00000  Uiso   1.00
O759   O     0.61505   0.32821   0.65539   0.00000  Uiso   1.00
N760   N     0.90378   0.15078   0.32160   0.00000  Uiso   1.00
O761   O     0.93798   0.14431   0.32927   0.00000  Uiso   1.00
O762   O     0.88498   0.17170   0.34468   0.00000  Uiso   1.00
N763   N     0.65028   0.09587   0.67821   0.00000  Uiso   1.00
O764   O     0.64653   0.06101   0.67196   0.00000  Uiso   1.00
O765   O     0.66618   0.11608   0.65215   0.00000  Uiso   1.00
N766   N     0.84964   0.40405   0.32180   0.00000  Uiso   1.00
O767   O     0.85342   0.43890   0.32811   0.00000  Uiso   1.00
O768   O     0.83365   0.38383   0.34778   0.00000  Uiso   1.00
N769   N     0.90376   0.34919   0.32160   0.00000  Uiso   1.00
O770   O     0.93797   0.35561   0.32926   0.00000  Uiso   1.00
O771   O     0.88493   0.32830   0.34468   0.00000  Uiso   1.00
N772   N     0.59621   0.15079   0.67839   0.00000  Uiso   1.00
O773   O     0.56200   0.14434   0.67074   0.00000  Uiso   1.00
O774   O     0.61502   0.17170   0.65530   0.00000  Uiso   1.00
N775   N     0.84973   0.09584   0.32178   0.00000  Uiso   1.00
O776   O     0.85347   0.06098   0.32802   0.00000  Uiso   1.00
O777   O     0.83385   0.11605   0.34786   0.00000  Uiso   1.00
N778   N     0.65035   0.40408   0.67820   0.00000  Uiso   1.00
O779   O     0.64662   0.43893   0.67190   0.00000  Uiso   1.00
O780   O     0.66624   0.38384   0.65216   0.00000  Uiso   1.00
N781   N     0.59617   0.15078   0.32160   0.00000  Uiso   1.00
O782   O     0.56193   0.14443   0.32922   0.00000  Uiso   1.00
O783   O     0.61503   0.17155   0.34477   0.00000  Uiso   1.00
N784   N     0.90406   0.34965   0.67820   0.00000  Uiso   1.00
O785   O     0.93891   0.35349   0.67184   0.00000  Uiso   1.00
O786   O     0.88387   0.33352   0.65231   0.00000  Uiso   1.00
N787   N     0.65077   0.40378   0.32160   0.00000  Uiso   1.00
O788   O     0.64437   0.43799   0.32924   0.00000  Uiso   1.00
O789   O     0.67160   0.38494   0.34472   0.00000  Uiso   1.00
N790   N     0.84925   0.09620   0.67839   0.00000  Uiso   1.00
O791   O     0.85562   0.06197   0.67077   0.00000  Uiso   1.00
O792   O     0.82850   0.11505   0.65521   0.00000  Uiso   1.00
Zn793  Zn    0.20659   0.50000   0.21735   0.00000  Uiso   1.00
Zn794  Zn    0.29340   0.50000   0.78265   0.00000  Uiso   1.00
Zn795  Zn   -0.00000   0.70660   0.21735   0.00000  Uiso   1.00
Zn796  Zn   -0.00000   0.79341   0.78265   0.00000  Uiso   1.00
Zn797  Zn    0.29340   0.50000   0.21735   0.00000  Uiso   1.00
Zn798  Zn    0.20659   0.50000   0.78265   0.00000  Uiso   1.00
Zn799  Zn    0.00000   0.79341   0.21735   0.00000  Uiso   1.00
Zn800  Zn    0.00000   0.70660   0.78265   0.00000  Uiso   1.00
Zn801  Zn    0.45659   0.75000   0.71735   0.00000  Uiso   1.00
Zn802  Zn    0.04340   0.75000   0.28265   0.00000  Uiso   1.00
Zn803  Zn    0.25000   0.95660   0.71735   0.00000  Uiso   1.00
Zn804  Zn    0.25000   0.54341   0.28265   0.00000  Uiso   1.00
Zn805  Zn    0.04340   0.75000   0.71735   0.00000  Uiso   1.00
Zn806  Zn    0.45659   0.75000   0.28265   0.00000  Uiso   1.00
Zn807  Zn    0.25000   0.54341   0.71735   0.00000  Uiso   1.00
Zn808  Zn    0.25000   0.95660   0.28265   0.00000  Uiso   1.00
C809   C     0.46686   0.74968   0.41871   0.00000  Uiso   1.00
C810   C     0.03314   0.74978   0.58129   0.00000  Uiso   1.00
C811   C     0.24984   0.96688   0.41870   0.00000  Uiso   1.00
C812   C     0.25071   0.53311   0.58130   0.00000  Uiso   1.00
C813   C     0.03312   0.75033   0.41867   0.00000  Uiso   1.00
C814   C     0.46688   0.75023   0.58132   0.00000  Uiso   1.00
C815   C     0.25016   0.53312   0.41869   0.00000  Uiso   1.00
C816   C     0.24928   0.96689   0.58131   0.00000  Uiso   1.00
C817   C     0.28310   0.50117   0.91868   0.00000  Uiso   1.00
C818   C     0.21693   0.99827   0.08133   0.00000  Uiso   1.00
C819   C     0.00046   0.78311   0.91869   0.00000  Uiso   1.00
C820   C     0.00010   0.71688   0.08131   0.00000  Uiso   1.00
C821   C     0.21688   0.99882   0.91871   0.00000  Uiso   1.00
C822   C     0.28309   0.50171   0.08129   0.00000  Uiso   1.00
C823   C     0.49955   0.71688   0.91870   0.00000  Uiso   1.00
C824   C     0.49990   0.78312   0.08130   0.00000  Uiso   1.00
C825   C     0.49999   0.75001   0.39843   0.00000  Uiso   1.00
C826   C     0.00001   0.75001   0.60157   0.00000  Uiso   1.00
C827   C     0.25000   0.50000   0.39843   0.00000  Uiso   1.00
C828   C     0.25000   0.50000   0.60158   0.00000  Uiso   1.00
C829   C     0.24999   0.50000   0.89843   0.00000  Uiso   1.00
C830   C     0.25001   0.99999   0.10158   0.00000  Uiso   1.00
C831   C     0.00000   0.75000   0.89842   0.00000  Uiso   1.00
C832   C     0.00000   0.75000   0.10158   0.00000  Uiso   1.00
O833   O     0.25000   0.50000   0.25000   0.00000  Uiso   1.00
O834   O     0.25000   0.50000   0.75000   0.00000  Uiso   1.00
O835   O     0.00000   0.75000   0.25000   0.00000  Uiso   1.00
O836   O    -0.00000   0.75000   0.75000   0.00000  Uiso   1.00
O837   O     0.25000   0.96964   0.33755   0.00000  Uiso   1.00
O838   O     0.25000   0.53037   0.66245   0.00000  Uiso   1.00
O839   O     0.03036   0.75000   0.33755   0.00000  Uiso   1.00
O840   O     0.46963   0.75000   0.66245   0.00000  Uiso   1.00
O841   O     0.25000   0.53037   0.33755   0.00000  Uiso   1.00
O842   O     0.25000   0.96964   0.66245   0.00000  Uiso   1.00
O843   O     0.46963   0.75000   0.33755   0.00000  Uiso   1.00
O844   O     0.03036   0.75000   0.66245   0.00000  Uiso   1.00
O845   O     0.00000   0.71964   0.83755   0.00000  Uiso   1.00
O846   O     0.00000   0.78037   0.16245   0.00000  Uiso   1.00
O847   O     0.28036   0.50000   0.83755   0.00000  Uiso   1.00
O848   O     0.21963   0.50000   0.16245   0.00000  Uiso   1.00
O849   O     0.00000   0.78037   0.83755   0.00000  Uiso   1.00
O850   O     0.00000   0.71964   0.16245   0.00000  Uiso   1.00
O851   O     0.21963   0.50000   0.83755   0.00000  Uiso   1.00
O852   O     0.28036   0.50000   0.16245   0.00000  Uiso   1.00
O853   O     0.20724   0.57308   0.27302   0.00000  Uiso   1.00
O854   O     0.29275   0.92693   0.72698   0.00000  Uiso   1.00
O855   O     0.42692   0.70725   0.27302   0.00000  Uiso   1.00
O856   O     0.07307   0.79276   0.72698   0.00000  Uiso   1.00
O857   O     0.29275   0.92693   0.27302   0.00000  Uiso   1.00
O858   O     0.20724   0.57308   0.72698   0.00000  Uiso   1.00
O859   O     0.07307   0.79276   0.27302   0.00000  Uiso   1.00
O860   O     0.42692   0.70725   0.72698   0.00000  Uiso   1.00
O861   O     0.20724   0.92693   0.72698   0.00000  Uiso   1.00
O862   O     0.29275   0.57308   0.27302   0.00000  Uiso   1.00
O863   O     0.42692   0.79276   0.72698   0.00000  Uiso   1.00
O864   O     0.07307   0.70725   0.27302   0.00000  Uiso   1.00
O865   O     0.29275   0.57308   0.72698   0.00000  Uiso   1.00
O866   O     0.20724   0.92693   0.27302   0.00000  Uiso   1.00
O867   O     0.07307   0.70725   0.72698   0.00000  Uiso   1.00
O868   O     0.42692   0.79276   0.27302   0.00000  Uiso   1.00
O869   O     0.45724   0.82308   0.77302   0.00000  Uiso   1.00
O870   O     0.04275   0.67693   0.22698   0.00000  Uiso   1.00
O871   O     0.17692   0.95725   0.77302   0.00000  Uiso   1.00
O872   O     0.32307   0.54276   0.22698   0.00000  Uiso   1.00
O873   O     0.04275   0.67693   0.77302   0.00000  Uiso   1.00
O874   O     0.45724   0.82308   0.22698   0.00000  Uiso   1.00
O875   O     0.32307   0.54276   0.77302   0.00000  Uiso   1.00
O876   O     0.17692   0.95725   0.22698   0.00000  Uiso   1.00
O877   O     0.45724   0.67693   0.22698   0.00000  Uiso   1.00
O878   O     0.04275   0.82308   0.77302   0.00000  Uiso   1.00
O879   O     0.17692   0.54276   0.22698   0.00000  Uiso   1.00
O880   O     0.32307   0.95725   0.77302   0.00000  Uiso   1.00
O881   O     0.04275   0.82308   0.22698   0.00000  Uiso   1.00
O882   O     0.45724   0.67693   0.77302   0.00000  Uiso   1.00
O883   O     0.32307   0.95725   0.22698   0.00000  Uiso   1.00
O884   O     0.17692   0.54276   0.77302   0.00000  Uiso   1.00
C885   C     0.06690   0.75113   0.47961   0.00000  Uiso   1.00
C886   C     0.43310   0.75093   0.52038   0.00000  Uiso   1.00
C887   C     0.24988   0.56689   0.47964   0.00000  Uiso   1.00
C888   C     0.24807   0.93313   0.52036   0.00000  Uiso   1.00
C889   C     0.43309   0.74890   0.47969   0.00000  Uiso   1.00
C890   C     0.06691   0.74910   0.52031   0.00000  Uiso   1.00
C891   C     0.25010   0.93310   0.47967   0.00000  Uiso   1.00
C892   C     0.25192   0.56687   0.52033   0.00000  Uiso   1.00
C893   C     0.18311   0.99800   0.97970   0.00000  Uiso   1.00
C894   C     0.31679   0.50400   0.02031   0.00000  Uiso   1.00
C895   C     0.49862   0.68312   0.97967   0.00000  Uiso   1.00
C896   C     0.49936   0.81689   0.02033   0.00000  Uiso   1.00
C897   C     0.31688   0.50197   0.97962   0.00000  Uiso   1.00
C898   C     0.18321   0.99598   0.02039   0.00000  Uiso   1.00
C899   C     0.00139   0.81688   0.97964   0.00000  Uiso   1.00
C900   C     0.00065   0.68311   0.02036   0.00000  Uiso   1.00
C901   C     0.25000   0.50000   0.35598   0.00000  Uiso   1.00
C902   C     0.25000   0.50000   0.64402   0.00000  Uiso   1.00
C903   C     0.49999   0.75000   0.35598   0.00000  Uiso   1.00
C904   C     0.00001   0.75000   0.64402   0.00000  Uiso   1.00
C905   C     0.00000   0.75000   0.85598   0.00000  Uiso   1.00
C906   C    -0.00000   0.75000   0.14402   0.00000  Uiso   1.00
C907   C     0.24999   0.50000   0.85598   0.00000  Uiso   1.00
C908   C     0.25001   0.50000   0.14402   0.00000  Uiso   1.00
C909   C     0.17998   0.56998   0.25001   0.00000  Uiso   1.00
C910   C     0.31998   0.92998   0.75001   0.00000  Uiso   1.00
C911   C     0.42997   0.68002   0.24999   0.00000  Uiso   1.00
C912   C     0.07003   0.81998   0.75001   0.00000  Uiso   1.00
C913   C     0.32003   0.93002   0.25001   0.00000  Uiso   1.00
C914   C     0.17997   0.56998   0.74999   0.00000  Uiso   1.00
C915   C     0.06998   0.82002   0.25001   0.00000  Uiso   1.00
C916   C     0.43002   0.67998   0.74999   0.00000  Uiso   1.00
C917   C     0.17997   0.93002   0.74999   0.00000  Uiso   1.00
C918   C     0.32003   0.56998   0.25000   0.00000  Uiso   1.00
C919   C     0.43002   0.82002   0.74999   0.00000  Uiso   1.00
C920   C     0.07002   0.68002   0.24999   0.00000  Uiso   1.00
C921   C     0.31998   0.57002   0.75001   0.00000  Uiso   1.00
C922   C     0.18002   0.92998   0.24999   0.00000  Uiso   1.00
C923   C     0.07003   0.68002   0.75001   0.00000  Uiso   1.00
C924   C     0.42997   0.81998   0.24999   0.00000  Uiso   1.00
C925   C     0.13846   0.88855   0.21435   0.00000  Uiso   1.00
C926   C     0.36153   0.61147   0.78564   0.00000  Uiso   1.00
C927   C     0.11147   0.63844   0.21436   0.00000  Uiso   1.00
C928   C     0.38871   0.86170   0.78555   0.00000  Uiso   1.00
C929   C     0.36170   0.61129   0.21444   0.00000  Uiso   1.00
C930   C     0.13827   0.88874   0.78555   0.00000  Uiso   1.00
C931   C     0.38855   0.86156   0.21436   0.00000  Uiso   1.00
C932   C     0.11149   0.63847   0.78564   0.00000  Uiso   1.00
C933   C     0.13830   0.61128   0.78555   0.00000  Uiso   1.00
C934   C     0.36172   0.88873   0.21445   0.00000  Uiso   1.00
C935   C     0.11145   0.86155   0.78564   0.00000  Uiso   1.00
C936   C     0.38851   0.63849   0.21436   0.00000  Uiso   1.00
C937   C     0.36156   0.88855   0.78564   0.00000  Uiso   1.00
C938   C     0.13832   0.61128   0.21445   0.00000  Uiso   1.00
C939   C     0.38870   0.63831   0.78556   0.00000  Uiso   1.00
C940   C     0.11128   0.86171   0.21444   0.00000  Uiso   1.00
C941   C     0.38848   0.63852   0.71436   0.00000  Uiso   1.00
C942   C     0.11155   0.86145   0.28564   0.00000  Uiso   1.00
C943   C     0.36129   0.88831   0.71444   0.00000  Uiso   1.00
C944   C     0.13853   0.61156   0.28564   0.00000  Uiso   1.00
C945   C     0.11173   0.86126   0.71445   0.00000  Uiso   1.00
C946   C     0.38829   0.63872   0.28555   0.00000  Uiso   1.00
C947   C     0.13851   0.61153   0.71436   0.00000  Uiso   1.00
C948   C     0.36145   0.88844   0.28564   0.00000  Uiso   1.00
C949   C     0.38828   0.86126   0.28555   0.00000  Uiso   1.00
C950   C     0.11170   0.63872   0.71444   0.00000  Uiso   1.00
C951   C     0.36149   0.61151   0.28564   0.00000  Uiso   1.00
C952   C     0.13854   0.88846   0.71436   0.00000  Uiso   1.00
C953   C     0.11168   0.63872   0.28555   0.00000  Uiso   1.00
C954   C     0.38845   0.86145   0.71436   0.00000  Uiso   1.00
C955   C     0.13872   0.88829   0.28555   0.00000  Uiso   1.00
C956   C     0.36130   0.61169   0.71444   0.00000  Uiso   1.00
C957   C     0.03353   0.75047   0.45922   0.00000  Uiso   1.00
C958   C     0.46647   0.75037   0.54078   0.00000  Uiso   1.00
C959   C     0.25003   0.53353   0.45923   0.00000  Uiso   1.00
C960   C     0.24913   0.96648   0.54077   0.00000  Uiso   1.00
C961   C     0.46646   0.74955   0.45926   0.00000  Uiso   1.00
C962   C     0.03354   0.74965   0.54074   0.00000  Uiso   1.00
C963   C     0.24996   0.96647   0.45925   0.00000  Uiso   1.00
C964   C     0.25086   0.53352   0.54076   0.00000  Uiso   1.00
C965   C     0.21647   0.99891   0.95926   0.00000  Uiso   1.00
C966   C     0.28349   0.50189   0.04075   0.00000  Uiso   1.00
C967   C     0.49941   0.71647   0.95924   0.00000  Uiso   1.00
C968   C     0.49978   0.78353   0.04075   0.00000  Uiso   1.00
C969   C     0.28352   0.50107   0.95922   0.00000  Uiso   1.00
C970   C     0.21652   0.99809   0.04078   0.00000  Uiso   1.00
C971   C     0.00060   0.78353   0.95923   0.00000  Uiso   1.00
C972   C     0.00023   0.71647   0.04077   0.00000  Uiso   1.00
H973   H     0.44135   0.74954   0.40277   0.00000  Uiso   1.00
H974   H     0.05865   0.74972   0.59723   0.00000  Uiso   1.00
H975   H     0.24959   0.94138   0.40275   0.00000  Uiso   1.00
H976   H     0.25117   0.55861   0.59725   0.00000  Uiso   1.00
H977   H     0.05863   0.75048   0.40271   0.00000  Uiso   1.00
H978   H     0.44137   0.75030   0.59729   0.00000  Uiso   1.00
H979   H     0.25040   0.55862   0.40273   0.00000  Uiso   1.00
H980   H     0.24883   0.94139   0.59727   0.00000  Uiso   1.00
H981   H     0.30859   0.50222   0.90271   0.00000  Uiso   1.00
H982   H     0.19145   0.99701   0.09730   0.00000  Uiso   1.00
H983   H     0.00071   0.80862   0.90273   0.00000  Uiso   1.00
H984   H     0.00006   0.69138   0.09727   0.00000  Uiso   1.00
H985   H     0.19139   0.99778   0.90277   0.00000  Uiso   1.00
H986   H     0.30857   0.50297   0.09724   0.00000  Uiso   1.00
H987   H     0.49930   0.69138   0.90275   0.00000  Uiso   1.00
H988   H     0.49994   0.80863   0.09725   0.00000  Uiso   1.00
C989   C     0.09798   0.84820   0.25005   0.00000  Uiso   1.00
C990   C     0.40202   0.65180   0.74995   0.00000  Uiso   1.00
C991   C     0.15181   0.59799   0.25005   0.00000  Uiso   1.00
C992   C     0.34799   0.90181   0.75005   0.00000  Uiso   1.00
C993   C     0.40178   0.65204   0.24995   0.00000  Uiso   1.00
C994   C     0.09822   0.84796   0.75005   0.00000  Uiso   1.00
C995   C     0.34821   0.90203   0.25005   0.00000  Uiso   1.00
C996   C     0.15178   0.59797   0.74995   0.00000  Uiso   1.00
C997   C     0.09821   0.65203   0.75005   0.00000  Uiso   1.00
C998   C     0.40179   0.84797   0.24995   0.00000  Uiso   1.00
C999   C     0.15178   0.90204   0.74995   0.00000  Uiso   1.00
C1000  C     0.34822   0.59796   0.25004   0.00000  Uiso   1.00
C1001  C     0.40201   0.84819   0.74995   0.00000  Uiso   1.00
C1002  C     0.09819   0.65201   0.24995   0.00000  Uiso   1.00
C1003  C     0.34798   0.59820   0.75005   0.00000  Uiso   1.00
C1004  C     0.15202   0.90180   0.24994   0.00000  Uiso   1.00
C1005  C    -0.00000   0.75001   0.47964   0.00000  Uiso   1.00
C1006  C     0.00000   0.75001   0.52036   0.00000  Uiso   1.00
C1007  C     0.25000   0.50000   0.47964   0.00000  Uiso   1.00
C1008  C     0.24999   0.50000   0.52036   0.00000  Uiso   1.00
C1009  C     0.25000   0.99999   0.97964   0.00000  Uiso   1.00
C1010  C     0.25000   0.99999   0.02037   0.00000  Uiso   1.00
C1011  C     0.00000   0.75000   0.97964   0.00000  Uiso   1.00
C1012  C     0.00000   0.75000   0.02036   0.00000  Uiso   1.00
O1013  O     0.09981   0.75149   0.45983   0.00000  Uiso   1.00
C1014  C     0.11155   0.78804   0.45638   0.00000  Uiso   1.00
H1015  H     0.09138   0.80488   0.44010   0.00000  Uiso   1.00
H1016  H     0.13753   0.78848   0.43979   0.00000  Uiso   1.00
H1017  H     0.11700   0.80038   0.48532   0.00000  Uiso   1.00
O1018  O     0.40019   0.75119   0.54017   0.00000  Uiso   1.00
C1019  C     0.38835   0.78770   0.54361   0.00000  Uiso   1.00
H1020  H     0.40847   0.80460   0.55989   0.00000  Uiso   1.00
H1021  H     0.36236   0.78807   0.56020   0.00000  Uiso   1.00
H1022  H     0.38286   0.80003   0.51467   0.00000  Uiso   1.00
O1023  O     0.25003   0.59980   0.45987   0.00000  Uiso   1.00
C1024  C     0.21366   0.61209   0.45646   0.00000  Uiso   1.00
H1025  H     0.19650   0.59219   0.44019   0.00000  Uiso   1.00
H1026  H     0.21362   0.63807   0.43989   0.00000  Uiso   1.00
H1027  H     0.20141   0.61774   0.48542   0.00000  Uiso   1.00
O1028  O     0.24731   0.90024   0.54013   0.00000  Uiso   1.00
C1029  C     0.21061   0.88896   0.54359   0.00000  Uiso   1.00
H1030  H     0.19401   0.90933   0.55990   0.00000  Uiso   1.00
H1031  H     0.20985   0.86299   0.56017   0.00000  Uiso   1.00
H1032  H     0.19820   0.88366   0.51466   0.00000  Uiso   1.00
O1033  O     0.40018   0.74855   0.45995   0.00000  Uiso   1.00
C1034  C     0.38843   0.71201   0.45652   0.00000  Uiso   1.00
H1035  H     0.40860   0.69516   0.44021   0.00000  Uiso   1.00
H1036  H     0.36245   0.71158   0.43996   0.00000  Uiso   1.00
H1037  H     0.38298   0.69967   0.48547   0.00000  Uiso   1.00
O1038  O     0.09982   0.74886   0.54005   0.00000  Uiso   1.00
C1039  C     0.11167   0.71235   0.54350   0.00000  Uiso   1.00
H1040  H     0.09156   0.69545   0.55982   0.00000  Uiso   1.00
H1041  H     0.13766   0.71199   0.56005   0.00000  Uiso   1.00
H1042  H     0.11716   0.70001   0.51456   0.00000  Uiso   1.00
O1043  O     0.24995   0.90020   0.45991   0.00000  Uiso   1.00
C1044  C     0.28632   0.88790   0.45647   0.00000  Uiso   1.00
H1045  H     0.30349   0.90780   0.44017   0.00000  Uiso   1.00
H1046  H     0.28636   0.86192   0.43990   0.00000  Uiso   1.00
H1047  H     0.29857   0.88226   0.48542   0.00000  Uiso   1.00
O1048  O     0.25267   0.59976   0.54009   0.00000  Uiso   1.00
C1049  C     0.28937   0.61105   0.54352   0.00000  Uiso   1.00
H1050  H     0.30596   0.59069   0.55982   0.00000  Uiso   1.00
H1051  H     0.29012   0.63702   0.56008   0.00000  Uiso   1.00
H1052  H     0.30179   0.61635   0.51457   0.00000  Uiso   1.00
O1053  O     0.15022   0.99679   0.95995   0.00000  Uiso   1.00
C1054  C     0.13675   0.53274   0.95654   0.00000  Uiso   1.00
H1055  H     0.11077   0.53194   0.93999   0.00000  Uiso   1.00
H1056  H     0.15608   0.55054   0.94024   0.00000  Uiso   1.00
H1057  H     0.13072   0.54479   0.98550   0.00000  Uiso   1.00
O1058  O     0.34966   0.50579   0.04006   0.00000  Uiso   1.00
C1059  C     0.35978   0.54282   0.04351   0.00000  Uiso   1.00
H1060  H     0.38572   0.54439   0.06006   0.00000  Uiso   1.00
H1061  H     0.33889   0.55874   0.05984   0.00000  Uiso   1.00
H1062  H     0.36467   0.55541   0.01457   0.00000  Uiso   1.00
O1063  O     0.49814   0.65022   0.95991   0.00000  Uiso   1.00
C1064  C     0.46154   0.63861   0.95650   0.00000  Uiso   1.00
H1065  H     0.46100   0.61264   0.93994   0.00000  Uiso   1.00
H1066  H     0.44476   0.65884   0.94022   0.00000  Uiso   1.00
H1067  H     0.44918   0.63320   0.98546   0.00000  Uiso   1.00
O1068  O     0.49923   0.84980   0.04009   0.00000  Uiso   1.00
C1069  C     0.46275   0.86178   0.04355   0.00000  Uiso   1.00
H1070  H     0.46250   0.88776   0.06011   0.00000  Uiso   1.00
H1071  H     0.44577   0.84174   0.05986   0.00000  Uiso   1.00
H1072  H     0.45044   0.86731   0.01461   0.00000  Uiso   1.00
O1073  O     0.34977   0.50317   0.95983   0.00000  Uiso   1.00
C1074  C     0.36323   0.96722   0.95643   0.00000  Uiso   1.00
H1075  H     0.38921   0.96801   0.93984   0.00000  Uiso   1.00
H1076  H     0.34389   0.94942   0.94016   0.00000  Uiso   1.00
H1077  H     0.36927   0.95517   0.98538   0.00000  Uiso   1.00
O1078  O     0.15035   0.99418   0.04018   0.00000  Uiso   1.00
C1079  C     0.14024   0.95714   0.04365   0.00000  Uiso   1.00
H1080  H     0.11430   0.95556   0.06023   0.00000  Uiso   1.00
H1081  H     0.16113   0.94122   0.05995   0.00000  Uiso   1.00
H1082  H     0.13534   0.94456   0.01471   0.00000  Uiso   1.00
O1083  O     0.00187   0.84978   0.95987   0.00000  Uiso   1.00
C1084  C     0.03848   0.86138   0.95643   0.00000  Uiso   1.00
H1085  H     0.03902   0.88735   0.93985   0.00000  Uiso   1.00
H1086  H     0.05526   0.84116   0.94014   0.00000  Uiso   1.00
H1087  H     0.05083   0.86679   0.98537   0.00000  Uiso   1.00
O1088  O     0.00078   0.65021   0.04013   0.00000  Uiso   1.00
C1089  C     0.03726   0.63823   0.04355   0.00000  Uiso   1.00
H1090  H     0.03752   0.61225   0.06013   0.00000  Uiso   1.00
H1091  H     0.05424   0.65827   0.05984   0.00000  Uiso   1.00
H1092  H     0.04957   0.63270   0.01461   0.00000  Uiso   1.00
N1093  N     0.15408   0.90035   0.17820   0.00000  Uiso   1.00
O1094  O     0.18894   0.89658   0.17187   0.00000  Uiso   1.00
O1095  O     0.13386   0.91634   0.15222   0.00000  Uiso   1.00
N1096  N     0.34587   0.59969   0.82178   0.00000  Uiso   1.00
O1097  O     0.31102   0.60353   0.82809   0.00000  Uiso   1.00
O1098  O     0.36604   0.58358   0.84771   0.00000  Uiso   1.00
N1099  N     0.09968   0.65405   0.17821   0.00000  Uiso   1.00
O1100  O     0.10353   0.68888   0.17185   0.00000  Uiso   1.00
O1101  O     0.08355   0.63386   0.15231   0.00000  Uiso   1.00
N1102  N     0.40076   0.84619   0.82160   0.00000  Uiso   1.00
O1103  O     0.39443   0.81196   0.82920   0.00000  Uiso   1.00
O1104  O     0.42147   0.86507   0.84480   0.00000  Uiso   1.00
N1105  N     0.34621   0.59923   0.17839   0.00000  Uiso   1.00
O1106  O     0.31200   0.60568   0.17073   0.00000  Uiso   1.00
O1107  O     0.36502   0.57833   0.15530   0.00000  Uiso   1.00
N1108  N     0.15374   0.90082   0.82160   0.00000  Uiso   1.00
O1109  O     0.18793   0.89433   0.82931   0.00000  Uiso   1.00
O1110  O     0.13495   0.92182   0.84460   0.00000  Uiso   1.00
N1111  N     0.40036   0.84595   0.17820   0.00000  Uiso   1.00
O1112  O     0.39657   0.81110   0.17189   0.00000  Uiso   1.00
O1113  O     0.41637   0.86617   0.15223   0.00000  Uiso   1.00
N1114  N     0.09972   0.65413   0.82178   0.00000  Uiso   1.00
O1115  O     0.10347   0.68899   0.82803   0.00000  Uiso   1.00
O1116  O     0.08383   0.63392   0.84785   0.00000  Uiso   1.00
N1117  N     0.15378   0.59921   0.82160   0.00000  Uiso   1.00
O1118  O     0.18799   0.60567   0.82927   0.00000  Uiso   1.00
O1119  O     0.13498   0.57827   0.84467   0.00000  Uiso   1.00
N1120  N     0.34624   0.90081   0.17840   0.00000  Uiso   1.00
O1121  O     0.31202   0.89439   0.17075   0.00000  Uiso   1.00
O1122  O     0.36507   0.92168   0.15530   0.00000  Uiso   1.00
N1123  N     0.09965   0.84592   0.82180   0.00000  Uiso   1.00
O1124  O     0.10337   0.81107   0.82809   0.00000  Uiso   1.00
O1125  O     0.08378   0.86617   0.84785   0.00000  Uiso   1.00
N1126  N     0.40027   0.65416   0.17821   0.00000  Uiso   1.00
O1127  O     0.39652   0.68902   0.17197   0.00000  Uiso   1.00
O1128  O     0.41616   0.63396   0.15214   0.00000  Uiso   1.00
N1129  N     0.34594   0.90036   0.82179   0.00000  Uiso   1.00
O1130  O     0.31110   0.89649   0.82816   0.00000  Uiso   1.00
O1131  O     0.36613   0.91654   0.84765   0.00000  Uiso   1.00
N1132  N     0.15384   0.59923   0.17840   0.00000  Uiso   1.00
O1133  O     0.18808   0.60556   0.17079   0.00000  Uiso   1.00
O1134  O     0.13497   0.57849   0.15522   0.00000  Uiso   1.00
N1135  N     0.40075   0.65380   0.82161   0.00000  Uiso   1.00
O1136  O     0.39440   0.68804   0.82922   0.00000  Uiso   1.00
O1137  O     0.42147   0.63493   0.84482   0.00000  Uiso   1.00
N1138  N     0.09923   0.84622   0.17840   0.00000  Uiso   1.00
O1139  O     0.10565   0.81201   0.17074   0.00000  Uiso   1.00
O1140  O     0.07837   0.86504   0.15530   0.00000  Uiso   1.00
N1141  N     0.40414   0.65030   0.67822   0.00000  Uiso   1.00
O1142  O     0.43899   0.64648   0.67192   0.00000  Uiso   1.00
O1143  O     0.38396   0.66636   0.65226   0.00000  Uiso   1.00
N1144  N     0.09592   0.84964   0.32179   0.00000  Uiso   1.00
O1145  O     0.06107   0.85344   0.32813   0.00000  Uiso   1.00
O1146  O     0.11614   0.83360   0.34774   0.00000  Uiso   1.00
N1147  N     0.34924   0.90381   0.67839   0.00000  Uiso   1.00
O1148  O     0.35559   0.93804   0.67078   0.00000  Uiso   1.00
O1149  O     0.32849   0.88494   0.65522   0.00000  Uiso   1.00
N1150  N     0.15032   0.59595   0.32179   0.00000  Uiso   1.00
O1151  O     0.14648   0.56112   0.32815   0.00000  Uiso   1.00
O1152  O     0.16643   0.61615   0.34770   0.00000  Uiso   1.00
N1153  N     0.09626   0.84919   0.67840   0.00000  Uiso   1.00
O1154  O     0.06207   0.85567   0.67070   0.00000  Uiso   1.00
O1155  O     0.11505   0.82821   0.65539   0.00000  Uiso   1.00
N1156  N     0.40378   0.65078   0.32160   0.00000  Uiso   1.00
O1157  O     0.43798   0.64431   0.32927   0.00000  Uiso   1.00
O1158  O     0.38498   0.67170   0.34468   0.00000  Uiso   1.00
N1159  N     0.15028   0.59587   0.67821   0.00000  Uiso   1.00
O1160  O     0.14653   0.56101   0.67196   0.00000  Uiso   1.00
O1161  O     0.16618   0.61608   0.65215   0.00000  Uiso   1.00
N1162  N     0.34964   0.90405   0.32180   0.00000  Uiso   1.00
O1163  O     0.35342   0.93890   0.32811   0.00000  Uiso   1.00
O1164  O     0.33365   0.88383   0.34778   0.00000  Uiso   1.00
N1165  N     0.40376   0.84919   0.32160   0.00000  Uiso   1.00
O1166  O     0.43797   0.85561   0.32926   0.00000  Uiso   1.00
O1167  O     0.38493   0.82830   0.34468   0.00000  Uiso   1.00
N1168  N     0.09621   0.65079   0.67839   0.00000  Uiso   1.00
O1169  O     0.06200   0.64434   0.67074   0.00000  Uiso   1.00
O1170  O     0.11502   0.67170   0.65530   0.00000  Uiso   1.00
N1171  N     0.34973   0.59584   0.32178   0.00000  Uiso   1.00
O1172  O     0.35347   0.56098   0.32802   0.00000  Uiso   1.00
O1173  O     0.33385   0.61605   0.34786   0.00000  Uiso   1.00
N1174  N     0.15035   0.90408   0.67820   0.00000  Uiso   1.00
O1175  O     0.14662   0.93893   0.67190   0.00000  Uiso   1.00
O1176  O     0.16624   0.88384   0.65216   0.00000  Uiso   1.00
N1177  N     0.09617   0.65078   0.32160   0.00000  Uiso   1.00
O1178  O     0.06193   0.64443   0.32922   0.00000  Uiso   1.00
O1179  O     0.11503   0.67155   0.34477   0.00000  Uiso   1.00
N1180  N     0.40406   0.84965   0.67820   0.00000  Uiso   1.00
O1181  O     0.43891   0.85349   0.67184   0.00000  Uiso   1.00
O1182  O     0.38387   0.83352   0.65231   0.00000  Uiso   1.00
N1183  N     0.15077   0.90378   0.32160   0.00000  Uiso   1.00
O1184  O     0.14437   0.93799   0.32924   0.00000  Uiso   1.00
O1185  O     0.17160   0.88494   0.34472   0.00000  Uiso   1.00
N1186  N     0.34925   0.59620   0.67839   0.00000  Uiso   1.00
O1187  O     0.35562   0.56197   0.67077   0.00000  Uiso   1.00
O1188  O     0.32850   0.61505   0.65521   0.00000  Uiso   1.00
Zn1189 Zn    0.70659   0.50000   0.21735   0.00000  Uiso   1.00
Zn1190 Zn    0.79340   0.50000   0.78265   0.00000  Uiso   1.00
Zn1191 Zn    0.50000   0.70660   0.21735   0.00000  Uiso   1.00
Zn1192 Zn    0.50000   0.79341   0.78265   0.00000  Uiso   1.00
Zn1193 Zn    0.79340   0.50000   0.21735   0.00000  Uiso   1.00
Zn1194 Zn    0.70659   0.50000   0.78265   0.00000  Uiso   1.00
Zn1195 Zn    0.50000   0.79341   0.21735   0.00000  Uiso   1.00
Zn1196 Zn    0.50000   0.70660   0.78265   0.00000  Uiso   1.00
Zn1197 Zn    0.95659   0.75000   0.71735   0.00000  Uiso   1.00
Zn1198 Zn    0.54340   0.75000   0.28265   0.00000  Uiso   1.00
Zn1199 Zn    0.75000   0.95660   0.71735   0.00000  Uiso   1.00
Zn1200 Zn    0.75000   0.54341   0.28265   0.00000  Uiso   1.00
Zn1201 Zn    0.54340   0.75000   0.71735   0.00000  Uiso   1.00
Zn1202 Zn    0.95659   0.75000   0.28265   0.00000  Uiso   1.00
Zn1203 Zn    0.75000   0.54341   0.71735   0.00000  Uiso   1.00
Zn1204 Zn    0.75000   0.95660   0.28265   0.00000  Uiso   1.00
C1205  C     0.96686   0.74968   0.41871   0.00000  Uiso   1.00
C1206  C     0.53314   0.74978   0.58129   0.00000  Uiso   1.00
C1207  C     0.74984   0.96688   0.41870   0.00000  Uiso   1.00
C1208  C     0.75071   0.53311   0.58130   0.00000  Uiso   1.00
C1209  C     0.53312   0.75033   0.41867   0.00000  Uiso   1.00
C1210  C     0.96688   0.75023   0.58132   0.00000  Uiso   1.00
C1211  C     0.75016   0.53312   0.41869   0.00000  Uiso   1.00
C1212  C     0.74928   0.96689   0.58131   0.00000  Uiso   1.00
C1213  C     0.78310   0.50117   0.91868   0.00000  Uiso   1.00
C1214  C     0.71693   0.99827   0.08133   0.00000  Uiso   1.00
C1215  C     0.50046   0.78311   0.91869   0.00000  Uiso   1.00
C1216  C     0.50010   0.71688   0.08131   0.00000  Uiso   1.00
C1217  C     0.71688   0.99882   0.91871   0.00000  Uiso   1.00
C1218  C     0.78309   0.50171   0.08129   0.00000  Uiso   1.00
C1219  C     0.99955   0.71688   0.91870   0.00000  Uiso   1.00
C1220  C     0.99990   0.78312   0.08130   0.00000  Uiso   1.00
C1221  C     0.99999   0.75001   0.39843   0.00000  Uiso   1.00
C1222  C     0.50001   0.75001   0.60157   0.00000  Uiso   1.00
C1223  C     0.75000   0.50000   0.39843   0.00000  Uiso   1.00
C1224  C     0.75000   0.50000   0.60158   0.00000  Uiso   1.00
C1225  C     0.74999   0.50000   0.89843   0.00000  Uiso   1.00
C1226  C     0.75001   0.99999   0.10158   0.00000  Uiso   1.00
C1227  C     0.50000   0.75000   0.89842   0.00000  Uiso   1.00
C1228  C     0.50000   0.75000   0.10158   0.00000  Uiso   1.00
O1229  O     0.75000   0.50000   0.25000   0.00000  Uiso   1.00
O1230  O     0.75000   0.50000   0.75000   0.00000  Uiso   1.00
O1231  O     0.50000   0.75000   0.25000   0.00000  Uiso   1.00
O1232  O     0.50000   0.75000   0.75000   0.00000  Uiso   1.00
O1233  O     0.75000   0.96964   0.33755   0.00000  Uiso   1.00
O1234  O     0.75000   0.53037   0.66245   0.00000  Uiso   1.00
O1235  O     0.53036   0.75000   0.33755   0.00000  Uiso   1.00
O1236  O     0.96963   0.75000   0.66245   0.00000  Uiso   1.00
O1237  O     0.75000   0.53037   0.33755   0.00000  Uiso   1.00
O1238  O     0.75000   0.96964   0.66245   0.00000  Uiso   1.00
O1239  O     0.96963   0.75000   0.33755   0.00000  Uiso   1.00
O1240  O     0.53036   0.75000   0.66245   0.00000  Uiso   1.00
O1241  O     0.50000   0.71964   0.83755   0.00000  Uiso   1.00
O1242  O     0.50000   0.78037   0.16245   0.00000  Uiso   1.00
O1243  O     0.78036   0.50000   0.83755   0.00000  Uiso   1.00
O1244  O     0.71963   0.50000   0.16245   0.00000  Uiso   1.00
O1245  O     0.50000   0.78037   0.83755   0.00000  Uiso   1.00
O1246  O     0.50000   0.71964   0.16245   0.00000  Uiso   1.00
O1247  O     0.71963   0.50000   0.83755   0.00000  Uiso   1.00
O1248  O     0.78036   0.50000   0.16245   0.00000  Uiso   1.00
O1249  O     0.70724   0.57308   0.27302   0.00000  Uiso   1.00
O1250  O     0.79275   0.92693   0.72698   0.00000  Uiso   1.00
O1251  O     0.92692   0.70725   0.27302   0.00000  Uiso   1.00
O1252  O     0.57307   0.79276   0.72698   0.00000  Uiso   1.00
O1253  O     0.79275   0.92693   0.27302   0.00000  Uiso   1.00
O1254  O     0.70724   0.57308   0.72698   0.00000  Uiso   1.00
O1255  O     0.57307   0.79276   0.27302   0.00000  Uiso   1.00
O1256  O     0.92692   0.70725   0.72698   0.00000  Uiso   1.00
O1257  O     0.70724   0.92693   0.72698   0.00000  Uiso   1.00
O1258  O     0.79275   0.57308   0.27302   0.00000  Uiso   1.00
O1259  O     0.92692   0.79276   0.72698   0.00000  Uiso   1.00
O1260  O     0.57307   0.70725   0.27302   0.00000  Uiso   1.00
O1261  O     0.79275   0.57308   0.72698   0.00000  Uiso   1.00
O1262  O     0.70724   0.92693   0.27302   0.00000  Uiso   1.00
O1263  O     0.57307   0.70725   0.72698   0.00000  Uiso   1.00
O1264  O     0.92692   0.79276   0.27302   0.00000  Uiso   1.00
O1265  O     0.95724   0.82308   0.77302   0.00000  Uiso   1.00
O1266  O     0.54275   0.67693   0.22698   0.00000  Uiso   1.00
O1267  O     0.67692   0.95725   0.77302   0.00000  Uiso   1.00
O1268  O     0.82307   0.54276   0.22698   0.00000  Uiso   1.00
O1269  O     0.54275   0.67693   0.77302   0.00000  Uiso   1.00
O1270  O     0.95724   0.82308   0.22698   0.00000  Uiso   1.00
O1271  O     0.82307   0.54276   0.77302   0.00000  Uiso   1.00
O1272  O     0.67692   0.95725   0.22698   0.00000  Uiso   1.00
O1273  O     0.95724   0.67693   0.22698   0.00000  Uiso   1.00
O1274  O     0.54275   0.82308   0.77302   0.00000  Uiso   1.00
O1275  O     0.67692   0.54276   0.22698   0.00000  Uiso   1.00
O1276  O     0.82307   0.95725   0.77302   0.00000  Uiso   1.00
O1277  O     0.54275   0.82308   0.22698   0.00000  Uiso   1.00
O1278  O     0.95724   0.67693   0.77302   0.00000  Uiso   1.00
O1279  O     0.82307   0.95725   0.22698   0.00000  Uiso   1.00
O1280  O     0.67692   0.54276   0.77302   0.00000  Uiso   1.00
C1281  C     0.56690   0.75113   0.47961   0.00000  Uiso   1.00
C1282  C     0.93310   0.75093   0.52038   0.00000  Uiso   1.00
C1283  C     0.74988   0.56689   0.47964   0.00000  Uiso   1.00
C1284  C     0.74807   0.93313   0.52036   0.00000  Uiso   1.00
C1285  C     0.93309   0.74890   0.47969   0.00000  Uiso   1.00
C1286  C     0.56691   0.74910   0.52031   0.00000  Uiso   1.00
C1287  C     0.75010   0.93310   0.47967   0.00000  Uiso   1.00
C1288  C     0.75192   0.56687   0.52033   0.00000  Uiso   1.00
C1289  C     0.68311   0.99800   0.97970   0.00000  Uiso   1.00
C1290  C     0.81679   0.50400   0.02031   0.00000  Uiso   1.00
C1291  C     0.99862   0.68312   0.97967   0.00000  Uiso   1.00
C1292  C     0.99936   0.81689   0.02033   0.00000  Uiso   1.00
C1293  C     0.81688   0.50197   0.97962   0.00000  Uiso   1.00
C1294  C     0.68321   0.99598   0.02039   0.00000  Uiso   1.00
C1295  C     0.50139   0.81688   0.97964   0.00000  Uiso   1.00
C1296  C     0.50065   0.68311   0.02036   0.00000  Uiso   1.00
C1297  C     0.75000   0.50000   0.35598   0.00000  Uiso   1.00
C1298  C     0.75000   0.50000   0.64402   0.00000  Uiso   1.00
C1299  C     0.99999   0.75000   0.35598   0.00000  Uiso   1.00
C1300  C     0.50001   0.75000   0.64402   0.00000  Uiso   1.00
C1301  C     0.50000   0.75000   0.85598   0.00000  Uiso   1.00
C1302  C     0.50000   0.75000   0.14402   0.00000  Uiso   1.00
C1303  C     0.74999   0.50000   0.85598   0.00000  Uiso   1.00
C1304  C     0.75001   0.50000   0.14402   0.00000  Uiso   1.00
C1305  C     0.67998   0.56998   0.25001   0.00000  Uiso   1.00
C1306  C     0.81998   0.92998   0.75001   0.00000  Uiso   1.00
C1307  C     0.92997   0.68002   0.24999   0.00000  Uiso   1.00
C1308  C     0.57003   0.81998   0.75001   0.00000  Uiso   1.00
C1309  C     0.82003   0.93002   0.25001   0.00000  Uiso   1.00
C1310  C     0.67997   0.56998   0.74999   0.00000  Uiso   1.00
C1311  C     0.56998   0.82002   0.25001   0.00000  Uiso   1.00
C1312  C     0.93002   0.67998   0.74999   0.00000  Uiso   1.00
C1313  C     0.67997   0.93002   0.74999   0.00000  Uiso   1.00
C1314  C     0.82003   0.56998   0.25000   0.00000  Uiso   1.00
C1315  C     0.93002   0.82002   0.74999   0.00000  Uiso   1.00
C1316  C     0.57002   0.68002   0.24999   0.00000  Uiso   1.00
C1317  C     0.81998   0.57002   0.75001   0.00000  Uiso   1.00
C1318  C     0.68002   0.92998   0.24999   0.00000  Uiso   1.00
C1319  C     0.57003   0.68002   0.75001   0.00000  Uiso   1.00
C1320  C     0.92997   0.81998   0.24999   0.00000  Uiso   1.00
C1321  C     0.63846   0.88855   0.21435   0.00000  Uiso   1.00
C1322  C     0.86153   0.61147   0.78564   0.00000  Uiso   1.00
C1323  C     0.61147   0.63844   0.21436   0.00000  Uiso   1.00
C1324  C     0.88871   0.86170   0.78555   0.00000  Uiso   1.00
C1325  C     0.86170   0.61129   0.21444   0.00000  Uiso   1.00
C1326  C     0.63827   0.88874   0.78555   0.00000  Uiso   1.00
C1327  C     0.88855   0.86156   0.21436   0.00000  Uiso   1.00
C1328  C     0.61149   0.63847   0.78564   0.00000  Uiso   1.00
C1329  C     0.63830   0.61128   0.78555   0.00000  Uiso   1.00
C1330  C     0.86172   0.88873   0.21445   0.00000  Uiso   1.00
C1331  C     0.61145   0.86155   0.78564   0.00000  Uiso   1.00
C1332  C     0.88851   0.63849   0.21436   0.00000  Uiso   1.00
C1333  C     0.86156   0.88855   0.78564   0.00000  Uiso   1.00
C1334  C     0.63832   0.61128   0.21445   0.00000  Uiso   1.00
C1335  C     0.88870   0.63831   0.78556   0.00000  Uiso   1.00
C1336  C     0.61128   0.86171   0.21444   0.00000  Uiso   1.00
C1337  C     0.88848   0.63852   0.71436   0.00000  Uiso   1.00
C1338  C     0.61155   0.86145   0.28564   0.00000  Uiso   1.00
C1339  C     0.86129   0.88831   0.71444   0.00000  Uiso   1.00
C1340  C     0.63853   0.61156   0.28564   0.00000  Uiso   1.00
C1341  C     0.61173   0.86126   0.71445   0.00000  Uiso   1.00
C1342  C     0.88829   0.63872   0.28555   0.00000  Uiso   1.00
C1343  C     0.63851   0.61153   0.71436   0.00000  Uiso   1.00
C1344  C     0.86145   0.88844   0.28564   0.00000  Uiso   1.00
C1345  C     0.88828   0.86126   0.28555   0.00000  Uiso   1.00
C1346  C     0.61170   0.63872   0.71444   0.00000  Uiso   1.00
C1347  C     0.86149   0.61151   0.28564   0.00000  Uiso   1.00
C1348  C     0.63854   0.88846   0.71436   0.00000  Uiso   1.00
C1349  C     0.61168   0.63872   0.28555   0.00000  Uiso   1.00
C1350  C     0.88845   0.86145   0.71436   0.00000  Uiso   1.00
C1351  C     0.63872   0.88829   0.28555   0.00000  Uiso   1.00
C1352  C     0.86130   0.61169   0.71444   0.00000  Uiso   1.00
C1353  C     0.53353   0.75047   0.45922   0.00000  Uiso   1.00
C1354  C     0.96647   0.75037   0.54078   0.00000  Uiso   1.00
C1355  C     0.75003   0.53353   0.45923   0.00000  Uiso   1.00
C1356  C     0.74913   0.96648   0.54077   0.00000  Uiso   1.00
C1357  C     0.96646   0.74955   0.45926   0.00000  Uiso   1.00
C1358  C     0.53354   0.74965   0.54074   0.00000  Uiso   1.00
C1359  C     0.74996   0.96647   0.45925   0.00000  Uiso   1.00
C1360  C     0.75086   0.53352   0.54076   0.00000  Uiso   1.00
C1361  C     0.71647   0.99891   0.95926   0.00000  Uiso   1.00
C1362  C     0.78349   0.50189   0.04075   0.00000  Uiso   1.00
C1363  C     0.99941   0.71647   0.95924   0.00000  Uiso   1.00
C1364  C     0.99978   0.78353   0.04075   0.00000  Uiso   1.00
C1365  C     0.78352   0.50107   0.95922   0.00000  Uiso   1.00
C1366  C     0.71652   0.99809   0.04078   0.00000  Uiso   1.00
C1367  C     0.50060   0.78353   0.95923   0.00000  Uiso   1.00
C1368  C     0.50023   0.71647   0.04077   0.00000  Uiso   1.00
H1369  H     0.94135   0.74954   0.40277   0.00000  Uiso   1.00
H1370  H     0.55865   0.74972   0.59723   0.00000  Uiso   1.00
H1371  H     0.74959   0.94138   0.40275   0.00000  Uiso   1.00
H1372  H     0.75117   0.55861   0.59725   0.00000  Uiso   1.00
H1373  H     0.55863   0.75048   0.40271   0.00000  Uiso   1.00
H1374  H     0.94137   0.75030   0.59729   0.00000  Uiso   1.00
H1375  H     0.75040   0.55862   0.40273   0.00000  Uiso   1.00
H1376  H     0.74883   0.94139   0.59727   0.00000  Uiso   1.00
H1377  H     0.80859   0.50222   0.90271   0.00000  Uiso   1.00
H1378  H     0.69145   0.99701   0.09730   0.00000  Uiso   1.00
H1379  H     0.50071   0.80862   0.90273   0.00000  Uiso   1.00
H1380  H     0.50006   0.69138   0.09727   0.00000  Uiso   1.00
H1381  H     0.69139   0.99778   0.90277   0.00000  Uiso   1.00
H1382  H     0.80857   0.50297   0.09724   0.00000  Uiso   1.00
H1383  H     0.99930   0.69138   0.90275   0.00000  Uiso   1.00
H1384  H     0.99994   0.80863   0.09725   0.00000  Uiso   1.00
C1385  C     0.59798   0.84820   0.25005   0.00000  Uiso   1.00
C1386  C     0.90202   0.65180   0.74995   0.00000  Uiso   1.00
C1387  C     0.65181   0.59799   0.25005   0.00000  Uiso   1.00
C1388  C     0.84799   0.90181   0.75005   0.00000  Uiso   1.00
C1389  C     0.90178   0.65204   0.24995   0.00000  Uiso   1.00
C1390  C     0.59822   0.84796   0.75005   0.00000  Uiso   1.00
C1391  C     0.84821   0.90203   0.25005   0.00000  Uiso   1.00
C1392  C     0.65178   0.59797   0.74995   0.00000  Uiso   1.00
C1393  C     0.59821   0.65203   0.75005   0.00000  Uiso   1.00
C1394  C     0.90179   0.84797   0.24995   0.00000  Uiso   1.00
C1395  C     0.65178   0.90204   0.74995   0.00000  Uiso   1.00
C1396  C     0.84822   0.59796   0.25004   0.00000  Uiso   1.00
C1397  C     0.90201   0.84819   0.74995   0.00000  Uiso   1.00
C1398  C     0.59819   0.65201   0.24995   0.00000  Uiso   1.00
C1399  C     0.84798   0.59820   0.75005   0.00000  Uiso   1.00
C1400  C     0.65202   0.90180   0.24994   0.00000  Uiso   1.00
C1401  C     0.50000   0.75001   0.47964   0.00000  Uiso   1.00
C1402  C     0.50000   0.75001   0.52036   0.00000  Uiso   1.00
C1403  C     0.75000   0.50000   0.47964   0.00000  Uiso   1.00
C1404  C     0.74999   0.50000   0.52036   0.00000  Uiso   1.00
C1405  C     0.75000   0.99999   0.97964   0.00000  Uiso   1.00
C1406  C     0.75000   0.99999   0.02037   0.00000  Uiso   1.00
C1407  C     0.50000   0.75000   0.97964   0.00000  Uiso   1.00
C1408  C     0.50000   0.75000   0.02036   0.00000  Uiso   1.00
O1409  O     0.59981   0.75149   0.45983   0.00000  Uiso   1.00
C1410  C     0.61155   0.78804   0.45638   0.00000  Uiso   1.00
H1411  H     0.59138   0.80488   0.44010   0.00000  Uiso   1.00
H1412  H     0.63753   0.78848   0.43979   0.00000  Uiso   1.00
H1413  H     0.61700   0.80038   0.48532   0.00000  Uiso   1.00
O1414  O     0.90019   0.75119   0.54017   0.00000  Uiso   1.00
C1415  C     0.88835   0.78770   0.54361   0.00000  Uiso   1.00
H1416  H     0.90847   0.80460   0.55989   0.00000  Uiso   1.00
H1417  H     0.86236   0.78807   0.56020   0.00000  Uiso   1.00
H1418  H     0.88286   0.80003   0.51467   0.00000  Uiso   1.00
O1419  O     0.75003   0.59980   0.45987   0.00000  Uiso   1.00
C1420  C     0.71366   0.61209   0.45646   0.00000  Uiso   1.00
H1421  H     0.69650   0.59219   0.44019   0.00000  Uiso   1.00
H1422  H     0.71362   0.63807   0.43989   0.00000  Uiso   1.00
H1423  H     0.70141   0.61774   0.48542   0.00000  Uiso   1.00
O1424  O     0.74731   0.90024   0.54013   0.00000  Uiso   1.00
C1425  C     0.71061   0.88896   0.54359   0.00000  Uiso   1.00
H1426  H     0.69401   0.90933   0.55990   0.00000  Uiso   1.00
H1427  H     0.70985   0.86299   0.56017   0.00000  Uiso   1.00
H1428  H     0.69820   0.88366   0.51466   0.00000  Uiso   1.00
O1429  O     0.90018   0.74855   0.45995   0.00000  Uiso   1.00
C1430  C     0.88843   0.71201   0.45652   0.00000  Uiso   1.00
H1431  H     0.90860   0.69516   0.44021   0.00000  Uiso   1.00
H1432  H     0.86245   0.71158   0.43996   0.00000  Uiso   1.00
H1433  H     0.88298   0.69967   0.48547   0.00000  Uiso   1.00
O1434  O     0.59982   0.74886   0.54005   0.00000  Uiso   1.00
C1435  C     0.61167   0.71235   0.54350   0.00000  Uiso   1.00
H1436  H     0.59156   0.69545   0.55982   0.00000  Uiso   1.00
H1437  H     0.63766   0.71199   0.56005   0.00000  Uiso   1.00
H1438  H     0.61716   0.70001   0.51456   0.00000  Uiso   1.00
O1439  O     0.74995   0.90020   0.45991   0.00000  Uiso   1.00
C1440  C     0.78632   0.88790   0.45647   0.00000  Uiso   1.00
H1441  H     0.80349   0.90780   0.44017   0.00000  Uiso   1.00
H1442  H     0.78636   0.86192   0.43990   0.00000  Uiso   1.00
H1443  H     0.79857   0.88226   0.48542   0.00000  Uiso   1.00
O1444  O     0.75267   0.59976   0.54009   0.00000  Uiso   1.00
C1445  C     0.78937   0.61105   0.54352   0.00000  Uiso   1.00
H1446  H     0.80596   0.59069   0.55982   0.00000  Uiso   1.00
H1447  H     0.79012   0.63702   0.56008   0.00000  Uiso   1.00
H1448  H     0.80179   0.61635   0.51457   0.00000  Uiso   1.00
O1449  O     0.65022   0.99679   0.95995   0.00000  Uiso   1.00
C1450  C     0.63675   0.53274   0.95654   0.00000  Uiso   1.00
H1451  H     0.61077   0.53194   0.93999   0.00000  Uiso   1.00
H1452  H     0.65608   0.55054   0.94024   0.00000  Uiso   1.00
H1453  H     0.63072   0.54479   0.98550   0.00000  Uiso   1.00
O1454  O     0.84966   0.50579   0.04006   0.00000  Uiso   1.00
C1455  C     0.85978   0.54282   0.04351   0.00000  Uiso   1.00
H1456  H     0.88572   0.54439   0.06006   0.00000  Uiso   1.00
H1457  H     0.83889   0.55874   0.05984   0.00000  Uiso   1.00
H1458  H     0.86467   0.55541   0.01457   0.00000  Uiso   1.00
O1459  O     0.99814   0.65022   0.95991   0.00000  Uiso   1.00
C1460  C     0.96154   0.63861   0.95650   0.00000  Uiso   1.00
H1461  H     0.96100   0.61264   0.93994   0.00000  Uiso   1.00
H1462  H     0.94476   0.65884   0.94022   0.00000  Uiso   1.00
H1463  H     0.94918   0.63320   0.98546   0.00000  Uiso   1.00
O1464  O     0.99923   0.84980   0.04009   0.00000  Uiso   1.00
C1465  C     0.96275   0.86178   0.04355   0.00000  Uiso   1.00
H1466  H     0.96250   0.88776   0.06011   0.00000  Uiso   1.00
H1467  H     0.94577   0.84174   0.05986   0.00000  Uiso   1.00
H1468  H     0.95044   0.86731   0.01461   0.00000  Uiso   1.00
O1469  O     0.84977   0.50317   0.95983   0.00000  Uiso   1.00
C1470  C     0.86323   0.96722   0.95643   0.00000  Uiso   1.00
H1471  H     0.88921   0.96801   0.93984   0.00000  Uiso   1.00
H1472  H     0.84389   0.94942   0.94016   0.00000  Uiso   1.00
H1473  H     0.86927   0.95517   0.98538   0.00000  Uiso   1.00
O1474  O     0.65035   0.99418   0.04018   0.00000  Uiso   1.00
C1475  C     0.64024   0.95714   0.04365   0.00000  Uiso   1.00
H1476  H     0.61430   0.95556   0.06023   0.00000  Uiso   1.00
H1477  H     0.66113   0.94122   0.05995   0.00000  Uiso   1.00
H1478  H     0.63534   0.94456   0.01471   0.00000  Uiso   1.00
O1479  O     0.50187   0.84978   0.95987   0.00000  Uiso   1.00
C1480  C     0.53848   0.86138   0.95643   0.00000  Uiso   1.00
H1481  H     0.53902   0.88735   0.93985   0.00000  Uiso   1.00
H1482  H     0.55526   0.84116   0.94014   0.00000  Uiso   1.00
H1483  H     0.55083   0.86679   0.98537   0.00000  Uiso   1.00
O1484  O     0.50078   0.65021   0.04013   0.00000  Uiso   1.00
C1485  C     0.53726   0.63823   0.04355   0.00000  Uiso   1.00
H1486  H     0.53752   0.61225   0.06013   0.00000  Uiso   1.00
H1487  H     0.55424   0.65827   0.05984   0.00000  Uiso   1.00
H1488  H     0.54957   0.63270   0.01461   0.00000  Uiso   1.00
N1489  N     0.65408   0.90035   0.17820   0.00000  Uiso   1.00
O1490  O     0.68894   0.89658   0.17187   0.00000  Uiso   1.00
O1491  O     0.63386   0.91634   0.15222   0.00000  Uiso   1.00
N1492  N     0.84587   0.59969   0.82178   0.00000  Uiso   1.00
O1493  O     0.81102   0.60353   0.82809   0.00000  Uiso   1.00
O1494  O     0.86604   0.58358   0.84771   0.00000  Uiso   1.00
N1495  N     0.59968   0.65405   0.17821   0.00000  Uiso   1.00
O1496  O     0.60353   0.68888   0.17185   0.00000  Uiso   1.00
O1497  O     0.58355   0.63386   0.15231   0.00000  Uiso   1.00
N1498  N     0.90076   0.84619   0.82160   0.00000  Uiso   1.00
O1499  O     0.89443   0.81196   0.82920   0.00000  Uiso   1.00
O1500  O     0.92147   0.86507   0.84480   0.00000  Uiso   1.00
N1501  N     0.84621   0.59923   0.17839   0.00000  Uiso   1.00
O1502  O     0.81200   0.60568   0.17073   0.00000  Uiso   1.00
O1503  O     0.86502   0.57833   0.15530   0.00000  Uiso   1.00
N1504  N     0.65374   0.90082   0.82160   0.00000  Uiso   1.00
O1505  O     0.68793   0.89433   0.82931   0.00000  Uiso   1.00
O1506  O     0.63495   0.92182   0.84460   0.00000  Uiso   1.00
N1507  N     0.90036   0.84595   0.17820   0.00000  Uiso   1.00
O1508  O     0.89657   0.81110   0.17189   0.00000  Uiso   1.00
O1509  O     0.91637   0.86617   0.15223   0.00000  Uiso   1.00
N1510  N     0.59972   0.65413   0.82178   0.00000  Uiso   1.00
O1511  O     0.60347   0.68899   0.82803   0.00000  Uiso   1.00
O1512  O     0.58383   0.63392   0.84785   0.00000  Uiso   1.00
N1513  N     0.65378   0.59921   0.82160   0.00000  Uiso   1.00
O1514  O     0.68799   0.60567   0.82927   0.00000  Uiso   1.00
O1515  O     0.63498   0.57827   0.84467   0.00000  Uiso   1.00
N1516  N     0.84624   0.90081   0.17840   0.00000  Uiso   1.00
O1517  O     0.81202   0.89439   0.17075   0.00000  Uiso   1.00
O1518  O     0.86507   0.92168   0.15530   0.00000  Uiso   1.00
N1519  N     0.59965   0.84592   0.82180   0.00000  Uiso   1.00
O1520  O     0.60337   0.81107   0.82809   0.00000  Uiso   1.00
O1521  O     0.58378   0.86617   0.84785   0.00000  Uiso   1.00
N1522  N     0.90027   0.65416   0.17821   0.00000  Uiso   1.00
O1523  O     0.89652   0.68902   0.17197   0.00000  Uiso   1.00
O1524  O     0.91616   0.63396   0.15214   0.00000  Uiso   1.00
N1525  N     0.84594   0.90036   0.82179   0.00000  Uiso   1.00
O1526  O     0.81110   0.89649   0.82816   0.00000  Uiso   1.00
O1527  O     0.86613   0.91654   0.84765   0.00000  Uiso   1.00
N1528  N     0.65384   0.59923   0.17840   0.00000  Uiso   1.00
O1529  O     0.68808   0.60556   0.17079   0.00000  Uiso   1.00
O1530  O     0.63497   0.57849   0.15522   0.00000  Uiso   1.00
N1531  N     0.90075   0.65380   0.82161   0.00000  Uiso   1.00
O1532  O     0.89440   0.68804   0.82922   0.00000  Uiso   1.00
O1533  O     0.92147   0.63493   0.84482   0.00000  Uiso   1.00
N1534  N     0.59923   0.84622   0.17840   0.00000  Uiso   1.00
O1535  O     0.60565   0.81201   0.17074   0.00000  Uiso   1.00
O1536  O     0.57837   0.86504   0.15530   0.00000  Uiso   1.00
N1537  N     0.90414   0.65030   0.67822   0.00000  Uiso   1.00
O1538  O     0.93899   0.64648   0.67192   0.00000  Uiso   1.00
O1539  O     0.88396   0.66636   0.65226   0.00000  Uiso   1.00
N1540  N     0.59592   0.84964   0.32179   0.00000  Uiso   1.00
O1541  O     0.56107   0.85344   0.32813   0.00000  Uiso   1.00
O1542  O     0.61614   0.83360   0.34774   0.00000  Uiso   1.00
N1543  N     0.84924   0.90381   0.67839   0.00000  Uiso   1.00
O1544  O     0.85559   0.93804   0.67078   0.00000  Uiso   1.00
O1545  O     0.82849   0.88494   0.65522   0.00000  Uiso   1.00
N1546  N     0.65032   0.59595   0.32179   0.00000  Uiso   1.00
O1547  O     0.64648   0.56112   0.32815   0.00000  Uiso   1.00
O1548  O     0.66643   0.61615   0.34770   0.00000  Uiso   1.00
N1549  N     0.59626   0.84919   0.67840   0.00000  Uiso   1.00
O1550  O     0.56207   0.85567   0.67070   0.00000  Uiso   1.00
O1551  O     0.61505   0.82821   0.65539   0.00000  Uiso   1.00
N1552  N     0.90378   0.65078   0.32160   0.00000  Uiso   1.00
O1553  O     0.93798   0.64431   0.32927   0.00000  Uiso   1.00
O1554  O     0.88498   0.67170   0.34468   0.00000  Uiso   1.00
N1555  N     0.65028   0.59587   0.67821   0.00000  Uiso   1.00
O1556  O     0.64653   0.56101   0.67196   0.00000  Uiso   1.00
O1557  O     0.66618   0.61608   0.65215   0.00000  Uiso   1.00
N1558  N     0.84964   0.90405   0.32180   0.00000  Uiso   1.00
O1559  O     0.85342   0.93890   0.32811   0.00000  Uiso   1.00
O1560  O     0.83365   0.88383   0.34778   0.00000  Uiso   1.00
N1561  N     0.90376   0.84919   0.32160   0.00000  Uiso   1.00
O1562  O     0.93797   0.85561   0.32926   0.00000  Uiso   1.00
O1563  O     0.88493   0.82830   0.34468   0.00000  Uiso   1.00
N1564  N     0.59621   0.65079   0.67839   0.00000  Uiso   1.00
O1565  O     0.56200   0.64434   0.67074   0.00000  Uiso   1.00
O1566  O     0.61502   0.67170   0.65530   0.00000  Uiso   1.00
N1567  N     0.84973   0.59584   0.32178   0.00000  Uiso   1.00
O1568  O     0.85347   0.56098   0.32802   0.00000  Uiso   1.00
O1569  O     0.83385   0.61605   0.34786   0.00000  Uiso   1.00
N1570  N     0.65035   0.90408   0.67820   0.00000  Uiso   1.00
O1571  O     0.64662   0.93893   0.67190   0.00000  Uiso   1.00
O1572  O     0.66624   0.88384   0.65216   0.00000  Uiso   1.00
N1573  N     0.59617   0.65078   0.32160   0.00000  Uiso   1.00
O1574  O     0.56193   0.64443   0.32922   0.00000  Uiso   1.00
O1575  O     0.61503   0.67155   0.34477   0.00000  Uiso   1.00
N1576  N     0.90406   0.84965   0.67820   0.00000  Uiso   1.00
O1577  O     0.93891   0.85349   0.67184   0.00000  Uiso   1.00
O1578  O     0.88387   0.83352   0.65231   0.00000  Uiso   1.00
N1579  N     0.65077   0.90378   0.32160   0.00000  Uiso   1.00
O1580  O     0.64437   0.93799   0.32924   0.00000  Uiso   1.00
O1581  O     0.67160   0.88494   0.34472   0.00000  Uiso   1.00
N1582  N     0.84925   0.59620   0.67839   0.00000  Uiso   1.00
O1583  O     0.85562   0.56197   0.67077   0.00000  Uiso   1.00
O1584  O     0.82850   0.61505   0.65521   0.00000  Uiso   1.00
loop_
_geom_bond_atom_site_label_1
_geom_bond_atom_site_label_2
_geom_bond_distance
_geom_bond_site_symmetry_2
_ccdc_geom_bond_type
Zn1    O87     1.933   .     S
Zn1    O56     1.951   .     S
Zn1    O41     1.947   .     S
Zn1    O876    1.933   1_545 S
Zn2    O55     1.951   .     S
Zn2    O83     1.933   .     S
Zn2    O42     1.947   .     S
Zn2    O880    1.933   1_545 S
Zn3    O481    1.933   1_455 S
Zn3    O43     1.947   .     S
Zn3    O58     1.951   .     S
Zn3    O78     1.933   .     S
Zn4    O44     1.947   .     S
Zn4    O473    1.933   1_455 S
Zn4    O57     1.951   .     S
Zn4    O86     1.933   .     S
Zn5    O60     1.951   .     S
Zn5    O80     1.934   .     S
Zn5    O41     1.946   .     S
Zn5    O883    1.934   1_545 S
Zn6    O42     1.946   .     S
Zn6    O92     1.934   .     S
Zn6    O59     1.951   .     S
Zn6    O871    1.934   1_545 S
Zn7    O43     1.947   .     S
Zn7    O54     1.951   .     S
Zn7    O89     1.933   .     S
Zn7    O478    1.933   1_455 S
Zn8    O81     1.933   .     S
Zn8    O53     1.951   .     S
Zn8    O44     1.947   .     S
Zn8    O486    1.933   1_455 S
Zn9    O48     1.951   .     S
Zn9    O71     1.933   .     S
Zn9    O440    1.947   .     S
Zn9    O68     1.933   .     S
Zn10   O47     1.951   .     S
Zn10   O72     1.933   .     S
Zn10   O67     1.933   .     S
Zn10   O43     1.947   .     S
Zn11   O62     1.933   .     S
Zn11   O69     1.933   .     S
Zn11   O50     1.951   .     S
Zn11   O834    1.947   .     S
Zn12   O49     1.951   .     S
Zn12   O70     1.933   .     S
Zn12   O41     1.947   .     S
Zn12   O61     1.933   .     S
Zn13   O75     1.934   .     S
Zn13   O52     1.951   .     S
Zn13   O64     1.934   .     S
Zn13   O44     1.946   .     S
Zn14   O76     1.934   .     S
Zn14   O51     1.951   .     S
Zn14   O63     1.934   .     S
Zn14   O439    1.946   .     S
Zn15   O66     1.933   .     S
Zn15   O42     1.947   .     S
Zn15   O46     1.951   .     S
Zn15   O73     1.933   .     S
Zn16   O45     1.951   .     S
Zn16   O65     1.933   .     S
Zn16   O74     1.933   .     S
Zn16   O833    1.947   .     S
C17    H181    1.083   .     S
C17    C33     1.399   .     A
C17    C169    1.397   .     A
C18    C170    1.397   .     A
C18    C34     1.399   .     A
C18    H182    1.083   .     S
C19    C827    1.399   .     A
C19    C171    1.397   .     A
C19    H183    1.083   .     S
C20    H184    1.083   .     S
C20    C172    1.397   .     A
C20    C36     1.399   .     A
C21    C165    1.397   .     A
C21    H185    1.083   .     S
C21    C429    1.399   1_455 S
C22    C166    1.397   .     A
C22    H186    1.083   .     S
C22    C430    1.399   .     S
C23    C167    1.397   .     A
C23    H187    1.083   .     S
C23    C35     1.399   .     S
C24    H188    1.083   .     S
C24    C168    1.397   .     A
C24    C828    1.399   .     S
C25    H189    1.083   .     S
C25    C177    1.397   .     A
C25    C37     1.399   .     S
C26    C38     1.399   .     A
C26    H190    1.083   .     S
C26    C178    1.397   .     A
C27    C179    1.397   .     A
C27    H191    1.083   .     S
C27    C39     1.399   .     A
C28    C40     1.399   .     A
C28    C180    1.397   .     A
C28    H192    1.083   .     S
C29    H193    1.083   .     S
C29    C829    1.399   .     A
C29    C173    1.397   .     A
C30    C174    1.397   .     A
C30    H194    1.083   .     S
C30    C830    1.399   1_545 S
C31    H195    1.083   .     S
C31    C175    1.397   .     A
C31    C435    1.399   .     S
C32    H196    1.083   .     S
C32    C176    1.397   .     A
C32    C436    1.399   .     S
C33    C111    1.462   .     S
C33    C417    1.399   .     S
C34    C112    1.462   .     S
C34    C418    1.399   1_455 S
C35    C811    1.399   1_545 A
C35    C109    1.462   .     S
C36    C110    1.462   .     S
C36    C816    1.399   1_545 S
C37    C115    1.462   .     S
C37    C821    1.399   1_545 A
C38    C908    1.462   .     S
C38    C822    1.399   .     S
C39    C113    1.462   .     S
C39    C427    1.399   1_455 S
C40    C428    1.399   1_455 S
C40    C114    1.462   .     S
O41    Zn808   1.947   1_545 S
O42    Zn803   1.947   1_545 S
O43    Zn410   1.946   1_455 S
O44    Zn405   1.947   1_455 S
O45    C901    1.280   .     A
O46    C110    1.280   .     A
O47    C507    1.280   1_455 S
O48    C508    1.280   .     S
O49    C109    1.280   .     S
O50    C902    1.280   .     S
O51    C111    1.280   .     A
O52    C112    1.280   .     A
O53    C113    1.280   .     A
O54    C114    1.280   .     S
O55    C115    1.280   .     S
O56    C116    1.280   .     S
O57    C113    1.280   .     A
O58    C114    1.280   .     S
O59    C115    1.280   .     S
O60    C116    1.280   .     S
O61    C117    1.280   .     A
O62    C118    1.279   .     A
O63    C119    1.279   .     A
O64    C120    1.279   .     A
O65    C121    1.279   .     A
O66    C122    1.279   .     A
O67    C123    1.280   .     A
O68    C124    1.280   .     A
O69    C125    1.279   .     A
O70    C126    1.279   .     A
O71    C127    1.280   .     A
O72    C128    1.279   .     A
O73    C129    1.279   .     A
O74    C130    1.279   .     A
O75    C131    1.279   .     A
O76    C132    1.279   .     A
O77    C127    1.279   .     A
O77    Zn400   1.933   .     S
O78    C128    1.280   .     A
O79    C125    1.279   .     A
O79    Zn798   1.934   .     S
O80    C126    1.279   .     A
O81    C131    1.279   .     A
O82    C132    1.279   .     A
O82    Zn403   1.933   .     S
O83    C129    1.280   .     A
O84    C130    1.280   .     A
O84    Zn793   1.933   .     S
O85    Zn399   1.933   .     S
O85    C119    1.279   .     A
O86    C120    1.279   .     A
O87    C117    1.279   .     A
O88    C118    1.280   .     A
O88    Zn794   1.933   .     S
O89    C123    1.279   .     A
O90    C124    1.279   .     A
O90    Zn404   1.933   .     S
O91    C121    1.279   .     A
O91    Zn797   1.934   .     S
O92    C122    1.279   .     A
C93    C165    1.409   .     A
C93    O221    1.384   .     S
C93    C98     1.404   .     A
C94    C97     1.404   .     A
C94    C166    1.409   .     A
C94    O226    1.384   .     S
C95    O231    1.384   .     S
C95    C100    1.404   .     A
C95    C167    1.409   .     A
C96    C99     1.404   .     A
C96    C168    1.409   .     A
C96    O236    1.384   .     S
C97    O241    1.384   .     S
C97    C169    1.409   .     A
C98    C170    1.409   .     A
C98    O246    1.384   .     S
C99    O251    1.384   .     S
C99    C171    1.409   .     A
C100   C172    1.409   .     A
C100   O256    1.384   .     S
C101   C173    1.409   .     A
C101   O261    1.384   .     S
C101   C106    1.404   1_556 S
C102   C174    1.409   .     A
C102   O266    1.384   .     S
C102   C105    1.404   1_554 S
C103   O271    1.384   .     S
C103   C175    1.409   .     A
C103   C504    1.404   1_556 S
C104   C176    1.409   .     A
C104   O276    1.384   .     S
C104   C503    1.404   1_554 S
C105   O281    1.384   .     S
C105   C177    1.409   .     A
C105   C102    1.404   1_556 S
C106   C178    1.409   .     A
C106   O286    1.384   .     S
C106   C101    1.404   1_554 S
C107   C179    1.409   .     A
C107   O291    1.384   .     S
C107   C500    1.404   1_456 S
C108   O296    1.384   .     S
C108   C180    1.409   .     A
C108   C499    1.404   1_454 S
C109   O837    1.280   1_545 A
C110   O842    1.280   1_545 S
C111   O443    1.280   .     S
C112   O444    1.280   1_455 S
C116   C830    1.462   1_545 S
C117   C199    1.454   .     S
C118   C200    1.454   .     S
C119   C201    1.454   .     S
C120   C202    1.454   .     S
C121   C203    1.454   .     S
C122   C204    1.454   .     S
C123   C197    1.454   .     S
C124   C198    1.454   .     S
C125   C207    1.454   .     S
C126   C208    1.454   .     S
C127   C209    1.454   .     S
C128   C210    1.454   .     S
C129   C211    1.454   .     S
C130   C212    1.454   .     S
C131   C205    1.454   .     S
C132   C206    1.454   .     S
C133   N301    1.437   .     S
C133   C148    1.398   .     A
C133   C212    1.409   .     A
C134   C211    1.409   .     A
C134   C147    1.398   .     A
C134   N304    1.437   .     S
C135   C146    1.398   .     A
C135   C210    1.409   .     A
C135   N307    1.437   .     S
C136   C209    1.409   .     A
C136   C145    1.398   .     A
C136   N310    1.435   .     S
C137   N313    1.435   .     S
C137   C144    1.398   .     A
C137   C208    1.409   .     A
C138   C143    1.398   .     A
C138   N316    1.435   .     S
C138   C207    1.409   .     A
C139   C142    1.398   .     A
C139   N319    1.437   .     S
C139   C206    1.409   .     A
C140   C205    1.409   .     A
C140   C141    1.398   .     A
C140   N322    1.437   .     S
C141   N325    1.435   .     S
C141   C204    1.409   .     A
C142   N328    1.435   .     S
C142   C203    1.409   .     A
C143   N331    1.437   .     S
C143   C202    1.409   .     A
C144   N334    1.437   .     S
C144   C201    1.409   .     A
C145   C200    1.409   .     A
C145   N337    1.437   .     S
C146   N340    1.435   .     S
C146   C199    1.409   .     A
C147   C198    1.409   .     A
C147   N343    1.435   .     S
C148   N346    1.435   .     S
C148   C197    1.409   .     A
C149   N349    1.437   .     S
C149   C164    1.398   .     A
C149   C198    1.409   .     A
C150   C163    1.398   .     A
C150   N352    1.437   .     S
C150   C197    1.409   .     A
C151   C200    1.409   .     A
C151   C162    1.398   .     A
C151   N355    1.435   .     S
C152   C161    1.398   .     A
C152   C199    1.409   .     A
C152   N358    1.437   .     S
C153   C202    1.409   .     A
C153   N361    1.435   .     S
C153   C160    1.398   .     A
C154   C201    1.409   .     A
C154   N364    1.435   .     S
C154   C159    1.398   .     A
C155   C158    1.398   .     A
C155   N367    1.437   .     S
C155   C204    1.409   .     A
C156   C203    1.409   .     A
C156   C157    1.398   .     A
C156   N370    1.437   .     S
C157   N373    1.435   .     S
C157   C206    1.409   .     A
C158   N376    1.435   .     S
C158   C205    1.409   .     A
C159   N379    1.437   .     S
C159   C208    1.409   .     A
C160   N382    1.437   .     S
C160   C207    1.409   .     A
C161   N385    1.435   .     S
C161   C210    1.409   .     A
C162   N388    1.437   .     S
C162   C209    1.409   .     A
C163   C212    1.409   .     A
C163   N391    1.435   .     S
C164   N394    1.435   .     S
C164   C211    1.409   .     A
C165   C213    1.414   .     S
C166   C610    1.414   .     S
C167   C215    1.414   .     S
C168   C1008   1.414   .     S
C169   C609    1.414   .     A
C170   C214    1.414   .     A
C171   C1007   1.414   .     A
C172   C216    1.414   .     A
C173   C217    1.414   .     A
C174   C1010   1.414   1_545 S
C175   C615    1.414   .     S
C176   C616    1.414   .     S
C177   C1009   1.414   1_545 S
C178   C218    1.414   .     A
C179   C219    1.414   .     A
C180   C220    1.414   .     A
C213   C565    1.414   1_455 A
C213   C214    1.403   .     S
C214   C562    1.414   1_455 S
C215   C963    1.414   1_545 A
C215   C216    1.403   .     S
C216   C960    1.414   1_545 S
C217   C969    1.414   .     S
C217   C218    1.403   1_556 S
C218   C966    1.414   .     S
C218   C217    1.403   1_554 S
C219   C571    1.414   1_455 S
C219   C220    1.403   1_556 S
C220   C572    1.414   1_455 S
C220   C219    1.403   1_554 S
O221   C222    1.410   .     S
C222   H225    1.113   .     S
C222   H224    1.109   .     S
C222   H223    1.114   .     S
O226   C227    1.410   .     S
C227   H230    1.113   .     S
C227   H229    1.109   .     S
C227   H228    1.114   .     S
O231   C232    1.410   .     S
C232   H234    1.109   .     S
C232   H233    1.114   .     S
C232   H235    1.113   .     S
O236   C237    1.410   .     S
C237   H238    1.114   .     S
C237   H240    1.113   .     S
C237   H239    1.109   .     S
O241   C242    1.410   .     S
C242   H245    1.113   .     S
C242   H244    1.109   .     S
C242   H243    1.114   .     S
O246   C247    1.410   .     S
C247   H250    1.113   .     S
C247   H248    1.114   .     S
C247   H249    1.109   .     S
O251   C252    1.410   .     S
C252   H255    1.113   .     S
C252   H253    1.114   .     S
C252   H254    1.109   .     S
O256   C257    1.410   .     S
C257   H260    1.113   .     S
C257   H258    1.114   .     S
C257   H259    1.109   .     S
O261   C1054   1.410   .     S
C262   H263    1.109   .     S
C262   H265    1.113   .     S
C262   H264    1.114   .     S
C262   O1053   1.410   1_545 S
O266   C267    1.410   .     S
C267   H270    1.113   .     S
C267   H268    1.109   .     S
C267   H269    1.114   .     S
O271   C272    1.410   .     S
C272   H273    1.109   .     S
C272   H275    1.113   .     S
C272   H274    1.114   .     S
O276   C277    1.410   .     S
C277   H279    1.114   .     S
C277   H280    1.113   .     S
C277   H278    1.109   .     S
O281   C1074   1.410   1_545 S
C282   H283    1.109   .     S
C282   H284    1.114   .     S
C282   H285    1.113   .     S
C282   O1073   1.410   .     S
O286   C287    1.410   .     S
C287   H290    1.113   .     S
C287   H289    1.114   .     S
C287   H288    1.109   .     S
O291   C292    1.410   .     S
C292   H294    1.114   .     S
C292   H293    1.109   .     S
C292   H295    1.113   .     S
O296   C297    1.410   .     S
C297   H299    1.114   .     S
C297   H298    1.109   .     S
C297   H300    1.113   .     S
N301   O302    1.301   .     A
N301   O303    1.301   .     A
N304   O306    1.301   .     A
N304   O305    1.301   .     A
N307   O309    1.301   .     A
N307   O308    1.301   .     A
N310   O312    1.301   .     A
N310   O311    1.301   .     A
N313   O314    1.301   .     A
N313   O315    1.301   .     A
N316   O317    1.301   .     A
N316   O318    1.301   .     A
N319   O321    1.301   .     A
N319   O320    1.301   .     A
N322   O324    1.301   .     A
N322   O323    1.301   .     A
N325   O327    1.301   .     A
N325   O326    1.301   .     A
N328   O329    1.301   .     A
N328   O330    1.301   .     A
N331   O332    1.301   .     A
N331   O333    1.301   .     A
N334   O335    1.301   .     A
N334   O336    1.301   .     A
N337   O338    1.301   .     A
N337   O339    1.301   .     A
N340   O342    1.301   .     A
N340   O341    1.301   .     A
N343   O345    1.301   .     A
N343   O344    1.301   .     A
N346   O348    1.301   .     A
N346   O347    1.301   .     A
N349   O350    1.301   .     A
N349   O351    1.301   .     A
N352   O353    1.301   .     A
N352   O354    1.301   .     A
N355   O356    1.301   .     A
N355   O357    1.301   .     A
N358   O360    1.301   .     A
N358   O359    1.301   .     A
N361   O363    1.301   .     A
N361   O362    1.301   .     A
N364   O365    1.301   .     A
N364   O366    1.301   .     A
N367   O369    1.301   .     A
N367   O368    1.301   .     A
N370   O371    1.301   .     A
N370   O372    1.301   .     A
N373   O375    1.301   .     A
N373   O374    1.301   .     A
N376   O378    1.301   .     A
N376   O377    1.301   .     A
N379   O380    1.301   .     A
N379   O381    1.301   .     A
N382   O383    1.301   .     A
N382   O384    1.301   .     A
N385   O387    1.301   .     A
N385   O386    1.301   .     A
N388   O389    1.301   .     A
N388   O390    1.301   .     A
N391   O393    1.301   .     A
N391   O392    1.301   .     A
N394   O395    1.301   .     A
N394   O396    1.301   .     A
Zn397  O483    1.933   .     S
Zn397  O452    1.951   .     S
Zn397  O437    1.947   .     S
Zn397  O1272   1.933   1_545 S
Zn398  O451    1.951   .     S
Zn398  O479    1.933   .     S
Zn398  O438    1.947   .     S
Zn398  O1276   1.933   1_545 S
Zn399  O439    1.947   .     S
Zn399  O454    1.951   .     S
Zn399  O474    1.933   .     S
Zn400  O440    1.947   .     S
Zn400  O453    1.951   .     S
Zn400  O482    1.933   .     S
Zn401  O456    1.951   .     S
Zn401  O476    1.934   .     S
Zn401  O437    1.946   .     S
Zn401  O1279   1.934   1_545 S
Zn402  O438    1.946   .     S
Zn402  O488    1.934   .     S
Zn402  O455    1.951   .     S
Zn402  O1267   1.934   1_545 S
Zn403  O439    1.947   .     S
Zn403  O450    1.951   .     S
Zn403  O485    1.933   .     S
Zn404  O477    1.933   .     S
Zn404  O449    1.951   .     S
Zn404  O440    1.947   .     S
Zn405  O444    1.951   .     S
Zn405  O467    1.933   .     S
Zn405  O44     1.947   1_655 S
Zn405  O464    1.933   .     S
Zn406  O443    1.951   .     S
Zn406  O468    1.933   .     S
Zn406  O463    1.933   .     S
Zn406  O439    1.947   .     S
Zn407  O458    1.933   .     S
Zn407  O465    1.933   .     S
Zn407  O446    1.951   .     S
Zn407  O1230   1.947   .     S
Zn408  O445    1.951   .     S
Zn408  O466    1.933   .     S
Zn408  O437    1.947   .     S
Zn408  O457    1.933   .     S
Zn409  O471    1.934   .     S
Zn409  O448    1.951   .     S
Zn409  O460    1.934   .     S
Zn409  O440    1.946   .     S
Zn410  O472    1.934   .     S
Zn410  O447    1.951   .     S
Zn410  O459    1.934   .     S
Zn410  O43     1.946   1_655 S
Zn411  O462    1.933   .     S
Zn411  O438    1.947   .     S
Zn411  O442    1.951   .     S
Zn411  O469    1.933   .     S
Zn412  O441    1.951   .     S
Zn412  O461    1.933   .     S
Zn412  O470    1.933   .     S
Zn412  O1229   1.947   .     S
C413   H577    1.083   .     S
C413   C429    1.399   .     A
C413   C565    1.397   .     A
C414   C566    1.397   .     A
C414   C430    1.399   .     A
C414   H578    1.083   .     S
C415   C1223   1.399   .     A
C415   C567    1.397   .     A
C415   H579    1.083   .     S
C416   H580    1.083   .     S
C416   C568    1.397   .     A
C416   C432    1.399   .     A
C417   C561    1.397   .     A
C417   H581    1.083   .     S
C418   C562    1.397   .     A
C418   H582    1.083   .     S
C418   C34     1.399   1_655 S
C419   C563    1.397   .     A
C419   H583    1.083   .     S
C419   C431    1.399   .     S
C420   H584    1.083   .     S
C420   C564    1.397   .     A
C420   C1224   1.399   .     S
C421   H585    1.083   .     S
C421   C573    1.397   .     A
C421   C433    1.399   .     S
C422   C434    1.399   .     A
C422   H586    1.083   .     S
C422   C574    1.397   .     A
C423   C575    1.397   .     A
C423   H587    1.083   .     S
C423   C435    1.399   .     A
C424   C436    1.399   .     A
C424   C576    1.397   .     A
C424   H588    1.083   .     S
C425   H589    1.083   .     S
C425   C1225   1.399   .     A
C425   C569    1.397   .     A
C426   C570    1.397   .     A
C426   H590    1.083   .     S
C426   C1226   1.399   1_545 S
C427   H591    1.083   .     S
C427   C571    1.397   .     A
C427   C39     1.399   1_655 S
C428   H592    1.083   .     S
C428   C572    1.397   .     A
C428   C40     1.399   1_655 S
C429   C507    1.462   .     S
C429   C21     1.399   1_655 S
C430   C508    1.462   .     S
C431   C1207   1.399   1_545 A
C431   C505    1.462   .     S
C432   C506    1.462   .     S
C432   C1212   1.399   1_545 S
C433   C511    1.462   .     S
C433   C1217   1.399   1_545 A
C434   C1304   1.462   .     S
C434   C1218   1.399   .     S
C435   C509    1.462   .     S
C436   C510    1.462   .     S
O437   Zn1204  1.947   1_545 S
O438   Zn1199  1.947   1_545 S
O441   C1297   1.280   .     A
O442   C506    1.280   .     A
O444   C112    1.280   1_655 S
O445   C505    1.280   .     S
O446   C1298   1.280   .     S
O447   C507    1.280   .     A
O448   C508    1.280   .     A
O449   C509    1.280   .     A
O450   C510    1.280   .     S
O451   C511    1.280   .     S
O452   C512    1.280   .     S
O453   C509    1.280   .     A
O454   C510    1.280   .     S
O455   C511    1.280   .     S
O456   C512    1.280   .     S
O457   C513    1.280   .     A
O458   C514    1.279   .     A
O459   C515    1.279   .     A
O460   C516    1.279   .     A
O461   C517    1.279   .     A
O462   C518    1.279   .     A
O463   C519    1.280   .     A
O464   C520    1.280   .     A
O465   C521    1.279   .     A
O466   C522    1.279   .     A
O467   C523    1.280   .     A
O468   C524    1.279   .     A
O469   C525    1.279   .     A
O470   C526    1.279   .     A
O471   C527    1.279   .     A
O472   C528    1.279   .     A
O473   C523    1.279   .     A
O473   Zn4     1.933   1_655 S
O474   C524    1.280   .     A
O475   C521    1.279   .     A
O475   Zn1194  1.934   .     S
O476   C522    1.279   .     A
O477   C527    1.279   .     A
O478   C528    1.279   .     A
O478   Zn7     1.933   1_655 S
O479   C525    1.280   .     A
O480   C526    1.280   .     A
O480   Zn1189  1.933   .     S
O481   Zn3     1.933   1_655 S
O481   C515    1.279   .     A
O482   C516    1.279   .     A
O483   C513    1.279   .     A
O484   C514    1.280   .     A
O484   Zn1190  1.933   .     S
O485   C519    1.279   .     A
O486   C520    1.279   .     A
O486   Zn8     1.933   1_655 S
O487   C517    1.279   .     A
O487   Zn1193  1.934   .     S
O488   C518    1.279   .     A
C489   C561    1.409   .     A
C489   O617    1.384   .     S
C489   C494    1.404   .     A
C490   C493    1.404   .     A
C490   C562    1.409   .     A
C490   O622    1.384   .     S
C491   O627    1.384   .     S
C491   C496    1.404   .     A
C491   C563    1.409   .     A
C492   C495    1.404   .     A
C492   C564    1.409   .     A
C492   O632    1.384   .     S
C493   O637    1.384   .     S
C493   C565    1.409   .     A
C494   C566    1.409   .     A
C494   O642    1.384   .     S
C495   O647    1.384   .     S
C495   C567    1.409   .     A
C496   C568    1.409   .     A
C496   O652    1.384   .     S
C497   C569    1.409   .     A
C497   O657    1.384   .     S
C497   C502    1.404   1_556 S
C498   C570    1.409   .     A
C498   O662    1.384   .     S
C498   C501    1.404   1_554 S
C499   O667    1.384   .     S
C499   C571    1.409   .     A
C499   C108    1.404   1_656 S
C500   C572    1.409   .     A
C500   O672    1.384   .     S
C500   C107    1.404   1_654 S
C501   O677    1.384   .     S
C501   C573    1.409   .     A
C501   C498    1.404   1_556 S
C502   C574    1.409   .     A
C502   O682    1.384   .     S
C502   C497    1.404   1_554 S
C503   C575    1.409   .     A
C503   O687    1.384   .     S
C503   C104    1.404   1_556 S
C504   O692    1.384   .     S
C504   C576    1.409   .     A
C504   C103    1.404   1_554 S
C505   O1233   1.280   1_545 A
C506   O1238   1.280   1_545 S
C507   O47     1.280   1_655 S
C512   C1226   1.462   1_545 S
C513   C595    1.454   .     S
C514   C596    1.454   .     S
C515   C597    1.454   .     S
C516   C598    1.454   .     S
C517   C599    1.454   .     S
C518   C600    1.454   .     S
C519   C593    1.454   .     S
C520   C594    1.454   .     S
C521   C603    1.454   .     S
C522   C604    1.454   .     S
C523   C605    1.454   .     S
C524   C606    1.454   .     S
C525   C607    1.454   .     S
C526   C608    1.454   .     S
C527   C601    1.454   .     S
C528   C602    1.454   .     S
C529   N697    1.437   .     S
C529   C544    1.398   .     A
C529   C608    1.409   .     A
C530   C607    1.409   .     A
C530   C543    1.398   .     A
C530   N700    1.437   .     S
C531   C542    1.398   .     A
C531   C606    1.409   .     A
C531   N703    1.437   .     S
C532   C605    1.409   .     A
C532   C541    1.398   .     A
C532   N706    1.435   .     S
C533   N709    1.435   .     S
C533   C540    1.398   .     A
C533   C604    1.409   .     A
C534   C539    1.398   .     A
C534   N712    1.435   .     S
C534   C603    1.409   .     A
C535   C538    1.398   .     A
C535   N715    1.437   .     S
C535   C602    1.409   .     A
C536   C601    1.409   .     A
C536   C537    1.398   .     A
C536   N718    1.437   .     S
C537   N721    1.435   .     S
C537   C600    1.409   .     A
C538   N724    1.435   .     S
C538   C599    1.409   .     A
C539   N727    1.437   .     S
C539   C598    1.409   .     A
C540   N730    1.437   .     S
C540   C597    1.409   .     A
C541   C596    1.409   .     A
C541   N733    1.437   .     S
C542   N736    1.435   .     S
C542   C595    1.409   .     A
C543   C594    1.409   .     A
C543   N739    1.435   .     S
C544   N742    1.435   .     S
C544   C593    1.409   .     A
C545   N745    1.437   .     S
C545   C560    1.398   .     A
C545   C594    1.409   .     A
C546   C559    1.398   .     A
C546   N748    1.437   .     S
C546   C593    1.409   .     A
C547   C596    1.409   .     A
C547   C558    1.398   .     A
C547   N751    1.435   .     S
C548   C557    1.398   .     A
C548   C595    1.409   .     A
C548   N754    1.437   .     S
C549   C598    1.409   .     A
C549   N757    1.435   .     S
C549   C556    1.398   .     A
C550   C597    1.409   .     A
C550   N760    1.435   .     S
C550   C555    1.398   .     A
C551   C554    1.398   .     A
C551   N763    1.437   .     S
C551   C600    1.409   .     A
C552   C599    1.409   .     A
C552   C553    1.398   .     A
C552   N766    1.437   .     S
C553   N769    1.435   .     S
C553   C602    1.409   .     A
C554   N772    1.435   .     S
C554   C601    1.409   .     A
C555   N775    1.437   .     S
C555   C604    1.409   .     A
C556   N778    1.437   .     S
C556   C603    1.409   .     A
C557   N781    1.435   .     S
C557   C606    1.409   .     A
C558   N784    1.437   .     S
C558   C605    1.409   .     A
C559   C608    1.409   .     A
C559   N787    1.435   .     S
C560   N790    1.435   .     S
C560   C607    1.409   .     A
C561   C609    1.414   .     S
C562   C214    1.414   1_655 S
C563   C611    1.414   .     S
C564   C1404   1.414   .     S
C565   C213    1.414   1_655 A
C566   C610    1.414   .     A
C567   C1403   1.414   .     A
C568   C612    1.414   .     A
C569   C613    1.414   .     A
C570   C1406   1.414   1_545 S
C571   C219    1.414   1_655 S
C572   C220    1.414   1_655 S
C573   C1405   1.414   1_545 S
C574   C614    1.414   .     A
C575   C615    1.414   .     A
C576   C616    1.414   .     A
C609   C610    1.403   .     S
C611   C1359   1.414   1_545 A
C611   C612    1.403   .     S
C612   C1356   1.414   1_545 S
C613   C1365   1.414   .     S
C613   C614    1.403   1_556 S
C614   C1362   1.414   .     S
C614   C613    1.403   1_554 S
C615   C616    1.403   1_556 S
C616   C615    1.403   1_554 S
O617   C618    1.410   .     S
C618   H621    1.113   .     S
C618   H620    1.109   .     S
C618   H619    1.114   .     S
O622   C623    1.410   .     S
C623   H626    1.113   .     S
C623   H625    1.109   .     S
C623   H624    1.114   .     S
O627   C628    1.410   .     S
C628   H630    1.109   .     S
C628   H629    1.114   .     S
C628   H631    1.113   .     S
O632   C633    1.410   .     S
C633   H634    1.114   .     S
C633   H636    1.113   .     S
C633   H635    1.109   .     S
O637   C638    1.410   .     S
C638   H641    1.113   .     S
C638   H640    1.109   .     S
C638   H639    1.114   .     S
O642   C643    1.410   .     S
C643   H646    1.113   .     S
C643   H644    1.114   .     S
C643   H645    1.109   .     S
O647   C648    1.410   .     S
C648   H651    1.113   .     S
C648   H649    1.114   .     S
C648   H650    1.109   .     S
O652   C653    1.410   .     S
C653   H656    1.113   .     S
C653   H654    1.114   .     S
C653   H655    1.109   .     S
O657   C1450   1.410   .     S
C658   H659    1.109   .     S
C658   H661    1.113   .     S
C658   H660    1.114   .     S
C658   O1449   1.410   1_545 S
O662   C663    1.410   .     S
C663   H666    1.113   .     S
C663   H664    1.109   .     S
C663   H665    1.114   .     S
O667   C668    1.410   .     S
C668   H669    1.109   .     S
C668   H671    1.113   .     S
C668   H670    1.114   .     S
O672   C673    1.410   .     S
C673   H675    1.114   .     S
C673   H676    1.113   .     S
C673   H674    1.109   .     S
O677   C1470   1.410   1_545 S
C678   H679    1.109   .     S
C678   H680    1.114   .     S
C678   H681    1.113   .     S
C678   O1469   1.410   .     S
O682   C683    1.410   .     S
C683   H686    1.113   .     S
C683   H685    1.114   .     S
C683   H684    1.109   .     S
O687   C688    1.410   .     S
C688   H690    1.114   .     S
C688   H689    1.109   .     S
C688   H691    1.113   .     S
O692   C693    1.410   .     S
C693   H695    1.114   .     S
C693   H694    1.109   .     S
C693   H696    1.113   .     S
N697   O698    1.301   .     A
N697   O699    1.301   .     A
N700   O702    1.301   .     A
N700   O701    1.301   .     A
N703   O705    1.301   .     A
N703   O704    1.301   .     A
N706   O708    1.301   .     A
N706   O707    1.301   .     A
N709   O710    1.301   .     A
N709   O711    1.301   .     A
N712   O713    1.301   .     A
N712   O714    1.301   .     A
N715   O717    1.301   .     A
N715   O716    1.301   .     A
N718   O720    1.301   .     A
N718   O719    1.301   .     A
N721   O723    1.301   .     A
N721   O722    1.301   .     A
N724   O725    1.301   .     A
N724   O726    1.301   .     A
N727   O728    1.301   .     A
N727   O729    1.301   .     A
N730   O731    1.301   .     A
N730   O732    1.301   .     A
N733   O734    1.301   .     A
N733   O735    1.301   .     A
N736   O738    1.301   .     A
N736   O737    1.301   .     A
N739   O741    1.301   .     A
N739   O740    1.301   .     A
N742   O744    1.301   .     A
N742   O743    1.301   .     A
N745   O746    1.301   .     A
N745   O747    1.301   .     A
N748   O749    1.301   .     A
N748   O750    1.301   .     A
N751   O752    1.301   .     A
N751   O753    1.301   .     A
N754   O756    1.301   .     A
N754   O755    1.301   .     A
N757   O759    1.301   .     A
N757   O758    1.301   .     A
N760   O761    1.301   .     A
N760   O762    1.301   .     A
N763   O765    1.301   .     A
N763   O764    1.301   .     A
N766   O767    1.301   .     A
N766   O768    1.301   .     A
N769   O771    1.301   .     A
N769   O770    1.301   .     A
N772   O774    1.301   .     A
N772   O773    1.301   .     A
N775   O776    1.301   .     A
N775   O777    1.301   .     A
N778   O779    1.301   .     A
N778   O780    1.301   .     A
N781   O783    1.301   .     A
N781   O782    1.301   .     A
N784   O785    1.301   .     A
N784   O786    1.301   .     A
N787   O789    1.301   .     A
N787   O788    1.301   .     A
N790   O791    1.301   .     A
N790   O792    1.301   .     A
Zn793  O879    1.933   .     S
Zn793  O848    1.951   .     S
Zn793  O833    1.947   .     S
Zn794  O847    1.951   .     S
Zn794  O875    1.933   .     S
Zn794  O834    1.947   .     S
Zn795  O1273   1.933   1_455 S
Zn795  O835    1.947   .     S
Zn795  O850    1.951   .     S
Zn795  O870    1.933   .     S
Zn796  O836    1.947   .     S
Zn796  O1265   1.933   1_455 S
Zn796  O849    1.951   .     S
Zn796  O878    1.933   .     S
Zn797  O852    1.951   .     S
Zn797  O872    1.934   .     S
Zn797  O833    1.946   .     S
Zn798  O834    1.946   .     S
Zn798  O884    1.934   .     S
Zn798  O851    1.951   .     S
Zn799  O835    1.947   .     S
Zn799  O846    1.951   .     S
Zn799  O881    1.933   .     S
Zn799  O1270   1.933   1_455 S
Zn800  O873    1.933   .     S
Zn800  O845    1.951   .     S
Zn800  O836    1.947   .     S
Zn800  O1278   1.933   1_455 S
Zn801  O840    1.951   .     S
Zn801  O863    1.933   .     S
Zn801  O1232   1.947   .     S
Zn801  O860    1.933   .     S
Zn802  O839    1.951   .     S
Zn802  O864    1.933   .     S
Zn802  O859    1.933   .     S
Zn802  O835    1.947   .     S
Zn803  O854    1.933   .     S
Zn803  O861    1.933   .     S
Zn803  O842    1.951   .     S
Zn803  O42     1.947   1_565 S
Zn804  O841    1.951   .     S
Zn804  O862    1.933   .     S
Zn804  O833    1.947   .     S
Zn804  O853    1.933   .     S
Zn805  O867    1.934   .     S
Zn805  O844    1.951   .     S
Zn805  O856    1.934   .     S
Zn805  O836    1.946   .     S
Zn806  O868    1.934   .     S
Zn806  O843    1.951   .     S
Zn806  O855    1.934   .     S
Zn806  O1231   1.946   .     S
Zn807  O858    1.933   .     S
Zn807  O834    1.947   .     S
Zn807  O838    1.951   .     S
Zn807  O865    1.933   .     S
Zn808  O837    1.951   .     S
Zn808  O857    1.933   .     S
Zn808  O866    1.933   .     S
Zn808  O41     1.947   1_565 S
C809   H973    1.083   .     S
C809   C825    1.399   .     A
C809   C961    1.397   .     A
C810   C962    1.397   .     A
C810   C826    1.399   .     A
C810   H974    1.083   .     S
C811   C35     1.399   1_565 A
C811   C963    1.397   .     A
C811   H975    1.083   .     S
C812   H976    1.083   .     S
C812   C964    1.397   .     A
C812   C828    1.399   .     A
C813   C957    1.397   .     A
C813   H977    1.083   .     S
C813   C1221   1.399   1_455 S
C814   C958    1.397   .     A
C814   H978    1.083   .     S
C814   C1222   1.399   .     S
C815   C959    1.397   .     A
C815   H979    1.083   .     S
C815   C827    1.399   .     S
C816   H980    1.083   .     S
C816   C960    1.397   .     A
C816   C36     1.399   1_565 S
C817   H981    1.083   .     S
C817   C969    1.397   .     A
C817   C829    1.399   .     S
C818   C830    1.399   .     A
C818   H982    1.083   .     S
C818   C970    1.397   .     A
C819   C971    1.397   .     A
C819   H983    1.083   .     S
C819   C831    1.399   .     A
C820   C832    1.399   .     A
C820   C972    1.397   .     A
C820   H984    1.083   .     S
C821   H985    1.083   .     S
C821   C37     1.399   1_565 A
C821   C965    1.397   .     A
C822   C966    1.397   .     A
C822   H986    1.083   .     S
C823   H987    1.083   .     S
C823   C967    1.397   .     A
C823   C1227   1.399   .     S
C824   H988    1.083   .     S
C824   C968    1.397   .     A
C824   C1228   1.399   .     S
C825   C903    1.462   .     S
C825   C1209   1.399   .     S
C826   C904    1.462   .     S
C826   C1210   1.399   1_455 S
C827   C901    1.462   .     S
C828   C902    1.462   .     S
C829   C907    1.462   .     S
C830   C116    1.462   1_565 S
C830   C30     1.399   1_565 S
C831   C905    1.462   .     S
C831   C1219   1.399   1_455 S
C832   C1220   1.399   1_455 S
C832   C906    1.462   .     S
O835   Zn1202  1.946   1_455 S
O836   Zn1197  1.947   1_455 S
O837   C109    1.280   1_565 A
O838   C902    1.280   .     A
O839   C1299   1.280   1_455 S
O840   C1300   1.280   .     S
O841   C901    1.280   .     S
O842   C110    1.280   1_565 S
O843   C903    1.280   .     A
O844   C904    1.280   .     A
O845   C905    1.280   .     A
O846   C906    1.280   .     S
O847   C907    1.280   .     S
O848   C908    1.280   .     S
O849   C905    1.280   .     A
O850   C906    1.280   .     S
O851   C907    1.280   .     S
O852   C908    1.280   .     S
O853   C909    1.280   .     A
O854   C910    1.279   .     A
O855   C911    1.279   .     A
O856   C912    1.279   .     A
O857   C913    1.279   .     A
O858   C914    1.279   .     A
O859   C915    1.280   .     A
O860   C916    1.280   .     A
O861   C917    1.279   .     A
O862   C918    1.279   .     A
O863   C919    1.280   .     A
O864   C920    1.279   .     A
O865   C921    1.279   .     A
O866   C922    1.279   .     A
O867   C923    1.279   .     A
O868   C924    1.279   .     A
O869   C919    1.279   .     A
O869   Zn1192  1.933   .     S
O870   C920    1.280   .     A
O871   C917    1.279   .     A
O871   Zn6     1.934   1_565 S
O872   C918    1.279   .     A
O873   C923    1.279   .     A
O874   C924    1.279   .     A
O874   Zn1195  1.933   .     S
O875   C921    1.280   .     A
O876   C922    1.280   .     A
O876   Zn1     1.933   1_565 S
O877   Zn1191  1.933   .     S
O877   C911    1.279   .     A
O878   C912    1.279   .     A
O879   C909    1.279   .     A
O880   C910    1.280   .     A
O880   Zn2     1.933   1_565 S
O881   C915    1.279   .     A
O882   C916    1.279   .     A
O882   Zn1196  1.933   .     S
O883   C913    1.279   .     A
O883   Zn5     1.934   1_565 S
O884   C914    1.279   .     A
C885   C957    1.409   .     A
C885   O1013   1.384   .     S
C885   C890    1.404   .     A
C886   C889    1.404   .     A
C886   C958    1.409   .     A
C886   O1018   1.384   .     S
C887   O1023   1.384   .     S
C887   C892    1.404   .     A
C887   C959    1.409   .     A
C888   C891    1.404   .     A
C888   C960    1.409   .     A
C888   O1028   1.384   .     S
C889   O1033   1.384   .     S
C889   C961    1.409   .     A
C890   C962    1.409   .     A
C890   O1038   1.384   .     S
C891   O1043   1.384   .     S
C891   C963    1.409   .     A
C892   C964    1.409   .     A
C892   O1048   1.384   .     S
C893   C965    1.409   .     A
C893   O1053   1.384   .     S
C893   C898    1.404   1_556 S
C894   C966    1.409   .     A
C894   O1058   1.384   .     S
C894   C897    1.404   1_554 S
C895   O1063   1.384   .     S
C895   C967    1.409   .     A
C895   C1296   1.404   1_556 S
C896   C968    1.409   .     A
C896   O1068   1.384   .     S
C896   C1295   1.404   1_554 S
C897   O1073   1.384   .     S
C897   C969    1.409   .     A
C897   C894    1.404   1_556 S
C898   C970    1.409   .     A
C898   O1078   1.384   .     S
C898   C893    1.404   1_554 S
C899   C971    1.409   .     A
C899   O1083   1.384   .     S
C899   C1292   1.404   1_456 S
C900   O1088   1.384   .     S
C900   C972    1.409   .     A
C900   C1291   1.404   1_454 S
C903   O1235   1.280   .     S
C904   O1236   1.280   1_455 S
C909   C991    1.454   .     S
C910   C992    1.454   .     S
C911   C993    1.454   .     S
C912   C994    1.454   .     S
C913   C995    1.454   .     S
C914   C996    1.454   .     S
C915   C989    1.454   .     S
C916   C990    1.454   .     S
C917   C999    1.454   .     S
C918   C1000   1.454   .     S
C919   C1001   1.454   .     S
C920   C1002   1.454   .     S
C921   C1003   1.454   .     S
C922   C1004   1.454   .     S
C923   C997    1.454   .     S
C924   C998    1.454   .     S
C925   N1093   1.437   .     S
C925   C940    1.398   .     A
C925   C1004   1.409   .     A
C926   C1003   1.409   .     A
C926   C939    1.398   .     A
C926   N1096   1.437   .     S
C927   C938    1.398   .     A
C927   C1002   1.409   .     A
C927   N1099   1.437   .     S
C928   C1001   1.409   .     A
C928   C937    1.398   .     A
C928   N1102   1.435   .     S
C929   N1105   1.435   .     S
C929   C936    1.398   .     A
C929   C1000   1.409   .     A
C930   C935    1.398   .     A
C930   N1108   1.435   .     S
C930   C999    1.409   .     A
C931   C934    1.398   .     A
C931   N1111   1.437   .     S
C931   C998    1.409   .     A
C932   C997    1.409   .     A
C932   C933    1.398   .     A
C932   N1114   1.437   .     S
C933   N1117   1.435   .     S
C933   C996    1.409   .     A
C934   N1120   1.435   .     S
C934   C995    1.409   .     A
C935   N1123   1.437   .     S
C935   C994    1.409   .     A
C936   N1126   1.437   .     S
C936   C993    1.409   .     A
C937   C992    1.409   .     A
C937   N1129   1.437   .     S
C938   N1132   1.435   .     S
C938   C991    1.409   .     A
C939   C990    1.409   .     A
C939   N1135   1.435   .     S
C940   N1138   1.435   .     S
C940   C989    1.409   .     A
C941   N1141   1.437   .     S
C941   C956    1.398   .     A
C941   C990    1.409   .     A
C942   C955    1.398   .     A
C942   N1144   1.437   .     S
C942   C989    1.409   .     A
C943   C992    1.409   .     A
C943   C954    1.398   .     A
C943   N1147   1.435   .     S
C944   C953    1.398   .     A
C944   C991    1.409   .     A
C944   N1150   1.437   .     S
C945   C994    1.409   .     A
C945   N1153   1.435   .     S
C945   C952    1.398   .     A
C946   C993    1.409   .     A
C946   N1156   1.435   .     S
C946   C951    1.398   .     A
C947   C950    1.398   .     A
C947   N1159   1.437   .     S
C947   C996    1.409   .     A
C948   C995    1.409   .     A
C948   C949    1.398   .     A
C948   N1162   1.437   .     S
C949   N1165   1.435   .     S
C949   C998    1.409   .     A
C950   N1168   1.435   .     S
C950   C997    1.409   .     A
C951   N1171   1.437   .     S
C951   C1000   1.409   .     A
C952   N1174   1.437   .     S
C952   C999    1.409   .     A
C953   N1177   1.435   .     S
C953   C1002   1.409   .     A
C954   N1180   1.437   .     S
C954   C1001   1.409   .     A
C955   C1004   1.409   .     A
C955   N1183   1.435   .     S
C956   N1186   1.435   .     S
C956   C1003   1.409   .     A
C957   C1005   1.414   .     S
C958   C1402   1.414   .     S
C959   C1007   1.414   .     S
C960   C216    1.414   1_565 S
C961   C1401   1.414   .     A
C962   C1006   1.414   .     A
C963   C215    1.414   1_565 A
C964   C1008   1.414   .     A
C965   C1009   1.414   .     A
C967   C1407   1.414   .     S
C968   C1408   1.414   .     S
C970   C1010   1.414   .     A
C971   C1011   1.414   .     A
C972   C1012   1.414   .     A
C1005  C1357   1.414   1_455 A
C1005  C1006   1.403   .     S
C1006  C1354   1.414   1_455 S
C1007  C1008   1.403   .     S
C1009  C177    1.414   1_565 S
C1009  C1010   1.403   1_556 S
C1010  C174    1.414   1_565 S
C1010  C1009   1.403   1_554 S
C1011  C1363   1.414   1_455 S
C1011  C1012   1.403   1_556 S
C1012  C1364   1.414   1_455 S
C1012  C1011   1.403   1_554 S
O1013  C1014   1.410   .     S
C1014  H1017   1.113   .     S
C1014  H1016   1.109   .     S
C1014  H1015   1.114   .     S
O1018  C1019   1.410   .     S
C1019  H1022   1.113   .     S
C1019  H1021   1.109   .     S
C1019  H1020   1.114   .     S
O1023  C1024   1.410   .     S
C1024  H1026   1.109   .     S
C1024  H1025   1.114   .     S
C1024  H1027   1.113   .     S
O1028  C1029   1.410   .     S
C1029  H1030   1.114   .     S
C1029  H1032   1.113   .     S
C1029  H1031   1.109   .     S
O1033  C1034   1.410   .     S
C1034  H1037   1.113   .     S
C1034  H1036   1.109   .     S
C1034  H1035   1.114   .     S
O1038  C1039   1.410   .     S
C1039  H1042   1.113   .     S
C1039  H1040   1.114   .     S
C1039  H1041   1.109   .     S
O1043  C1044   1.410   .     S
C1044  H1047   1.113   .     S
C1044  H1045   1.114   .     S
C1044  H1046   1.109   .     S
O1048  C1049   1.410   .     S
C1049  H1052   1.113   .     S
C1049  H1050   1.114   .     S
C1049  H1051   1.109   .     S
O1053  C262    1.410   1_565 S
C1054  H1055   1.109   .     S
C1054  H1057   1.113   .     S
C1054  H1056   1.114   .     S
O1058  C1059   1.410   .     S
C1059  H1062   1.113   .     S
C1059  H1060   1.109   .     S
C1059  H1061   1.114   .     S
O1063  C1064   1.410   .     S
C1064  H1065   1.109   .     S
C1064  H1067   1.113   .     S
C1064  H1066   1.114   .     S
O1068  C1069   1.410   .     S
C1069  H1071   1.114   .     S
C1069  H1072   1.113   .     S
C1069  H1070   1.109   .     S
C1074  H1075   1.109   .     S
C1074  H1076   1.114   .     S
C1074  H1077   1.113   .     S
C1074  O281    1.410   1_565 S
O1078  C1079   1.410   .     S
C1079  H1082   1.113   .     S
C1079  H1081   1.114   .     S
C1079  H1080   1.109   .     S
O1083  C1084   1.410   .     S
C1084  H1086   1.114   .     S
C1084  H1085   1.109   .     S
C1084  H1087   1.113   .     S
O1088  C1089   1.410   .     S
C1089  H1091   1.114   .     S
C1089  H1090   1.109   .     S
C1089  H1092   1.113   .     S
N1093  O1094   1.301   .     A
N1093  O1095   1.301   .     A
N1096  O1098   1.301   .     A
N1096  O1097   1.301   .     A
N1099  O1101   1.301   .     A
N1099  O1100   1.301   .     A
N1102  O1104   1.301   .     A
N1102  O1103   1.301   .     A
N1105  O1106   1.301   .     A
N1105  O1107   1.301   .     A
N1108  O1109   1.301   .     A
N1108  O1110   1.301   .     A
N1111  O1113   1.301   .     A
N1111  O1112   1.301   .     A
N1114  O1116   1.301   .     A
N1114  O1115   1.301   .     A
N1117  O1119   1.301   .     A
N1117  O1118   1.301   .     A
N1120  O1121   1.301   .     A
N1120  O1122   1.301   .     A
N1123  O1124   1.301   .     A
N1123  O1125   1.301   .     A
N1126  O1127   1.301   .     A
N1126  O1128   1.301   .     A
N1129  O1130   1.301   .     A
N1129  O1131   1.301   .     A
N1132  O1134   1.301   .     A
N1132  O1133   1.301   .     A
N1135  O1137   1.301   .     A
N1135  O1136   1.301   .     A
N1138  O1140   1.301   .     A
N1138  O1139   1.301   .     A
N1141  O1142   1.301   .     A
N1141  O1143   1.301   .     A
N1144  O1145   1.301   .     A
N1144  O1146   1.301   .     A
N1147  O1148   1.301   .     A
N1147  O1149   1.301   .     A
N1150  O1152   1.301   .     A
N1150  O1151   1.301   .     A
N1153  O1155   1.301   .     A
N1153  O1154   1.301   .     A
N1156  O1157   1.301   .     A
N1156  O1158   1.301   .     A
N1159  O1161   1.301   .     A
N1159  O1160   1.301   .     A
N1162  O1163   1.301   .     A
N1162  O1164   1.301   .     A
N1165  O1167   1.301   .     A
N1165  O1166   1.301   .     A
N1168  O1170   1.301   .     A
N1168  O1169   1.301   .     A
N1171  O1172   1.301   .     A
N1171  O1173   1.301   .     A
N1174  O1175   1.301   .     A
N1174  O1176   1.301   .     A
N1177  O1179   1.301   .     A
N1177  O1178   1.301   .     A
N1180  O1181   1.301   .     A
N1180  O1182   1.301   .     A
N1183  O1185   1.301   .     A
N1183  O1184   1.301   .     A
N1186  O1187   1.301   .     A
N1186  O1188   1.301   .     A
Zn1189 O1275   1.933   .     S
Zn1189 O1244   1.951   .     S
Zn1189 O1229   1.947   .     S
Zn1190 O1243   1.951   .     S
Zn1190 O1271   1.933   .     S
Zn1190 O1230   1.947   .     S
Zn1191 O1231   1.947   .     S
Zn1191 O1246   1.951   .     S
Zn1191 O1266   1.933   .     S
Zn1192 O1232   1.947   .     S
Zn1192 O1245   1.951   .     S
Zn1192 O1274   1.933   .     S
Zn1193 O1248   1.951   .     S
Zn1193 O1268   1.934   .     S
Zn1193 O1229   1.946   .     S
Zn1194 O1230   1.946   .     S
Zn1194 O1280   1.934   .     S
Zn1194 O1247   1.951   .     S
Zn1195 O1231   1.947   .     S
Zn1195 O1242   1.951   .     S
Zn1195 O1277   1.933   .     S
Zn1196 O1269   1.933   .     S
Zn1196 O1241   1.951   .     S
Zn1196 O1232   1.947   .     S
Zn1197 O1236   1.951   .     S
Zn1197 O1259   1.933   .     S
Zn1197 O836    1.947   1_655 S
Zn1197 O1256   1.933   .     S
Zn1198 O1235   1.951   .     S
Zn1198 O1260   1.933   .     S
Zn1198 O1255   1.933   .     S
Zn1198 O1231   1.947   .     S
Zn1199 O1250   1.933   .     S
Zn1199 O1257   1.933   .     S
Zn1199 O1238   1.951   .     S
Zn1199 O438    1.947   1_565 S
Zn1200 O1237   1.951   .     S
Zn1200 O1258   1.933   .     S
Zn1200 O1229   1.947   .     S
Zn1200 O1249   1.933   .     S
Zn1201 O1263   1.934   .     S
Zn1201 O1240   1.951   .     S
Zn1201 O1252   1.934   .     S
Zn1201 O1232   1.946   .     S
Zn1202 O1264   1.934   .     S
Zn1202 O1239   1.951   .     S
Zn1202 O1251   1.934   .     S
Zn1202 O835    1.946   1_655 S
Zn1203 O1254   1.933   .     S
Zn1203 O1230   1.947   .     S
Zn1203 O1234   1.951   .     S
Zn1203 O1261   1.933   .     S
Zn1204 O1233   1.951   .     S
Zn1204 O1253   1.933   .     S
Zn1204 O1262   1.933   .     S
Zn1204 O437    1.947   1_565 S
C1205  H1369   1.083   .     S
C1205  C1221   1.399   .     A
C1205  C1357   1.397   .     A
C1206  C1358   1.397   .     A
C1206  C1222   1.399   .     A
C1206  H1370   1.083   .     S
C1207  C431    1.399   1_565 A
C1207  C1359   1.397   .     A
C1207  H1371   1.083   .     S
C1208  H1372   1.083   .     S
C1208  C1360   1.397   .     A
C1208  C1224   1.399   .     A
C1209  C1353   1.397   .     A
C1209  H1373   1.083   .     S
C1210  C1354   1.397   .     A
C1210  H1374   1.083   .     S
C1210  C826    1.399   1_655 S
C1211  C1355   1.397   .     A
C1211  H1375   1.083   .     S
C1211  C1223   1.399   .     S
C1212  H1376   1.083   .     S
C1212  C1356   1.397   .     A
C1212  C432    1.399   1_565 S
C1213  H1377   1.083   .     S
C1213  C1365   1.397   .     A
C1213  C1225   1.399   .     S
C1214  C1226   1.399   .     A
C1214  H1378   1.083   .     S
C1214  C1366   1.397   .     A
C1215  C1367   1.397   .     A
C1215  H1379   1.083   .     S
C1215  C1227   1.399   .     A
C1216  C1228   1.399   .     A
C1216  C1368   1.397   .     A
C1216  H1380   1.083   .     S
C1217  H1381   1.083   .     S
C1217  C433    1.399   1_565 A
C1217  C1361   1.397   .     A
C1218  C1362   1.397   .     A
C1218  H1382   1.083   .     S
C1219  H1383   1.083   .     S
C1219  C1363   1.397   .     A
C1219  C831    1.399   1_655 S
C1220  H1384   1.083   .     S
C1220  C1364   1.397   .     A
C1220  C832    1.399   1_655 S
C1221  C1299   1.462   .     S
C1221  C813    1.399   1_655 S
C1222  C1300   1.462   .     S
C1223  C1297   1.462   .     S
C1224  C1298   1.462   .     S
C1225  C1303   1.462   .     S
C1226  C512    1.462   1_565 S
C1226  C426    1.399   1_565 S
C1227  C1301   1.462   .     S
C1228  C1302   1.462   .     S
O1233  C505    1.280   1_565 A
O1234  C1298   1.280   .     A
O1236  C904    1.280   1_655 S
O1237  C1297   1.280   .     S
O1238  C506    1.280   1_565 S
O1239  C1299   1.280   .     A
O1240  C1300   1.280   .     A
O1241  C1301   1.280   .     A
O1242  C1302   1.280   .     S
O1243  C1303   1.280   .     S
O1244  C1304   1.280   .     S
O1245  C1301   1.280   .     A
O1246  C1302   1.280   .     S
O1247  C1303   1.280   .     S
O1248  C1304   1.280   .     S
O1249  C1305   1.280   .     A
O1250  C1306   1.279   .     A
O1251  C1307   1.279   .     A
O1252  C1308   1.279   .     A
O1253  C1309   1.279   .     A
O1254  C1310   1.279   .     A
O1255  C1311   1.280   .     A
O1256  C1312   1.280   .     A
O1257  C1313   1.279   .     A
O1258  C1314   1.279   .     A
O1259  C1315   1.280   .     A
O1260  C1316   1.279   .     A
O1261  C1317   1.279   .     A
O1262  C1318   1.279   .     A
O1263  C1319   1.279   .     A
O1264  C1320   1.279   .     A
O1265  C1315   1.279   .     A
O1265  Zn796   1.933   1_655 S
O1266  C1316   1.280   .     A
O1267  C1313   1.279   .     A
O1267  Zn402   1.934   1_565 S
O1268  C1314   1.279   .     A
O1269  C1319   1.279   .     A
O1270  C1320   1.279   .     A
O1270  Zn799   1.933   1_655 S
O1271  C1317   1.280   .     A
O1272  C1318   1.280   .     A
O1272  Zn397   1.933   1_565 S
O1273  Zn795   1.933   1_655 S
O1273  C1307   1.279   .     A
O1274  C1308   1.279   .     A
O1275  C1305   1.279   .     A
O1276  C1306   1.280   .     A
O1276  Zn398   1.933   1_565 S
O1277  C1311   1.279   .     A
O1278  C1312   1.279   .     A
O1278  Zn800   1.933   1_655 S
O1279  C1309   1.279   .     A
O1279  Zn401   1.934   1_565 S
O1280  C1310   1.279   .     A
C1281  C1353   1.409   .     A
C1281  O1409   1.384   .     S
C1281  C1286   1.404   .     A
C1282  C1285   1.404   .     A
C1282  C1354   1.409   .     A
C1282  O1414   1.384   .     S
C1283  O1419   1.384   .     S
C1283  C1288   1.404   .     A
C1283  C1355   1.409   .     A
C1284  C1287   1.404   .     A
C1284  C1356   1.409   .     A
C1284  O1424   1.384   .     S
C1285  O1429   1.384   .     S
C1285  C1357   1.409   .     A
C1286  C1358   1.409   .     A
C1286  O1434   1.384   .     S
C1287  O1439   1.384   .     S
C1287  C1359   1.409   .     A
C1288  C1360   1.409   .     A
C1288  O1444   1.384   .     S
C1289  C1361   1.409   .     A
C1289  O1449   1.384   .     S
C1289  C1294   1.404   1_556 S
C1290  C1362   1.409   .     A
C1290  O1454   1.384   .     S
C1290  C1293   1.404   1_554 S
C1291  O1459   1.384   .     S
C1291  C1363   1.409   .     A
C1291  C900    1.404   1_656 S
C1292  C1364   1.409   .     A
C1292  O1464   1.384   .     S
C1292  C899    1.404   1_654 S
C1293  O1469   1.384   .     S
C1293  C1365   1.409   .     A
C1293  C1290   1.404   1_556 S
C1294  C1366   1.409   .     A
C1294  O1474   1.384   .     S
C1294  C1289   1.404   1_554 S
C1295  C1367   1.409   .     A
C1295  O1479   1.384   .     S
C1295  C896    1.404   1_556 S
C1296  O1484   1.384   .     S
C1296  C1368   1.409   .     A
C1296  C895    1.404   1_554 S
C1299  O839    1.280   1_655 S
C1305  C1387   1.454   .     S
C1306  C1388   1.454   .     S
C1307  C1389   1.454   .     S
C1308  C1390   1.454   .     S
C1309  C1391   1.454   .     S
C1310  C1392   1.454   .     S
C1311  C1385   1.454   .     S
C1312  C1386   1.454   .     S
C1313  C1395   1.454   .     S
C1314  C1396   1.454   .     S
C1315  C1397   1.454   .     S
C1316  C1398   1.454   .     S
C1317  C1399   1.454   .     S
C1318  C1400   1.454   .     S
C1319  C1393   1.454   .     S
C1320  C1394   1.454   .     S
C1321  N1489   1.437   .     S
C1321  C1336   1.398   .     A
C1321  C1400   1.409   .     A
C1322  C1399   1.409   .     A
C1322  C1335   1.398   .     A
C1322  N1492   1.437   .     S
C1323  C1334   1.398   .     A
C1323  C1398   1.409   .     A
C1323  N1495   1.437   .     S
C1324  C1397   1.409   .     A
C1324  C1333   1.398   .     A
C1324  N1498   1.435   .     S
C1325  N1501   1.435   .     S
C1325  C1332   1.398   .     A
C1325  C1396   1.409   .     A
C1326  C1331   1.398   .     A
C1326  N1504   1.435   .     S
C1326  C1395   1.409   .     A
C1327  C1330   1.398   .     A
C1327  N1507   1.437   .     S
C1327  C1394   1.409   .     A
C1328  C1393   1.409   .     A
C1328  C1329   1.398   .     A
C1328  N1510   1.437   .     S
C1329  N1513   1.435   .     S
C1329  C1392   1.409   .     A
C1330  N1516   1.435   .     S
C1330  C1391   1.409   .     A
C1331  N1519   1.437   .     S
C1331  C1390   1.409   .     A
C1332  N1522   1.437   .     S
C1332  C1389   1.409   .     A
C1333  C1388   1.409   .     A
C1333  N1525   1.437   .     S
C1334  N1528   1.435   .     S
C1334  C1387   1.409   .     A
C1335  C1386   1.409   .     A
C1335  N1531   1.435   .     S
C1336  N1534   1.435   .     S
C1336  C1385   1.409   .     A
C1337  N1537   1.437   .     S
C1337  C1352   1.398   .     A
C1337  C1386   1.409   .     A
C1338  C1351   1.398   .     A
C1338  N1540   1.437   .     S
C1338  C1385   1.409   .     A
C1339  C1388   1.409   .     A
C1339  C1350   1.398   .     A
C1339  N1543   1.435   .     S
C1340  C1349   1.398   .     A
C1340  C1387   1.409   .     A
C1340  N1546   1.437   .     S
C1341  C1390   1.409   .     A
C1341  N1549   1.435   .     S
C1341  C1348   1.398   .     A
C1342  C1389   1.409   .     A
C1342  N1552   1.435   .     S
C1342  C1347   1.398   .     A
C1343  C1346   1.398   .     A
C1343  N1555   1.437   .     S
C1343  C1392   1.409   .     A
C1344  C1391   1.409   .     A
C1344  C1345   1.398   .     A
C1344  N1558   1.437   .     S
C1345  N1561   1.435   .     S
C1345  C1394   1.409   .     A
C1346  N1564   1.435   .     S
C1346  C1393   1.409   .     A
C1347  N1567   1.437   .     S
C1347  C1396   1.409   .     A
C1348  N1570   1.437   .     S
C1348  C1395   1.409   .     A
C1349  N1573   1.435   .     S
C1349  C1398   1.409   .     A
C1350  N1576   1.437   .     S
C1350  C1397   1.409   .     A
C1351  C1400   1.409   .     A
C1351  N1579   1.435   .     S
C1352  N1582   1.435   .     S
C1352  C1399   1.409   .     A
C1353  C1401   1.414   .     S
C1354  C1006   1.414   1_655 S
C1355  C1403   1.414   .     S
C1356  C612    1.414   1_565 S
C1357  C1005   1.414   1_655 A
C1358  C1402   1.414   .     A
C1359  C611    1.414   1_565 A
C1360  C1404   1.414   .     A
C1361  C1405   1.414   .     A
C1363  C1011   1.414   1_655 S
C1364  C1012   1.414   1_655 S
C1366  C1406   1.414   .     A
C1367  C1407   1.414   .     A
C1368  C1408   1.414   .     A
C1401  C1402   1.403   .     S
C1403  C1404   1.403   .     S
C1405  C573    1.414   1_565 S
C1405  C1406   1.403   1_556 S
C1406  C570    1.414   1_565 S
C1406  C1405   1.403   1_554 S
C1407  C1408   1.403   1_556 S
C1408  C1407   1.403   1_554 S
O1409  C1410   1.410   .     S
C1410  H1413   1.113   .     S
C1410  H1412   1.109   .     S
C1410  H1411   1.114   .     S
O1414  C1415   1.410   .     S
C1415  H1418   1.113   .     S
C1415  H1417   1.109   .     S
C1415  H1416   1.114   .     S
O1419  C1420   1.410   .     S
C1420  H1422   1.109   .     S
C1420  H1421   1.114   .     S
C1420  H1423   1.113   .     S
O1424  C1425   1.410   .     S
C1425  H1426   1.114   .     S
C1425  H1428   1.113   .     S
C1425  H1427   1.109   .     S
O1429  C1430   1.410   .     S
C1430  H1433   1.113   .     S
C1430  H1432   1.109   .     S
C1430  H1431   1.114   .     S
O1434  C1435   1.410   .     S
C1435  H1438   1.113   .     S
C1435  H1436   1.114   .     S
C1435  H1437   1.109   .     S
O1439  C1440   1.410   .     S
C1440  H1443   1.113   .     S
C1440  H1441   1.114   .     S
C1440  H1442   1.109   .     S
O1444  C1445   1.410   .     S
C1445  H1448   1.113   .     S
C1445  H1446   1.114   .     S
C1445  H1447   1.109   .     S
O1449  C658    1.410   1_565 S
C1450  H1451   1.109   .     S
C1450  H1453   1.113   .     S
C1450  H1452   1.114   .     S
O1454  C1455   1.410   .     S
C1455  H1458   1.113   .     S
C1455  H1456   1.109   .     S
C1455  H1457   1.114   .     S
O1459  C1460   1.410   .     S
C1460  H1461   1.109   .     S
C1460  H1463   1.113   .     S
C1460  H1462   1.114   .     S
O1464  C1465   1.410   .     S
C1465  H1467   1.114   .     S
C1465  H1468   1.113   .     S
C1465  H1466   1.109   .     S
C1470  H1471   1.109   .     S
C1470  H1472   1.114   .     S
C1470  H1473   1.113   .     S
C1470  O677    1.410   1_565 S
O1474  C1475   1.410   .     S
C1475  H1478   1.113   .     S
C1475  H1477   1.114   .     S
C1475  H1476   1.109   .     S
O1479  C1480   1.410   .     S
C1480  H1482   1.114   .     S
C1480  H1481   1.109   .     S
C1480  H1483   1.113   .     S
O1484  C1485   1.410   .     S
C1485  H1487   1.114   .     S
C1485  H1486   1.109   .     S
C1485  H1488   1.113   .     S
N1489  O1490   1.301   .     A
N1489  O1491   1.301   .     A
N1492  O1494   1.301   .     A
N1492  O1493   1.301   .     A
N1495  O1497   1.301   .     A
N1495  O1496   1.301   .     A
N1498  O1500   1.301   .     A
N1498  O1499   1.301   .     A
N1501  O1502   1.301   .     A
N1501  O1503   1.301   .     A
N1504  O1505   1.301   .     A
N1504  O1506   1.301   .     A
N1507  O1509   1.301   .     A
N1507  O1508   1.301   .     A
N1510  O1512   1.301   .     A
N1510  O1511   1.301   .     A
N1513  O1515   1.301   .     A
N1513  O1514   1.301   .     A
N1516  O1517   1.301   .     A
N1516  O1518   1.301   .     A
N1519  O1520   1.301   .     A
N1519  O1521   1.301   .     A
N1522  O1523   1.301   .     A
N1522  O1524   1.301   .     A
N1525  O1526   1.301   .     A
N1525  O1527   1.301   .     A
N1528  O1530   1.301   .     A
N1528  O1529   1.301   .     A
N1531  O1533   1.301   .     A
N1531  O1532   1.301   .     A
N1534  O1536   1.301   .     A
N1534  O1535   1.301   .     A
N1537  O1538   1.301   .     A
N1537  O1539   1.301   .     A
N1540  O1541   1.301   .     A
N1540  O1542   1.301   .     A
N1543  O1544   1.301   .     A
N1543  O1545   1.301   .     A
N1546  O1548   1.301   .     A
N1546  O1547   1.301   .     A
N1549  O1551   1.301   .     A
N1549  O1550   1.301   .     A
N1552  O1553   1.301   .     A
N1552  O1554   1.301   .     A
N1555  O1557   1.301   .     A
N1555  O1556   1.301   .     A
N1558  O1559   1.301   .     A
N1558  O1560   1.301   .     A
N1561  O1563   1.301   .     A
N1561  O1562   1.301   .     A
N1564  O1566   1.301   .     A
N1564  O1565   1.301   .     A
N1567  O1568   1.301   .     A
N1567  O1569   1.301   .     A
N1570  O1571   1.301   .     A
N1570  O1572   1.301   .     A
N1573  O1575   1.301   .     A
N1573  O1574   1.301   .     A
N1576  O1577   1.301   .     A
N1576  O1578   1.301   .     A
N1579  O1581   1.301   .     A
N1579  O1580   1.301   .     A
N1582  O1583   1.301   .     A
N1582  O1584   1.301   .     A
