data_str_m3_o2_o10_pcu_sym.30
_audit_creation_date              2020-01-03
_audit_creation_method            'Materials Studio'
_symmetry_space_group_name_H-M    'P1'
_symmetry_Int_Tables_number       1
_symmetry_cell_setting            triclinic
loop_
_symmetry_equiv_pos_as_xyz
  x,y,z
_cell_length_a                    25.7692
_cell_length_b                    29.9230
_cell_length_c                    28.4316
_cell_angle_alpha                 90.4853
_cell_angle_beta                  99.0073
_cell_angle_gamma                 90.3987
loop_
_atom_site_label
_atom_site_type_symbol
_atom_site_fract_x
_atom_site_fract_y
_atom_site_fract_z
_atom_site_U_iso_or_equiv
_atom_site_adp_type
_atom_site_occupancy
C1     C     0.16547   0.16402   0.24967   0.00000  Uiso   1.00
C2     C     0.14466   0.21398   0.44375   0.00000  Uiso   1.00
C3     C     0.16496   0.24897   0.02657   0.00000  Uiso   1.00
C4     C     0.16402   0.25056   0.47312   0.00000  Uiso   1.00
C5     C     0.06700   0.24993   0.23748   0.00000  Uiso   1.00
C6     C     0.26633   0.25000   0.26252   0.00000  Uiso   1.00
C7     C     0.01189   0.24986   0.23079   0.00000  Uiso   1.00
C8     C     0.32146   0.24994   0.26920   0.00000  Uiso   1.00
C9     C     0.12905   0.04680   0.27518   0.00000  Uiso   1.00
C10    C     0.12908   0.45273   0.21447   0.00000  Uiso   1.00
C11    C     0.12708   0.09308   0.27320   0.00000  Uiso   1.00
C12    C     0.16559   0.33597   0.25002   0.00000  Uiso   1.00
C13    C     0.12717   0.40642   0.21576   0.00000  Uiso   1.00
C14    C     0.16282   0.11616   0.24902   0.00000  Uiso   1.00
C15    C     0.16295   0.38379   0.25000   0.00000  Uiso   1.00
C16    C     0.19831   0.09339   0.22542   0.00000  Uiso   1.00
C17    C     0.19838   0.40703   0.28377   0.00000  Uiso   1.00
C18    C     0.19975   0.04702   0.22616   0.00000  Uiso   1.00
C19    C     0.19972   0.45343   0.28360   0.00000  Uiso   1.00
C20    C     0.16516   0.02408   0.25101   0.00000  Uiso   1.00
C21    C     0.16513   0.47592   0.24898   0.00000  Uiso   1.00
C22    C     0.12087   0.23443   0.04628   0.00000  Uiso   1.00
C23    C     0.18395   0.28769   0.45064   0.00000  Uiso   1.00
C24    C     0.12395   0.23254   0.09694   0.00000  Uiso   1.00
C25    C     0.18798   0.28531   0.40182   0.00000  Uiso   1.00
C26    C     0.20917   0.26482   0.10765   0.00000  Uiso   1.00
C27    C     0.14511   0.21486   0.39428   0.00000  Uiso   1.00
C28    C     0.20971   0.26325   0.05831   0.00000  Uiso   1.00
H29    H     0.22540   0.11184   0.20712   0.00000  Uiso   1.00
H30    H     0.08188   0.35495   0.19589   0.00000  Uiso   1.00
H31    H     0.25560   0.04458   0.18730   0.00000  Uiso   1.00
H32    H     0.25546   0.45659   0.33841   0.00000  Uiso   1.00
H33    H     0.04480   0.22881   0.03274   0.00000  Uiso   1.00
H34    H     0.18105   0.33016   0.00209   0.00000  Uiso   1.00
H35    H     0.06724   0.18931   0.09544   0.00000  Uiso   1.00
H36    H     0.23127   0.30663   0.35790   0.00000  Uiso   1.00
H37    H     0.24475   0.27411   0.04491   0.00000  Uiso   1.00
H38    H     0.12947   0.18453   0.45896   0.00000  Uiso   1.00
H39    H     0.22551   0.38894   0.30970   0.00000  Uiso   1.00
H40    H     0.24333   0.27735   0.13117   0.00000  Uiso   1.00
H41    H     0.12888   0.18686   0.37238   0.00000  Uiso   1.00
H42    H     0.32438   0.24978   0.19443   0.00000  Uiso   1.00
H43    H     0.00898   0.24998   0.30556   0.00000  Uiso   1.00
H44    H     0.10112   0.49289   0.30155   0.00000  Uiso   1.00
H45    H     0.10103   0.00630   0.18034   0.00000  Uiso   1.00
H46    H     0.08190   0.14397   0.28026   0.00000  Uiso   1.00
N47    N     0.16667   0.24999   0.12624   0.00000  Uiso   1.00
N48    N     0.16667   0.25001   0.37377   0.00000  Uiso   1.00
O49    O     0.16667   0.18453   0.28974   0.00000  Uiso   1.00
O50    O     0.09405   0.47378   0.17991   0.00000  Uiso   1.00
O51    O     0.08929   0.11427   0.29471   0.00000  Uiso   1.00
O52    O     0.08938   0.38472   0.18349   0.00000  Uiso   1.00
O53    O     0.23421   0.02330   0.20294   0.00000  Uiso   1.00
O54    O     0.23409   0.47759   0.31671   0.00000  Uiso   1.00
O55    O     0.07510   0.22417   0.01576   0.00000  Uiso   1.00
O56    O     0.20027   0.32681   0.47475   0.00000  Uiso   1.00
O57    O     0.08518   0.21224   0.11767   0.00000  Uiso   1.00
O58    O     0.21388   0.31961   0.38331   0.00000  Uiso   1.00
O59    O     0.16666   0.31546   0.21026   0.00000  Uiso   1.00
O60    O     0.16667   0.18453   0.21026   0.00000  Uiso   1.00
O61    O     0.16666   0.31547   0.28974   0.00000  Uiso   1.00
O62    O     0.09058   0.25000   0.28045   0.00000  Uiso   1.00
O63    O     0.24275   0.25000   0.21956   0.00000  Uiso   1.00
O64    O     0.09058   0.24999   0.20097   0.00000  Uiso   1.00
O65    O     0.24275   0.25000   0.29904   0.00000  Uiso   1.00
O66    O     0.09404   0.02529   0.29984   0.00000  Uiso   1.00
Zn67   Zn    0.16667   0.25000   0.30307   0.00000  Uiso   1.00
Zn68   Zn    0.16667   0.24999   0.19693   0.00000  Uiso   1.00
C69    C     0.49881   0.16402   0.24967   0.00000  Uiso   1.00
C70    C     0.47800   0.21398   0.44375   0.00000  Uiso   1.00
C71    C     0.49829   0.24897   0.02657   0.00000  Uiso   1.00
C72    C     0.49736   0.25056   0.47312   0.00000  Uiso   1.00
C73    C     0.40033   0.24993   0.23748   0.00000  Uiso   1.00
C74    C     0.59967   0.25000   0.26252   0.00000  Uiso   1.00
C75    C     0.34522   0.24986   0.23079   0.00000  Uiso   1.00
C76    C     0.65479   0.24994   0.26920   0.00000  Uiso   1.00
C77    C     0.46238   0.04680   0.27518   0.00000  Uiso   1.00
C78    C     0.46241   0.45273   0.21447   0.00000  Uiso   1.00
C79    C     0.46041   0.09308   0.27320   0.00000  Uiso   1.00
C80    C     0.49892   0.33597   0.25002   0.00000  Uiso   1.00
C81    C     0.46050   0.40642   0.21576   0.00000  Uiso   1.00
C82    C     0.49615   0.11616   0.24902   0.00000  Uiso   1.00
C83    C     0.49629   0.38379   0.25000   0.00000  Uiso   1.00
C84    C     0.53164   0.09339   0.22542   0.00000  Uiso   1.00
C85    C     0.53171   0.40703   0.28377   0.00000  Uiso   1.00
C86    C     0.53308   0.04702   0.22616   0.00000  Uiso   1.00
C87    C     0.53305   0.45343   0.28360   0.00000  Uiso   1.00
C88    C     0.49849   0.02408   0.25101   0.00000  Uiso   1.00
C89    C     0.49847   0.47592   0.24898   0.00000  Uiso   1.00
C90    C     0.45420   0.23443   0.04628   0.00000  Uiso   1.00
C91    C     0.51728   0.28769   0.45064   0.00000  Uiso   1.00
C92    C     0.45729   0.23254   0.09694   0.00000  Uiso   1.00
C93    C     0.52131   0.28531   0.40182   0.00000  Uiso   1.00
C94    C     0.54251   0.26482   0.10765   0.00000  Uiso   1.00
C95    C     0.47844   0.21486   0.39428   0.00000  Uiso   1.00
C96    C     0.54304   0.26325   0.05831   0.00000  Uiso   1.00
H97    H     0.55874   0.11184   0.20712   0.00000  Uiso   1.00
H98    H     0.41522   0.35495   0.19589   0.00000  Uiso   1.00
H99    H     0.58893   0.04458   0.18730   0.00000  Uiso   1.00
H100   H     0.58879   0.45659   0.33841   0.00000  Uiso   1.00
H101   H     0.37813   0.22881   0.03274   0.00000  Uiso   1.00
H102   H     0.51438   0.33016   0.00209   0.00000  Uiso   1.00
H103   H     0.40058   0.18931   0.09544   0.00000  Uiso   1.00
H104   H     0.56460   0.30663   0.35790   0.00000  Uiso   1.00
H105   H     0.57809   0.27411   0.04491   0.00000  Uiso   1.00
H106   H     0.46280   0.18453   0.45896   0.00000  Uiso   1.00
H107   H     0.55884   0.38894   0.30970   0.00000  Uiso   1.00
H108   H     0.57666   0.27735   0.13117   0.00000  Uiso   1.00
H109   H     0.46221   0.18686   0.37238   0.00000  Uiso   1.00
H110   H     0.65771   0.24978   0.19443   0.00000  Uiso   1.00
H111   H     0.34232   0.24998   0.30556   0.00000  Uiso   1.00
H112   H     0.43445   0.49289   0.30155   0.00000  Uiso   1.00
H113   H     0.43436   0.00630   0.18034   0.00000  Uiso   1.00
H114   H     0.41523   0.14397   0.28026   0.00000  Uiso   1.00
N115   N     0.50000   0.24999   0.12624   0.00000  Uiso   1.00
N116   N     0.50000   0.25001   0.37377   0.00000  Uiso   1.00
O117   O     0.50000   0.18453   0.28974   0.00000  Uiso   1.00
O118   O     0.42739   0.47378   0.17991   0.00000  Uiso   1.00
O119   O     0.42262   0.11427   0.29471   0.00000  Uiso   1.00
O120   O     0.42271   0.38472   0.18349   0.00000  Uiso   1.00
O121   O     0.56754   0.02330   0.20294   0.00000  Uiso   1.00
O122   O     0.56743   0.47759   0.31671   0.00000  Uiso   1.00
O123   O     0.40844   0.22417   0.01576   0.00000  Uiso   1.00
O124   O     0.53360   0.32681   0.47475   0.00000  Uiso   1.00
O125   O     0.41851   0.21224   0.11767   0.00000  Uiso   1.00
O126   O     0.54721   0.31961   0.38331   0.00000  Uiso   1.00
O127   O     0.50000   0.31546   0.21026   0.00000  Uiso   1.00
O128   O     0.50000   0.18453   0.21026   0.00000  Uiso   1.00
O129   O     0.50000   0.31547   0.28974   0.00000  Uiso   1.00
O130   O     0.42392   0.25000   0.28045   0.00000  Uiso   1.00
O131   O     0.57608   0.25000   0.21956   0.00000  Uiso   1.00
O132   O     0.42392   0.24999   0.20097   0.00000  Uiso   1.00
O133   O     0.57608   0.25000   0.29904   0.00000  Uiso   1.00
O134   O     0.42737   0.02529   0.29984   0.00000  Uiso   1.00
Zn135  Zn    0.50000   0.25000   0.30307   0.00000  Uiso   1.00
Zn136  Zn    0.50000   0.24999   0.19693   0.00000  Uiso   1.00
C137   C     0.83214   0.16402   0.24967   0.00000  Uiso   1.00
C138   C     0.81133   0.21398   0.44375   0.00000  Uiso   1.00
C139   C     0.83162   0.24897   0.02657   0.00000  Uiso   1.00
C140   C     0.83069   0.25056   0.47312   0.00000  Uiso   1.00
C141   C     0.73367   0.24993   0.23748   0.00000  Uiso   1.00
C142   C     0.93300   0.25000   0.26252   0.00000  Uiso   1.00
C143   C     0.67855   0.24986   0.23079   0.00000  Uiso   1.00
C144   C     0.98812   0.24994   0.26920   0.00000  Uiso   1.00
C145   C     0.79572   0.04680   0.27518   0.00000  Uiso   1.00
C146   C     0.79574   0.45273   0.21447   0.00000  Uiso   1.00
C147   C     0.79374   0.09308   0.27320   0.00000  Uiso   1.00
C148   C     0.83225   0.33597   0.25002   0.00000  Uiso   1.00
C149   C     0.79383   0.40642   0.21576   0.00000  Uiso   1.00
C150   C     0.82948   0.11616   0.24902   0.00000  Uiso   1.00
C151   C     0.82962   0.38379   0.25000   0.00000  Uiso   1.00
C152   C     0.86497   0.09339   0.22542   0.00000  Uiso   1.00
C153   C     0.86505   0.40703   0.28377   0.00000  Uiso   1.00
C154   C     0.86641   0.04702   0.22616   0.00000  Uiso   1.00
C155   C     0.86638   0.45343   0.28360   0.00000  Uiso   1.00
C156   C     0.83183   0.02408   0.25101   0.00000  Uiso   1.00
C157   C     0.83180   0.47592   0.24898   0.00000  Uiso   1.00
C158   C     0.78753   0.23443   0.04628   0.00000  Uiso   1.00
C159   C     0.85062   0.28769   0.45064   0.00000  Uiso   1.00
C160   C     0.79062   0.23254   0.09694   0.00000  Uiso   1.00
C161   C     0.85465   0.28531   0.40182   0.00000  Uiso   1.00
C162   C     0.87584   0.26482   0.10765   0.00000  Uiso   1.00
C163   C     0.81177   0.21486   0.39428   0.00000  Uiso   1.00
C164   C     0.87637   0.26325   0.05831   0.00000  Uiso   1.00
H165   H     0.89207   0.11184   0.20712   0.00000  Uiso   1.00
H166   H     0.74855   0.35495   0.19589   0.00000  Uiso   1.00
H167   H     0.92227   0.04458   0.18730   0.00000  Uiso   1.00
H168   H     0.92212   0.45659   0.33841   0.00000  Uiso   1.00
H169   H     0.71146   0.22881   0.03274   0.00000  Uiso   1.00
H170   H     0.84771   0.33016   0.00209   0.00000  Uiso   1.00
H171   H     0.73391   0.18931   0.09544   0.00000  Uiso   1.00
H172   H     0.89793   0.30663   0.35790   0.00000  Uiso   1.00
H173   H     0.91142   0.27411   0.04491   0.00000  Uiso   1.00
H174   H     0.79614   0.18453   0.45896   0.00000  Uiso   1.00
H175   H     0.89218   0.38894   0.30970   0.00000  Uiso   1.00
H176   H     0.91000   0.27735   0.13117   0.00000  Uiso   1.00
H177   H     0.79554   0.18686   0.37238   0.00000  Uiso   1.00
H178   H     0.99104   0.24978   0.19443   0.00000  Uiso   1.00
H179   H     0.67565   0.24998   0.30556   0.00000  Uiso   1.00
H180   H     0.76778   0.49289   0.30155   0.00000  Uiso   1.00
H181   H     0.76770   0.00630   0.18034   0.00000  Uiso   1.00
H182   H     0.74856   0.14397   0.28026   0.00000  Uiso   1.00
N183   N     0.83333   0.24999   0.12624   0.00000  Uiso   1.00
N184   N     0.83333   0.25001   0.37377   0.00000  Uiso   1.00
O185   O     0.83334   0.18453   0.28974   0.00000  Uiso   1.00
O186   O     0.76072   0.47378   0.17991   0.00000  Uiso   1.00
O187   O     0.75595   0.11427   0.29471   0.00000  Uiso   1.00
O188   O     0.75604   0.38472   0.18349   0.00000  Uiso   1.00
O189   O     0.90087   0.02330   0.20294   0.00000  Uiso   1.00
O190   O     0.90076   0.47759   0.31671   0.00000  Uiso   1.00
O191   O     0.74177   0.22417   0.01576   0.00000  Uiso   1.00
O192   O     0.86694   0.32681   0.47475   0.00000  Uiso   1.00
O193   O     0.75184   0.21224   0.11767   0.00000  Uiso   1.00
O194   O     0.88055   0.31961   0.38331   0.00000  Uiso   1.00
O195   O     0.83333   0.31546   0.21026   0.00000  Uiso   1.00
O196   O     0.83334   0.18453   0.21026   0.00000  Uiso   1.00
O197   O     0.83333   0.31547   0.28974   0.00000  Uiso   1.00
O198   O     0.75725   0.25000   0.28045   0.00000  Uiso   1.00
O199   O     0.90942   0.25000   0.21956   0.00000  Uiso   1.00
O200   O     0.75725   0.24999   0.20097   0.00000  Uiso   1.00
O201   O     0.90942   0.25000   0.29904   0.00000  Uiso   1.00
O202   O     0.76070   0.02529   0.29984   0.00000  Uiso   1.00
Zn203  Zn    0.83333   0.25000   0.30307   0.00000  Uiso   1.00
Zn204  Zn    0.83333   0.24999   0.19693   0.00000  Uiso   1.00
C205   C     0.16547   0.66402   0.24967   0.00000  Uiso   1.00
C206   C     0.14466   0.71398   0.44375   0.00000  Uiso   1.00
C207   C     0.16496   0.74897   0.02657   0.00000  Uiso   1.00
C208   C     0.16402   0.75056   0.47312   0.00000  Uiso   1.00
C209   C     0.06700   0.74993   0.23748   0.00000  Uiso   1.00
C210   C     0.26633   0.75000   0.26252   0.00000  Uiso   1.00
C211   C     0.01189   0.74986   0.23079   0.00000  Uiso   1.00
C212   C     0.32146   0.74994   0.26920   0.00000  Uiso   1.00
C213   C     0.12905   0.54680   0.27518   0.00000  Uiso   1.00
C214   C     0.12908   0.95273   0.21447   0.00000  Uiso   1.00
C215   C     0.12708   0.59308   0.27320   0.00000  Uiso   1.00
C216   C     0.16559   0.83597   0.25002   0.00000  Uiso   1.00
C217   C     0.12717   0.90642   0.21576   0.00000  Uiso   1.00
C218   C     0.16282   0.61616   0.24902   0.00000  Uiso   1.00
C219   C     0.16295   0.88379   0.25000   0.00000  Uiso   1.00
C220   C     0.19831   0.59339   0.22542   0.00000  Uiso   1.00
C221   C     0.19838   0.90703   0.28377   0.00000  Uiso   1.00
C222   C     0.19975   0.54702   0.22616   0.00000  Uiso   1.00
C223   C     0.19972   0.95343   0.28360   0.00000  Uiso   1.00
C224   C     0.16516   0.52408   0.25101   0.00000  Uiso   1.00
C225   C     0.16513   0.97592   0.24898   0.00000  Uiso   1.00
C226   C     0.12087   0.73443   0.04628   0.00000  Uiso   1.00
C227   C     0.18395   0.78769   0.45064   0.00000  Uiso   1.00
C228   C     0.12395   0.73254   0.09694   0.00000  Uiso   1.00
C229   C     0.18798   0.78531   0.40182   0.00000  Uiso   1.00
C230   C     0.20917   0.76482   0.10765   0.00000  Uiso   1.00
C231   C     0.14511   0.71486   0.39428   0.00000  Uiso   1.00
C232   C     0.20971   0.76325   0.05831   0.00000  Uiso   1.00
H233   H     0.22540   0.61184   0.20712   0.00000  Uiso   1.00
H234   H     0.08188   0.85495   0.19589   0.00000  Uiso   1.00
H235   H     0.25560   0.54458   0.18730   0.00000  Uiso   1.00
H236   H     0.25546   0.95659   0.33841   0.00000  Uiso   1.00
H237   H     0.04480   0.72881   0.03274   0.00000  Uiso   1.00
H238   H     0.18105   0.83016   0.00209   0.00000  Uiso   1.00
H239   H     0.06724   0.68931   0.09544   0.00000  Uiso   1.00
H240   H     0.23127   0.80663   0.35790   0.00000  Uiso   1.00
H241   H     0.24475   0.77411   0.04491   0.00000  Uiso   1.00
H242   H     0.12947   0.68453   0.45896   0.00000  Uiso   1.00
H243   H     0.22551   0.88894   0.30970   0.00000  Uiso   1.00
H244   H     0.24333   0.77735   0.13117   0.00000  Uiso   1.00
H245   H     0.12888   0.68686   0.37238   0.00000  Uiso   1.00
H246   H     0.32438   0.74978   0.19443   0.00000  Uiso   1.00
H247   H     0.00898   0.74998   0.30556   0.00000  Uiso   1.00
H248   H     0.10112   0.99289   0.30155   0.00000  Uiso   1.00
H249   H     0.10103   0.50630   0.18034   0.00000  Uiso   1.00
H250   H     0.08190   0.64397   0.28026   0.00000  Uiso   1.00
N251   N     0.16667   0.74999   0.12624   0.00000  Uiso   1.00
N252   N     0.16667   0.75001   0.37377   0.00000  Uiso   1.00
O253   O     0.16667   0.68453   0.28974   0.00000  Uiso   1.00
O254   O     0.09405   0.97378   0.17991   0.00000  Uiso   1.00
O255   O     0.08929   0.61427   0.29471   0.00000  Uiso   1.00
O256   O     0.08938   0.88472   0.18349   0.00000  Uiso   1.00
O257   O     0.23421   0.52330   0.20294   0.00000  Uiso   1.00
O258   O     0.23409   0.97759   0.31671   0.00000  Uiso   1.00
O259   O     0.07510   0.72417   0.01576   0.00000  Uiso   1.00
O260   O     0.20027   0.82681   0.47475   0.00000  Uiso   1.00
O261   O     0.08518   0.71224   0.11767   0.00000  Uiso   1.00
O262   O     0.21388   0.81961   0.38331   0.00000  Uiso   1.00
O263   O     0.16666   0.81546   0.21026   0.00000  Uiso   1.00
O264   O     0.16667   0.68453   0.21026   0.00000  Uiso   1.00
O265   O     0.16666   0.81547   0.28974   0.00000  Uiso   1.00
O266   O     0.09058   0.75000   0.28045   0.00000  Uiso   1.00
O267   O     0.24275   0.75000   0.21956   0.00000  Uiso   1.00
O268   O     0.09058   0.74999   0.20097   0.00000  Uiso   1.00
O269   O     0.24275   0.75000   0.29904   0.00000  Uiso   1.00
O270   O     0.09404   0.52529   0.29984   0.00000  Uiso   1.00
Zn271  Zn    0.16667   0.75000   0.30307   0.00000  Uiso   1.00
Zn272  Zn    0.16667   0.74999   0.19693   0.00000  Uiso   1.00
C273   C     0.49881   0.66402   0.24967   0.00000  Uiso   1.00
C274   C     0.47800   0.71398   0.44375   0.00000  Uiso   1.00
C275   C     0.49829   0.74897   0.02657   0.00000  Uiso   1.00
C276   C     0.49736   0.75056   0.47312   0.00000  Uiso   1.00
C277   C     0.40033   0.74993   0.23748   0.00000  Uiso   1.00
C278   C     0.59967   0.75000   0.26252   0.00000  Uiso   1.00
C279   C     0.34522   0.74986   0.23079   0.00000  Uiso   1.00
C280   C     0.65479   0.74994   0.26920   0.00000  Uiso   1.00
C281   C     0.46238   0.54680   0.27518   0.00000  Uiso   1.00
C282   C     0.46241   0.95273   0.21447   0.00000  Uiso   1.00
C283   C     0.46041   0.59308   0.27320   0.00000  Uiso   1.00
C284   C     0.49892   0.83597   0.25002   0.00000  Uiso   1.00
C285   C     0.46050   0.90642   0.21576   0.00000  Uiso   1.00
C286   C     0.49615   0.61616   0.24902   0.00000  Uiso   1.00
C287   C     0.49629   0.88379   0.25000   0.00000  Uiso   1.00
C288   C     0.53164   0.59339   0.22542   0.00000  Uiso   1.00
C289   C     0.53171   0.90703   0.28377   0.00000  Uiso   1.00
C290   C     0.53308   0.54702   0.22616   0.00000  Uiso   1.00
C291   C     0.53305   0.95343   0.28360   0.00000  Uiso   1.00
C292   C     0.49849   0.52408   0.25101   0.00000  Uiso   1.00
C293   C     0.49847   0.97592   0.24898   0.00000  Uiso   1.00
C294   C     0.45420   0.73443   0.04628   0.00000  Uiso   1.00
C295   C     0.51728   0.78769   0.45064   0.00000  Uiso   1.00
C296   C     0.45729   0.73254   0.09694   0.00000  Uiso   1.00
C297   C     0.52131   0.78531   0.40182   0.00000  Uiso   1.00
C298   C     0.54251   0.76482   0.10765   0.00000  Uiso   1.00
C299   C     0.47844   0.71486   0.39428   0.00000  Uiso   1.00
C300   C     0.54304   0.76325   0.05831   0.00000  Uiso   1.00
H301   H     0.55874   0.61184   0.20712   0.00000  Uiso   1.00
H302   H     0.41522   0.85495   0.19589   0.00000  Uiso   1.00
H303   H     0.58893   0.54458   0.18730   0.00000  Uiso   1.00
H304   H     0.58879   0.95659   0.33841   0.00000  Uiso   1.00
H305   H     0.37813   0.72881   0.03274   0.00000  Uiso   1.00
H306   H     0.51438   0.83016   0.00209   0.00000  Uiso   1.00
H307   H     0.40058   0.68931   0.09544   0.00000  Uiso   1.00
H308   H     0.56460   0.80663   0.35790   0.00000  Uiso   1.00
H309   H     0.57809   0.77411   0.04491   0.00000  Uiso   1.00
H310   H     0.46280   0.68453   0.45896   0.00000  Uiso   1.00
H311   H     0.55884   0.88894   0.30970   0.00000  Uiso   1.00
H312   H     0.57666   0.77735   0.13117   0.00000  Uiso   1.00
H313   H     0.46221   0.68686   0.37238   0.00000  Uiso   1.00
H314   H     0.65771   0.74978   0.19443   0.00000  Uiso   1.00
H315   H     0.34232   0.74998   0.30556   0.00000  Uiso   1.00
H316   H     0.43445   0.99289   0.30155   0.00000  Uiso   1.00
H317   H     0.43436   0.50630   0.18034   0.00000  Uiso   1.00
H318   H     0.41523   0.64397   0.28026   0.00000  Uiso   1.00
N319   N     0.50000   0.74999   0.12624   0.00000  Uiso   1.00
N320   N     0.50000   0.75001   0.37377   0.00000  Uiso   1.00
O321   O     0.50000   0.68453   0.28974   0.00000  Uiso   1.00
O322   O     0.42739   0.97378   0.17991   0.00000  Uiso   1.00
O323   O     0.42262   0.61427   0.29471   0.00000  Uiso   1.00
O324   O     0.42271   0.88472   0.18349   0.00000  Uiso   1.00
O325   O     0.56754   0.52330   0.20294   0.00000  Uiso   1.00
O326   O     0.56743   0.97759   0.31671   0.00000  Uiso   1.00
O327   O     0.40844   0.72417   0.01576   0.00000  Uiso   1.00
O328   O     0.53360   0.82681   0.47475   0.00000  Uiso   1.00
O329   O     0.41851   0.71224   0.11767   0.00000  Uiso   1.00
O330   O     0.54721   0.81961   0.38331   0.00000  Uiso   1.00
O331   O     0.50000   0.81546   0.21026   0.00000  Uiso   1.00
O332   O     0.50000   0.68453   0.21026   0.00000  Uiso   1.00
O333   O     0.50000   0.81547   0.28974   0.00000  Uiso   1.00
O334   O     0.42392   0.75000   0.28045   0.00000  Uiso   1.00
O335   O     0.57608   0.75000   0.21956   0.00000  Uiso   1.00
O336   O     0.42392   0.74999   0.20097   0.00000  Uiso   1.00
O337   O     0.57608   0.75000   0.29904   0.00000  Uiso   1.00
O338   O     0.42737   0.52529   0.29984   0.00000  Uiso   1.00
Zn339  Zn    0.50000   0.75000   0.30307   0.00000  Uiso   1.00
Zn340  Zn    0.50000   0.74999   0.19693   0.00000  Uiso   1.00
C341   C     0.83214   0.66402   0.24967   0.00000  Uiso   1.00
C342   C     0.81133   0.71398   0.44375   0.00000  Uiso   1.00
C343   C     0.83162   0.74897   0.02657   0.00000  Uiso   1.00
C344   C     0.83069   0.75056   0.47312   0.00000  Uiso   1.00
C345   C     0.73367   0.74993   0.23748   0.00000  Uiso   1.00
C346   C     0.93300   0.75000   0.26252   0.00000  Uiso   1.00
C347   C     0.67855   0.74986   0.23079   0.00000  Uiso   1.00
C348   C     0.98812   0.74994   0.26920   0.00000  Uiso   1.00
C349   C     0.79572   0.54680   0.27518   0.00000  Uiso   1.00
C350   C     0.79574   0.95273   0.21447   0.00000  Uiso   1.00
C351   C     0.79374   0.59308   0.27320   0.00000  Uiso   1.00
C352   C     0.83225   0.83597   0.25002   0.00000  Uiso   1.00
C353   C     0.79383   0.90642   0.21576   0.00000  Uiso   1.00
C354   C     0.82948   0.61616   0.24902   0.00000  Uiso   1.00
C355   C     0.82962   0.88379   0.25000   0.00000  Uiso   1.00
C356   C     0.86497   0.59339   0.22542   0.00000  Uiso   1.00
C357   C     0.86505   0.90703   0.28377   0.00000  Uiso   1.00
C358   C     0.86641   0.54702   0.22616   0.00000  Uiso   1.00
C359   C     0.86638   0.95343   0.28360   0.00000  Uiso   1.00
C360   C     0.83183   0.52408   0.25101   0.00000  Uiso   1.00
C361   C     0.83180   0.97592   0.24898   0.00000  Uiso   1.00
C362   C     0.78753   0.73443   0.04628   0.00000  Uiso   1.00
C363   C     0.85062   0.78769   0.45064   0.00000  Uiso   1.00
C364   C     0.79062   0.73254   0.09694   0.00000  Uiso   1.00
C365   C     0.85465   0.78531   0.40182   0.00000  Uiso   1.00
C366   C     0.87584   0.76482   0.10765   0.00000  Uiso   1.00
C367   C     0.81177   0.71486   0.39428   0.00000  Uiso   1.00
C368   C     0.87637   0.76325   0.05831   0.00000  Uiso   1.00
H369   H     0.89207   0.61184   0.20712   0.00000  Uiso   1.00
H370   H     0.74855   0.85495   0.19589   0.00000  Uiso   1.00
H371   H     0.92227   0.54458   0.18730   0.00000  Uiso   1.00
H372   H     0.92212   0.95659   0.33841   0.00000  Uiso   1.00
H373   H     0.71146   0.72881   0.03274   0.00000  Uiso   1.00
H374   H     0.84771   0.83016   0.00209   0.00000  Uiso   1.00
H375   H     0.73391   0.68931   0.09544   0.00000  Uiso   1.00
H376   H     0.89793   0.80663   0.35790   0.00000  Uiso   1.00
H377   H     0.91142   0.77411   0.04491   0.00000  Uiso   1.00
H378   H     0.79614   0.68453   0.45896   0.00000  Uiso   1.00
H379   H     0.89218   0.88894   0.30970   0.00000  Uiso   1.00
H380   H     0.91000   0.77735   0.13117   0.00000  Uiso   1.00
H381   H     0.79554   0.68686   0.37238   0.00000  Uiso   1.00
H382   H     0.99104   0.74978   0.19443   0.00000  Uiso   1.00
H383   H     0.67565   0.74998   0.30556   0.00000  Uiso   1.00
H384   H     0.76778   0.99289   0.30155   0.00000  Uiso   1.00
H385   H     0.76770   0.50630   0.18034   0.00000  Uiso   1.00
H386   H     0.74856   0.64397   0.28026   0.00000  Uiso   1.00
N387   N     0.83333   0.74999   0.12624   0.00000  Uiso   1.00
N388   N     0.83333   0.75001   0.37377   0.00000  Uiso   1.00
O389   O     0.83334   0.68453   0.28974   0.00000  Uiso   1.00
O390   O     0.76072   0.97378   0.17991   0.00000  Uiso   1.00
O391   O     0.75595   0.61427   0.29471   0.00000  Uiso   1.00
O392   O     0.75604   0.88472   0.18349   0.00000  Uiso   1.00
O393   O     0.90087   0.52330   0.20294   0.00000  Uiso   1.00
O394   O     0.90076   0.97759   0.31671   0.00000  Uiso   1.00
O395   O     0.74177   0.72417   0.01576   0.00000  Uiso   1.00
O396   O     0.86694   0.82681   0.47475   0.00000  Uiso   1.00
O397   O     0.75184   0.71224   0.11767   0.00000  Uiso   1.00
O398   O     0.88055   0.81961   0.38331   0.00000  Uiso   1.00
O399   O     0.83333   0.81546   0.21026   0.00000  Uiso   1.00
O400   O     0.83334   0.68453   0.21026   0.00000  Uiso   1.00
O401   O     0.83333   0.81547   0.28974   0.00000  Uiso   1.00
O402   O     0.75725   0.75000   0.28045   0.00000  Uiso   1.00
O403   O     0.90942   0.75000   0.21956   0.00000  Uiso   1.00
O404   O     0.75725   0.74999   0.20097   0.00000  Uiso   1.00
O405   O     0.90942   0.75000   0.29904   0.00000  Uiso   1.00
O406   O     0.76070   0.52529   0.29984   0.00000  Uiso   1.00
Zn407  Zn    0.83333   0.75000   0.30307   0.00000  Uiso   1.00
Zn408  Zn    0.83333   0.74999   0.19693   0.00000  Uiso   1.00
C409   C     0.16547   0.16402   0.74967   0.00000  Uiso   1.00
C410   C     0.14466   0.21398   0.94375   0.00000  Uiso   1.00
C411   C     0.16496   0.24897   0.52657   0.00000  Uiso   1.00
C412   C     0.16402   0.25056   0.97312   0.00000  Uiso   1.00
C413   C     0.06700   0.24993   0.73748   0.00000  Uiso   1.00
C414   C     0.26633   0.25000   0.76252   0.00000  Uiso   1.00
C415   C     0.01189   0.24986   0.73079   0.00000  Uiso   1.00
C416   C     0.32146   0.24994   0.76920   0.00000  Uiso   1.00
C417   C     0.12905   0.04680   0.77518   0.00000  Uiso   1.00
C418   C     0.12908   0.45273   0.71447   0.00000  Uiso   1.00
C419   C     0.12708   0.09308   0.77320   0.00000  Uiso   1.00
C420   C     0.16559   0.33597   0.75002   0.00000  Uiso   1.00
C421   C     0.12717   0.40642   0.71576   0.00000  Uiso   1.00
C422   C     0.16282   0.11616   0.74902   0.00000  Uiso   1.00
C423   C     0.16295   0.38379   0.75000   0.00000  Uiso   1.00
C424   C     0.19831   0.09339   0.72542   0.00000  Uiso   1.00
C425   C     0.19838   0.40703   0.78377   0.00000  Uiso   1.00
C426   C     0.19975   0.04702   0.72616   0.00000  Uiso   1.00
C427   C     0.19972   0.45343   0.78360   0.00000  Uiso   1.00
C428   C     0.16516   0.02408   0.75101   0.00000  Uiso   1.00
C429   C     0.16513   0.47592   0.74898   0.00000  Uiso   1.00
C430   C     0.12087   0.23443   0.54628   0.00000  Uiso   1.00
C431   C     0.18395   0.28769   0.95064   0.00000  Uiso   1.00
C432   C     0.12395   0.23254   0.59694   0.00000  Uiso   1.00
C433   C     0.18798   0.28531   0.90182   0.00000  Uiso   1.00
C434   C     0.20917   0.26482   0.60765   0.00000  Uiso   1.00
C435   C     0.14511   0.21486   0.89428   0.00000  Uiso   1.00
C436   C     0.20971   0.26325   0.55831   0.00000  Uiso   1.00
H437   H     0.22540   0.11184   0.70712   0.00000  Uiso   1.00
H438   H     0.08188   0.35495   0.69589   0.00000  Uiso   1.00
H439   H     0.25560   0.04458   0.68730   0.00000  Uiso   1.00
H440   H     0.25546   0.45659   0.83841   0.00000  Uiso   1.00
H441   H     0.04480   0.22881   0.53274   0.00000  Uiso   1.00
H442   H     0.18105   0.33016   0.50209   0.00000  Uiso   1.00
H443   H     0.06724   0.18931   0.59544   0.00000  Uiso   1.00
H444   H     0.23127   0.30663   0.85790   0.00000  Uiso   1.00
H445   H     0.24475   0.27411   0.54491   0.00000  Uiso   1.00
H446   H     0.12947   0.18453   0.95896   0.00000  Uiso   1.00
H447   H     0.22551   0.38894   0.80970   0.00000  Uiso   1.00
H448   H     0.24333   0.27735   0.63117   0.00000  Uiso   1.00
H449   H     0.12888   0.18686   0.87238   0.00000  Uiso   1.00
H450   H     0.32438   0.24978   0.69443   0.00000  Uiso   1.00
H451   H     0.00898   0.24998   0.80556   0.00000  Uiso   1.00
H452   H     0.10112   0.49289   0.80155   0.00000  Uiso   1.00
H453   H     0.10103   0.00630   0.68034   0.00000  Uiso   1.00
H454   H     0.08190   0.14397   0.78026   0.00000  Uiso   1.00
N455   N     0.16667   0.24999   0.62624   0.00000  Uiso   1.00
N456   N     0.16667   0.25001   0.87377   0.00000  Uiso   1.00
O457   O     0.16667   0.18453   0.78974   0.00000  Uiso   1.00
O458   O     0.09405   0.47378   0.67991   0.00000  Uiso   1.00
O459   O     0.08929   0.11427   0.79471   0.00000  Uiso   1.00
O460   O     0.08938   0.38472   0.68349   0.00000  Uiso   1.00
O461   O     0.23421   0.02330   0.70294   0.00000  Uiso   1.00
O462   O     0.23409   0.47759   0.81671   0.00000  Uiso   1.00
O463   O     0.07510   0.22417   0.51576   0.00000  Uiso   1.00
O464   O     0.20027   0.32681   0.97475   0.00000  Uiso   1.00
O465   O     0.08518   0.21224   0.61767   0.00000  Uiso   1.00
O466   O     0.21388   0.31961   0.88331   0.00000  Uiso   1.00
O467   O     0.16666   0.31546   0.71026   0.00000  Uiso   1.00
O468   O     0.16667   0.18453   0.71026   0.00000  Uiso   1.00
O469   O     0.16666   0.31547   0.78974   0.00000  Uiso   1.00
O470   O     0.09058   0.25000   0.78045   0.00000  Uiso   1.00
O471   O     0.24275   0.25000   0.71956   0.00000  Uiso   1.00
O472   O     0.09058   0.24999   0.70097   0.00000  Uiso   1.00
O473   O     0.24275   0.25000   0.79904   0.00000  Uiso   1.00
O474   O     0.09404   0.02529   0.79984   0.00000  Uiso   1.00
Zn475  Zn    0.16667   0.25000   0.80307   0.00000  Uiso   1.00
Zn476  Zn    0.16667   0.24999   0.69693   0.00000  Uiso   1.00
C477   C     0.49881   0.16402   0.74967   0.00000  Uiso   1.00
C478   C     0.47800   0.21398   0.94375   0.00000  Uiso   1.00
C479   C     0.49829   0.24897   0.52657   0.00000  Uiso   1.00
C480   C     0.49736   0.25056   0.97312   0.00000  Uiso   1.00
C481   C     0.40033   0.24993   0.73748   0.00000  Uiso   1.00
C482   C     0.59967   0.25000   0.76252   0.00000  Uiso   1.00
C483   C     0.34522   0.24986   0.73079   0.00000  Uiso   1.00
C484   C     0.65479   0.24994   0.76920   0.00000  Uiso   1.00
C485   C     0.46238   0.04680   0.77518   0.00000  Uiso   1.00
C486   C     0.46241   0.45273   0.71447   0.00000  Uiso   1.00
C487   C     0.46041   0.09308   0.77320   0.00000  Uiso   1.00
C488   C     0.49892   0.33597   0.75002   0.00000  Uiso   1.00
C489   C     0.46050   0.40642   0.71576   0.00000  Uiso   1.00
C490   C     0.49615   0.11616   0.74902   0.00000  Uiso   1.00
C491   C     0.49629   0.38379   0.75000   0.00000  Uiso   1.00
C492   C     0.53164   0.09339   0.72542   0.00000  Uiso   1.00
C493   C     0.53171   0.40703   0.78377   0.00000  Uiso   1.00
C494   C     0.53308   0.04702   0.72616   0.00000  Uiso   1.00
C495   C     0.53305   0.45343   0.78360   0.00000  Uiso   1.00
C496   C     0.49849   0.02408   0.75101   0.00000  Uiso   1.00
C497   C     0.49847   0.47592   0.74898   0.00000  Uiso   1.00
C498   C     0.45420   0.23443   0.54628   0.00000  Uiso   1.00
C499   C     0.51728   0.28769   0.95064   0.00000  Uiso   1.00
C500   C     0.45729   0.23254   0.59694   0.00000  Uiso   1.00
C501   C     0.52131   0.28531   0.90182   0.00000  Uiso   1.00
C502   C     0.54251   0.26482   0.60765   0.00000  Uiso   1.00
C503   C     0.47844   0.21486   0.89428   0.00000  Uiso   1.00
C504   C     0.54304   0.26325   0.55831   0.00000  Uiso   1.00
H505   H     0.55874   0.11184   0.70712   0.00000  Uiso   1.00
H506   H     0.41522   0.35495   0.69589   0.00000  Uiso   1.00
H507   H     0.58893   0.04458   0.68730   0.00000  Uiso   1.00
H508   H     0.58879   0.45659   0.83841   0.00000  Uiso   1.00
H509   H     0.37813   0.22881   0.53274   0.00000  Uiso   1.00
H510   H     0.51438   0.33016   0.50209   0.00000  Uiso   1.00
H511   H     0.40058   0.18931   0.59544   0.00000  Uiso   1.00
H512   H     0.56460   0.30663   0.85790   0.00000  Uiso   1.00
H513   H     0.57809   0.27411   0.54491   0.00000  Uiso   1.00
H514   H     0.46280   0.18453   0.95896   0.00000  Uiso   1.00
H515   H     0.55884   0.38894   0.80970   0.00000  Uiso   1.00
H516   H     0.57666   0.27735   0.63117   0.00000  Uiso   1.00
H517   H     0.46221   0.18686   0.87238   0.00000  Uiso   1.00
H518   H     0.65771   0.24978   0.69443   0.00000  Uiso   1.00
H519   H     0.34232   0.24998   0.80556   0.00000  Uiso   1.00
H520   H     0.43445   0.49289   0.80155   0.00000  Uiso   1.00
H521   H     0.43436   0.00630   0.68034   0.00000  Uiso   1.00
H522   H     0.41523   0.14397   0.78026   0.00000  Uiso   1.00
N523   N     0.50000   0.24999   0.62624   0.00000  Uiso   1.00
N524   N     0.50000   0.25001   0.87377   0.00000  Uiso   1.00
O525   O     0.50000   0.18453   0.78974   0.00000  Uiso   1.00
O526   O     0.42739   0.47378   0.67991   0.00000  Uiso   1.00
O527   O     0.42262   0.11427   0.79471   0.00000  Uiso   1.00
O528   O     0.42271   0.38472   0.68349   0.00000  Uiso   1.00
O529   O     0.56754   0.02330   0.70294   0.00000  Uiso   1.00
O530   O     0.56743   0.47759   0.81671   0.00000  Uiso   1.00
O531   O     0.40844   0.22417   0.51576   0.00000  Uiso   1.00
O532   O     0.53360   0.32681   0.97475   0.00000  Uiso   1.00
O533   O     0.41851   0.21224   0.61767   0.00000  Uiso   1.00
O534   O     0.54721   0.31961   0.88331   0.00000  Uiso   1.00
O535   O     0.50000   0.31546   0.71026   0.00000  Uiso   1.00
O536   O     0.50000   0.18453   0.71026   0.00000  Uiso   1.00
O537   O     0.50000   0.31547   0.78974   0.00000  Uiso   1.00
O538   O     0.42392   0.25000   0.78045   0.00000  Uiso   1.00
O539   O     0.57608   0.25000   0.71956   0.00000  Uiso   1.00
O540   O     0.42392   0.24999   0.70097   0.00000  Uiso   1.00
O541   O     0.57608   0.25000   0.79904   0.00000  Uiso   1.00
O542   O     0.42737   0.02529   0.79984   0.00000  Uiso   1.00
Zn543  Zn    0.50000   0.25000   0.80307   0.00000  Uiso   1.00
Zn544  Zn    0.50000   0.24999   0.69693   0.00000  Uiso   1.00
C545   C     0.83214   0.16402   0.74967   0.00000  Uiso   1.00
C546   C     0.81133   0.21398   0.94375   0.00000  Uiso   1.00
C547   C     0.83162   0.24897   0.52657   0.00000  Uiso   1.00
C548   C     0.83069   0.25056   0.97312   0.00000  Uiso   1.00
C549   C     0.73367   0.24993   0.73748   0.00000  Uiso   1.00
C550   C     0.93300   0.25000   0.76252   0.00000  Uiso   1.00
C551   C     0.67855   0.24986   0.73079   0.00000  Uiso   1.00
C552   C     0.98812   0.24994   0.76920   0.00000  Uiso   1.00
C553   C     0.79572   0.04680   0.77518   0.00000  Uiso   1.00
C554   C     0.79574   0.45273   0.71447   0.00000  Uiso   1.00
C555   C     0.79374   0.09308   0.77320   0.00000  Uiso   1.00
C556   C     0.83225   0.33597   0.75002   0.00000  Uiso   1.00
C557   C     0.79383   0.40642   0.71576   0.00000  Uiso   1.00
C558   C     0.82948   0.11616   0.74902   0.00000  Uiso   1.00
C559   C     0.82962   0.38379   0.75000   0.00000  Uiso   1.00
C560   C     0.86497   0.09339   0.72542   0.00000  Uiso   1.00
C561   C     0.86505   0.40703   0.78377   0.00000  Uiso   1.00
C562   C     0.86641   0.04702   0.72616   0.00000  Uiso   1.00
C563   C     0.86638   0.45343   0.78360   0.00000  Uiso   1.00
C564   C     0.83183   0.02408   0.75101   0.00000  Uiso   1.00
C565   C     0.83180   0.47592   0.74898   0.00000  Uiso   1.00
C566   C     0.78753   0.23443   0.54628   0.00000  Uiso   1.00
C567   C     0.85062   0.28769   0.95064   0.00000  Uiso   1.00
C568   C     0.79062   0.23254   0.59694   0.00000  Uiso   1.00
C569   C     0.85465   0.28531   0.90182   0.00000  Uiso   1.00
C570   C     0.87584   0.26482   0.60765   0.00000  Uiso   1.00
C571   C     0.81177   0.21486   0.89428   0.00000  Uiso   1.00
C572   C     0.87637   0.26325   0.55831   0.00000  Uiso   1.00
H573   H     0.89207   0.11184   0.70712   0.00000  Uiso   1.00
H574   H     0.74855   0.35495   0.69589   0.00000  Uiso   1.00
H575   H     0.92227   0.04458   0.68730   0.00000  Uiso   1.00
H576   H     0.92212   0.45659   0.83841   0.00000  Uiso   1.00
H577   H     0.71146   0.22881   0.53274   0.00000  Uiso   1.00
H578   H     0.84771   0.33016   0.50209   0.00000  Uiso   1.00
H579   H     0.73391   0.18931   0.59544   0.00000  Uiso   1.00
H580   H     0.89793   0.30663   0.85790   0.00000  Uiso   1.00
H581   H     0.91142   0.27411   0.54491   0.00000  Uiso   1.00
H582   H     0.79614   0.18453   0.95896   0.00000  Uiso   1.00
H583   H     0.89218   0.38894   0.80970   0.00000  Uiso   1.00
H584   H     0.91000   0.27735   0.63117   0.00000  Uiso   1.00
H585   H     0.79554   0.18686   0.87238   0.00000  Uiso   1.00
H586   H     0.99104   0.24978   0.69443   0.00000  Uiso   1.00
H587   H     0.67565   0.24998   0.80556   0.00000  Uiso   1.00
H588   H     0.76778   0.49289   0.80155   0.00000  Uiso   1.00
H589   H     0.76770   0.00630   0.68034   0.00000  Uiso   1.00
H590   H     0.74856   0.14397   0.78026   0.00000  Uiso   1.00
N591   N     0.83333   0.24999   0.62624   0.00000  Uiso   1.00
N592   N     0.83333   0.25001   0.87377   0.00000  Uiso   1.00
O593   O     0.83334   0.18453   0.78974   0.00000  Uiso   1.00
O594   O     0.76072   0.47378   0.67991   0.00000  Uiso   1.00
O595   O     0.75595   0.11427   0.79471   0.00000  Uiso   1.00
O596   O     0.75604   0.38472   0.68349   0.00000  Uiso   1.00
O597   O     0.90087   0.02330   0.70294   0.00000  Uiso   1.00
O598   O     0.90076   0.47759   0.81671   0.00000  Uiso   1.00
O599   O     0.74177   0.22417   0.51576   0.00000  Uiso   1.00
O600   O     0.86694   0.32681   0.97475   0.00000  Uiso   1.00
O601   O     0.75184   0.21224   0.61767   0.00000  Uiso   1.00
O602   O     0.88055   0.31961   0.88331   0.00000  Uiso   1.00
O603   O     0.83333   0.31546   0.71026   0.00000  Uiso   1.00
O604   O     0.83334   0.18453   0.71026   0.00000  Uiso   1.00
O605   O     0.83333   0.31547   0.78974   0.00000  Uiso   1.00
O606   O     0.75725   0.25000   0.78045   0.00000  Uiso   1.00
O607   O     0.90942   0.25000   0.71956   0.00000  Uiso   1.00
O608   O     0.75725   0.24999   0.70097   0.00000  Uiso   1.00
O609   O     0.90942   0.25000   0.79904   0.00000  Uiso   1.00
O610   O     0.76070   0.02529   0.79984   0.00000  Uiso   1.00
Zn611  Zn    0.83333   0.25000   0.80307   0.00000  Uiso   1.00
Zn612  Zn    0.83333   0.24999   0.69693   0.00000  Uiso   1.00
C613   C     0.16547   0.66402   0.74967   0.00000  Uiso   1.00
C614   C     0.14466   0.71398   0.94375   0.00000  Uiso   1.00
C615   C     0.16496   0.74897   0.52657   0.00000  Uiso   1.00
C616   C     0.16402   0.75056   0.97312   0.00000  Uiso   1.00
C617   C     0.06700   0.74993   0.73748   0.00000  Uiso   1.00
C618   C     0.26633   0.75000   0.76252   0.00000  Uiso   1.00
C619   C     0.01189   0.74986   0.73079   0.00000  Uiso   1.00
C620   C     0.32146   0.74994   0.76920   0.00000  Uiso   1.00
C621   C     0.12905   0.54680   0.77518   0.00000  Uiso   1.00
C622   C     0.12908   0.95273   0.71447   0.00000  Uiso   1.00
C623   C     0.12708   0.59308   0.77320   0.00000  Uiso   1.00
C624   C     0.16559   0.83597   0.75002   0.00000  Uiso   1.00
C625   C     0.12717   0.90642   0.71576   0.00000  Uiso   1.00
C626   C     0.16282   0.61616   0.74902   0.00000  Uiso   1.00
C627   C     0.16295   0.88379   0.75000   0.00000  Uiso   1.00
C628   C     0.19831   0.59339   0.72542   0.00000  Uiso   1.00
C629   C     0.19838   0.90703   0.78377   0.00000  Uiso   1.00
C630   C     0.19975   0.54702   0.72616   0.00000  Uiso   1.00
C631   C     0.19972   0.95343   0.78360   0.00000  Uiso   1.00
C632   C     0.16516   0.52408   0.75101   0.00000  Uiso   1.00
C633   C     0.16513   0.97592   0.74898   0.00000  Uiso   1.00
C634   C     0.12087   0.73443   0.54628   0.00000  Uiso   1.00
C635   C     0.18395   0.78769   0.95064   0.00000  Uiso   1.00
C636   C     0.12395   0.73254   0.59694   0.00000  Uiso   1.00
C637   C     0.18798   0.78531   0.90182   0.00000  Uiso   1.00
C638   C     0.20917   0.76482   0.60765   0.00000  Uiso   1.00
C639   C     0.14511   0.71486   0.89428   0.00000  Uiso   1.00
C640   C     0.20971   0.76325   0.55831   0.00000  Uiso   1.00
H641   H     0.22540   0.61184   0.70712   0.00000  Uiso   1.00
H642   H     0.08188   0.85495   0.69589   0.00000  Uiso   1.00
H643   H     0.25560   0.54458   0.68730   0.00000  Uiso   1.00
H644   H     0.25546   0.95659   0.83841   0.00000  Uiso   1.00
H645   H     0.04480   0.72881   0.53274   0.00000  Uiso   1.00
H646   H     0.18105   0.83016   0.50209   0.00000  Uiso   1.00
H647   H     0.06724   0.68931   0.59544   0.00000  Uiso   1.00
H648   H     0.23127   0.80663   0.85790   0.00000  Uiso   1.00
H649   H     0.24475   0.77411   0.54491   0.00000  Uiso   1.00
H650   H     0.12947   0.68453   0.95896   0.00000  Uiso   1.00
H651   H     0.22551   0.88894   0.80970   0.00000  Uiso   1.00
H652   H     0.24333   0.77735   0.63117   0.00000  Uiso   1.00
H653   H     0.12888   0.68686   0.87238   0.00000  Uiso   1.00
H654   H     0.32438   0.74978   0.69443   0.00000  Uiso   1.00
H655   H     0.00898   0.74998   0.80556   0.00000  Uiso   1.00
H656   H     0.10112   0.99289   0.80155   0.00000  Uiso   1.00
H657   H     0.10103   0.50630   0.68034   0.00000  Uiso   1.00
H658   H     0.08190   0.64397   0.78026   0.00000  Uiso   1.00
N659   N     0.16667   0.74999   0.62624   0.00000  Uiso   1.00
N660   N     0.16667   0.75001   0.87377   0.00000  Uiso   1.00
O661   O     0.16667   0.68453   0.78974   0.00000  Uiso   1.00
O662   O     0.09405   0.97378   0.67991   0.00000  Uiso   1.00
O663   O     0.08929   0.61427   0.79471   0.00000  Uiso   1.00
O664   O     0.08938   0.88472   0.68349   0.00000  Uiso   1.00
O665   O     0.23421   0.52330   0.70294   0.00000  Uiso   1.00
O666   O     0.23409   0.97759   0.81671   0.00000  Uiso   1.00
O667   O     0.07510   0.72417   0.51576   0.00000  Uiso   1.00
O668   O     0.20027   0.82681   0.97475   0.00000  Uiso   1.00
O669   O     0.08518   0.71224   0.61767   0.00000  Uiso   1.00
O670   O     0.21388   0.81961   0.88331   0.00000  Uiso   1.00
O671   O     0.16666   0.81546   0.71026   0.00000  Uiso   1.00
O672   O     0.16667   0.68453   0.71026   0.00000  Uiso   1.00
O673   O     0.16666   0.81547   0.78974   0.00000  Uiso   1.00
O674   O     0.09058   0.75000   0.78045   0.00000  Uiso   1.00
O675   O     0.24275   0.75000   0.71956   0.00000  Uiso   1.00
O676   O     0.09058   0.74999   0.70097   0.00000  Uiso   1.00
O677   O     0.24275   0.75000   0.79904   0.00000  Uiso   1.00
O678   O     0.09404   0.52529   0.79984   0.00000  Uiso   1.00
Zn679  Zn    0.16667   0.75000   0.80307   0.00000  Uiso   1.00
Zn680  Zn    0.16667   0.74999   0.69693   0.00000  Uiso   1.00
C681   C     0.49881   0.66402   0.74967   0.00000  Uiso   1.00
C682   C     0.47800   0.71398   0.94375   0.00000  Uiso   1.00
C683   C     0.49829   0.74897   0.52657   0.00000  Uiso   1.00
C684   C     0.49736   0.75056   0.97312   0.00000  Uiso   1.00
C685   C     0.40033   0.74993   0.73748   0.00000  Uiso   1.00
C686   C     0.59967   0.75000   0.76252   0.00000  Uiso   1.00
C687   C     0.34522   0.74986   0.73079   0.00000  Uiso   1.00
C688   C     0.65479   0.74994   0.76920   0.00000  Uiso   1.00
C689   C     0.46238   0.54680   0.77518   0.00000  Uiso   1.00
C690   C     0.46241   0.95273   0.71447   0.00000  Uiso   1.00
C691   C     0.46041   0.59308   0.77320   0.00000  Uiso   1.00
C692   C     0.49892   0.83597   0.75002   0.00000  Uiso   1.00
C693   C     0.46050   0.90642   0.71576   0.00000  Uiso   1.00
C694   C     0.49615   0.61616   0.74902   0.00000  Uiso   1.00
C695   C     0.49629   0.88379   0.75000   0.00000  Uiso   1.00
C696   C     0.53164   0.59339   0.72542   0.00000  Uiso   1.00
C697   C     0.53171   0.90703   0.78377   0.00000  Uiso   1.00
C698   C     0.53308   0.54702   0.72616   0.00000  Uiso   1.00
C699   C     0.53305   0.95343   0.78360   0.00000  Uiso   1.00
C700   C     0.49849   0.52408   0.75101   0.00000  Uiso   1.00
C701   C     0.49847   0.97592   0.74898   0.00000  Uiso   1.00
C702   C     0.45420   0.73443   0.54628   0.00000  Uiso   1.00
C703   C     0.51728   0.78769   0.95064   0.00000  Uiso   1.00
C704   C     0.45729   0.73254   0.59694   0.00000  Uiso   1.00
C705   C     0.52131   0.78531   0.90182   0.00000  Uiso   1.00
C706   C     0.54251   0.76482   0.60765   0.00000  Uiso   1.00
C707   C     0.47844   0.71486   0.89428   0.00000  Uiso   1.00
C708   C     0.54304   0.76325   0.55831   0.00000  Uiso   1.00
H709   H     0.55874   0.61184   0.70712   0.00000  Uiso   1.00
H710   H     0.41522   0.85495   0.69589   0.00000  Uiso   1.00
H711   H     0.58893   0.54458   0.68730   0.00000  Uiso   1.00
H712   H     0.58879   0.95659   0.83841   0.00000  Uiso   1.00
H713   H     0.37813   0.72881   0.53274   0.00000  Uiso   1.00
H714   H     0.51438   0.83016   0.50209   0.00000  Uiso   1.00
H715   H     0.40058   0.68931   0.59544   0.00000  Uiso   1.00
H716   H     0.56460   0.80663   0.85790   0.00000  Uiso   1.00
H717   H     0.57809   0.77411   0.54491   0.00000  Uiso   1.00
H718   H     0.46280   0.68453   0.95896   0.00000  Uiso   1.00
H719   H     0.55884   0.88894   0.80970   0.00000  Uiso   1.00
H720   H     0.57666   0.77735   0.63117   0.00000  Uiso   1.00
H721   H     0.46221   0.68686   0.87238   0.00000  Uiso   1.00
H722   H     0.65771   0.74978   0.69443   0.00000  Uiso   1.00
H723   H     0.34232   0.74998   0.80556   0.00000  Uiso   1.00
H724   H     0.43445   0.99289   0.80155   0.00000  Uiso   1.00
H725   H     0.43436   0.50630   0.68034   0.00000  Uiso   1.00
H726   H     0.41523   0.64397   0.78026   0.00000  Uiso   1.00
N727   N     0.50000   0.74999   0.62624   0.00000  Uiso   1.00
N728   N     0.50000   0.75001   0.87377   0.00000  Uiso   1.00
O729   O     0.50000   0.68453   0.78974   0.00000  Uiso   1.00
O730   O     0.42739   0.97378   0.67991   0.00000  Uiso   1.00
O731   O     0.42262   0.61427   0.79471   0.00000  Uiso   1.00
O732   O     0.42271   0.88472   0.68349   0.00000  Uiso   1.00
O733   O     0.56754   0.52330   0.70294   0.00000  Uiso   1.00
O734   O     0.56743   0.97759   0.81671   0.00000  Uiso   1.00
O735   O     0.40844   0.72417   0.51576   0.00000  Uiso   1.00
O736   O     0.53360   0.82681   0.97475   0.00000  Uiso   1.00
O737   O     0.41851   0.71224   0.61767   0.00000  Uiso   1.00
O738   O     0.54721   0.81961   0.88331   0.00000  Uiso   1.00
O739   O     0.50000   0.81546   0.71026   0.00000  Uiso   1.00
O740   O     0.50000   0.68453   0.71026   0.00000  Uiso   1.00
O741   O     0.50000   0.81547   0.78974   0.00000  Uiso   1.00
O742   O     0.42392   0.75000   0.78045   0.00000  Uiso   1.00
O743   O     0.57608   0.75000   0.71956   0.00000  Uiso   1.00
O744   O     0.42392   0.74999   0.70097   0.00000  Uiso   1.00
O745   O     0.57608   0.75000   0.79904   0.00000  Uiso   1.00
O746   O     0.42737   0.52529   0.79984   0.00000  Uiso   1.00
Zn747  Zn    0.50000   0.75000   0.80307   0.00000  Uiso   1.00
Zn748  Zn    0.50000   0.74999   0.69693   0.00000  Uiso   1.00
C749   C     0.83214   0.66402   0.74967   0.00000  Uiso   1.00
C750   C     0.81133   0.71398   0.94375   0.00000  Uiso   1.00
C751   C     0.83162   0.74897   0.52657   0.00000  Uiso   1.00
C752   C     0.83069   0.75056   0.97312   0.00000  Uiso   1.00
C753   C     0.73367   0.74993   0.73748   0.00000  Uiso   1.00
C754   C     0.93300   0.75000   0.76252   0.00000  Uiso   1.00
C755   C     0.67855   0.74986   0.73079   0.00000  Uiso   1.00
C756   C     0.98812   0.74994   0.76920   0.00000  Uiso   1.00
C757   C     0.79572   0.54680   0.77518   0.00000  Uiso   1.00
C758   C     0.79574   0.95273   0.71447   0.00000  Uiso   1.00
C759   C     0.79374   0.59308   0.77320   0.00000  Uiso   1.00
C760   C     0.83225   0.83597   0.75002   0.00000  Uiso   1.00
C761   C     0.79383   0.90642   0.71576   0.00000  Uiso   1.00
C762   C     0.82948   0.61616   0.74902   0.00000  Uiso   1.00
C763   C     0.82962   0.88379   0.75000   0.00000  Uiso   1.00
C764   C     0.86497   0.59339   0.72542   0.00000  Uiso   1.00
C765   C     0.86505   0.90703   0.78377   0.00000  Uiso   1.00
C766   C     0.86641   0.54702   0.72616   0.00000  Uiso   1.00
C767   C     0.86638   0.95343   0.78360   0.00000  Uiso   1.00
C768   C     0.83183   0.52408   0.75101   0.00000  Uiso   1.00
C769   C     0.83180   0.97592   0.74898   0.00000  Uiso   1.00
C770   C     0.78753   0.73443   0.54628   0.00000  Uiso   1.00
C771   C     0.85062   0.78769   0.95064   0.00000  Uiso   1.00
C772   C     0.79062   0.73254   0.59694   0.00000  Uiso   1.00
C773   C     0.85465   0.78531   0.90182   0.00000  Uiso   1.00
C774   C     0.87584   0.76482   0.60765   0.00000  Uiso   1.00
C775   C     0.81177   0.71486   0.89428   0.00000  Uiso   1.00
C776   C     0.87637   0.76325   0.55831   0.00000  Uiso   1.00
H777   H     0.89207   0.61184   0.70712   0.00000  Uiso   1.00
H778   H     0.74855   0.85495   0.69589   0.00000  Uiso   1.00
H779   H     0.92227   0.54458   0.68730   0.00000  Uiso   1.00
H780   H     0.92212   0.95659   0.83841   0.00000  Uiso   1.00
H781   H     0.71146   0.72881   0.53274   0.00000  Uiso   1.00
H782   H     0.84771   0.83016   0.50209   0.00000  Uiso   1.00
H783   H     0.73391   0.68931   0.59544   0.00000  Uiso   1.00
H784   H     0.89793   0.80663   0.85790   0.00000  Uiso   1.00
H785   H     0.91142   0.77411   0.54491   0.00000  Uiso   1.00
H786   H     0.79614   0.68453   0.95896   0.00000  Uiso   1.00
H787   H     0.89218   0.88894   0.80970   0.00000  Uiso   1.00
H788   H     0.91000   0.77735   0.63117   0.00000  Uiso   1.00
H789   H     0.79554   0.68686   0.87238   0.00000  Uiso   1.00
H790   H     0.99104   0.74978   0.69443   0.00000  Uiso   1.00
H791   H     0.67565   0.74998   0.80556   0.00000  Uiso   1.00
H792   H     0.76778   0.99289   0.80155   0.00000  Uiso   1.00
H793   H     0.76770   0.50630   0.68034   0.00000  Uiso   1.00
H794   H     0.74856   0.64397   0.78026   0.00000  Uiso   1.00
N795   N     0.83333   0.74999   0.62624   0.00000  Uiso   1.00
N796   N     0.83333   0.75001   0.87377   0.00000  Uiso   1.00
O797   O     0.83334   0.68453   0.78974   0.00000  Uiso   1.00
O798   O     0.76072   0.97378   0.67991   0.00000  Uiso   1.00
O799   O     0.75595   0.61427   0.79471   0.00000  Uiso   1.00
O800   O     0.75604   0.88472   0.68349   0.00000  Uiso   1.00
O801   O     0.90087   0.52330   0.70294   0.00000  Uiso   1.00
O802   O     0.90076   0.97759   0.81671   0.00000  Uiso   1.00
O803   O     0.74177   0.72417   0.51576   0.00000  Uiso   1.00
O804   O     0.86694   0.82681   0.97475   0.00000  Uiso   1.00
O805   O     0.75184   0.71224   0.61767   0.00000  Uiso   1.00
O806   O     0.88055   0.81961   0.88331   0.00000  Uiso   1.00
O807   O     0.83333   0.81546   0.71026   0.00000  Uiso   1.00
O808   O     0.83334   0.68453   0.71026   0.00000  Uiso   1.00
O809   O     0.83333   0.81547   0.78974   0.00000  Uiso   1.00
O810   O     0.75725   0.75000   0.78045   0.00000  Uiso   1.00
O811   O     0.90942   0.75000   0.71956   0.00000  Uiso   1.00
O812   O     0.75725   0.74999   0.70097   0.00000  Uiso   1.00
O813   O     0.90942   0.75000   0.79904   0.00000  Uiso   1.00
O814   O     0.76070   0.52529   0.79984   0.00000  Uiso   1.00
Zn815  Zn    0.83333   0.75000   0.80307   0.00000  Uiso   1.00
Zn816  Zn    0.83333   0.74999   0.69693   0.00000  Uiso   1.00
loop_
_geom_bond_atom_site_label_1
_geom_bond_atom_site_label_2
_geom_bond_distance
_geom_bond_site_symmetry_2
_ccdc_geom_bond_type
C1     O49     1.285   .     A
C1     O60     1.287   .     A
C1     C14     1.433   .     S
C2     C4      1.411   .     A
C2     C27     1.409   .     A
C2     H38     1.082   .     S
C3     C28     1.410   .     A
C3     C22     1.411   .     A
C3     C412    1.517   1_554 S
C4     C23     1.419   .     A
C4     C411    1.517   .     S
C5     C7      1.403   .     S
C5     O62     1.276   .     A
C5     O64     1.282   .     A
C6     O63     1.276   .     A
C6     C8      1.403   .     S
C6     O65     1.282   .     A
C7     C144    1.333   1_455 S
C7     H178    1.088   1_455 S
C8     C75     1.333   .     S
C8     H111    1.088   .     S
C9     C20     1.415   .     A
C9     C11     1.387   .     A
C9     O66     1.385   .     S
C10    C21     1.415   .     A
C10    O50     1.385   .     S
C10    C13     1.387   .     A
C11    C14     1.413   .     A
C11    O51     1.383   .     S
C12    C15     1.433   .     S
C12    O61     1.286   .     A
C12    O59     1.286   .     A
C13    O52     1.383   .     S
C13    C15     1.412   .     A
C14    C16     1.394   .     A
C15    C17     1.394   .     A
C16    C18     1.389   .     A
C16    H29     1.085   .     S
C17    C19     1.389   .     A
C17    H39     1.084   .     S
C18    O53     1.383   .     S
C18    C20     1.401   .     A
C19    O54     1.383   .     S
C19    C21     1.400   .     A
C20    C225    1.442   1_545 S
C21    C224    1.442   .     S
C22    C24     1.432   .     A
C22    O55     1.381   .     S
C23    O56     1.381   .     S
C23    C25     1.409   .     A
C24    N47     1.370   .     A
C24    O57     1.377   .     S
C25    N48     1.376   .     A
C25    O58     1.373   .     S
C26    C28     1.405   .     A
C26    H40     1.081   .     S
C26    N47     1.362   .     A
C27    H41     1.081   .     S
C27    N48     1.363   .     A
C28    H37     1.083   .     S
H30    O52     0.990   .     S
H31    O53     0.992   .     S
H32    O54     0.992   .     S
H33    O55     0.990   .     S
H34    O464    0.990   1_554 S
H35    O57     0.990   .     S
H36    O58     0.986   .     S
H42    C75     1.088   .     S
H43    C144    1.088   1_455 S
H44    O270    0.988   .     S
H45    O254    0.988   1_545 S
H46    O51     0.990   .     S
N47    Zn68    2.010   .     S
N48    Zn67    2.010   .     S
O49    Zn67    1.992   .     S
O50    H249    0.988   .     S
O56    H442    0.990   .     S
O59    Zn68    1.992   .     S
O60    Zn68    1.998   .     S
O61    Zn67    1.998   .     S
O62    Zn67    1.965   .     S
O63    Zn68    1.965   .     S
O64    Zn68    1.982   .     S
O65    Zn67    1.982   .     S
O66    H248    0.988   1_545 S
C69    O117    1.285   .     A
C69    O128    1.287   .     A
C69    C82     1.433   .     S
C70    C72     1.411   .     A
C70    C95     1.409   .     A
C70    H106    1.082   .     S
C71    C96     1.410   .     A
C71    C90     1.411   .     A
C71    C480    1.517   1_554 S
C72    C91     1.419   .     A
C72    C479    1.517   .     S
C73    C75     1.403   .     S
C73    O130    1.276   .     A
C73    O132    1.282   .     A
C74    O131    1.276   .     A
C74    C76     1.403   .     S
C74    O133    1.282   .     A
C76    C143    1.333   .     S
C76    H179    1.088   .     S
C77    C88     1.415   .     A
C77    C79     1.387   .     A
C77    O134    1.385   .     S
C78    C89     1.415   .     A
C78    O118    1.385   .     S
C78    C81     1.387   .     A
C79    C82     1.413   .     A
C79    O119    1.383   .     S
C80    C83     1.433   .     S
C80    O129    1.286   .     A
C80    O127    1.286   .     A
C81    O120    1.383   .     S
C81    C83     1.412   .     A
C82    C84     1.394   .     A
C83    C85     1.394   .     A
C84    C86     1.389   .     A
C84    H97     1.085   .     S
C85    C87     1.389   .     A
C85    H107    1.084   .     S
C86    O121    1.383   .     S
C86    C88     1.401   .     A
C87    O122    1.383   .     S
C87    C89     1.400   .     A
C88    C293    1.442   1_545 S
C89    C292    1.442   .     S
C90    C92     1.432   .     A
C90    O123    1.381   .     S
C91    O124    1.381   .     S
C91    C93     1.409   .     A
C92    N115    1.370   .     A
C92    O125    1.377   .     S
C93    N116    1.376   .     A
C93    O126    1.373   .     S
C94    C96     1.405   .     A
C94    H108    1.081   .     S
C94    N115    1.362   .     A
C95    H109    1.081   .     S
C95    N116    1.363   .     A
C96    H105    1.083   .     S
H98    O120    0.990   .     S
H99    O121    0.992   .     S
H100   O122    0.992   .     S
H101   O123    0.990   .     S
H102   O532    0.990   1_554 S
H103   O125    0.990   .     S
H104   O126    0.986   .     S
H110   C143    1.088   .     S
H112   O338    0.988   .     S
H113   O322    0.988   1_545 S
H114   O119    0.990   .     S
N115   Zn136   2.010   .     S
N116   Zn135   2.010   .     S
O117   Zn135   1.992   .     S
O118   H317    0.988   .     S
O124   H510    0.990   .     S
O127   Zn136   1.992   .     S
O128   Zn136   1.998   .     S
O129   Zn135   1.998   .     S
O130   Zn135   1.965   .     S
O131   Zn136   1.965   .     S
O132   Zn136   1.982   .     S
O133   Zn135   1.982   .     S
O134   H316    0.988   1_545 S
C137   O185    1.285   .     A
C137   O196    1.287   .     A
C137   C150    1.433   .     S
C138   C140    1.411   .     A
C138   C163    1.409   .     A
C138   H174    1.082   .     S
C139   C164    1.410   .     A
C139   C158    1.411   .     A
C139   C548    1.517   1_554 S
C140   C159    1.419   .     A
C140   C547    1.517   .     S
C141   C143    1.403   .     S
C141   O198    1.276   .     A
C141   O200    1.282   .     A
C142   O199    1.276   .     A
C142   C144    1.403   .     S
C142   O201    1.282   .     A
C144   C7      1.333   1_655 S
C144   H43     1.088   1_655 S
C145   C156    1.415   .     A
C145   C147    1.387   .     A
C145   O202    1.385   .     S
C146   C157    1.415   .     A
C146   O186    1.385   .     S
C146   C149    1.387   .     A
C147   C150    1.413   .     A
C147   O187    1.383   .     S
C148   C151    1.433   .     S
C148   O197    1.286   .     A
C148   O195    1.286   .     A
C149   O188    1.383   .     S
C149   C151    1.412   .     A
C150   C152    1.394   .     A
C151   C153    1.394   .     A
C152   C154    1.389   .     A
C152   H165    1.085   .     S
C153   C155    1.389   .     A
C153   H175    1.084   .     S
C154   O189    1.383   .     S
C154   C156    1.401   .     A
C155   O190    1.383   .     S
C155   C157    1.400   .     A
C156   C361    1.442   1_545 S
C157   C360    1.442   .     S
C158   C160    1.432   .     A
C158   O191    1.381   .     S
C159   O192    1.381   .     S
C159   C161    1.409   .     A
C160   N183    1.370   .     A
C160   O193    1.377   .     S
C161   N184    1.376   .     A
C161   O194    1.373   .     S
C162   C164    1.405   .     A
C162   H176    1.081   .     S
C162   N183    1.362   .     A
C163   H177    1.081   .     S
C163   N184    1.363   .     A
C164   H173    1.083   .     S
H166   O188    0.990   .     S
H167   O189    0.992   .     S
H168   O190    0.992   .     S
H169   O191    0.990   .     S
H170   O600    0.990   1_554 S
H171   O193    0.990   .     S
H172   O194    0.986   .     S
H178   C7      1.088   1_655 S
H180   O406    0.988   .     S
H181   O390    0.988   1_545 S
H182   O187    0.990   .     S
N183   Zn204   2.010   .     S
N184   Zn203   2.010   .     S
O185   Zn203   1.992   .     S
O186   H385    0.988   .     S
O192   H578    0.990   .     S
O195   Zn204   1.992   .     S
O196   Zn204   1.998   .     S
O197   Zn203   1.998   .     S
O198   Zn203   1.965   .     S
O199   Zn204   1.965   .     S
O200   Zn204   1.982   .     S
O201   Zn203   1.982   .     S
O202   H384    0.988   1_545 S
C205   O253    1.285   .     A
C205   O264    1.287   .     A
C205   C218    1.433   .     S
C206   C208    1.411   .     A
C206   C231    1.409   .     A
C206   H242    1.082   .     S
C207   C232    1.410   .     A
C207   C226    1.411   .     A
C207   C616    1.517   1_554 S
C208   C227    1.419   .     A
C208   C615    1.517   .     S
C209   C211    1.403   .     S
C209   O266    1.276   .     A
C209   O268    1.282   .     A
C210   O267    1.276   .     A
C210   C212    1.403   .     S
C210   O269    1.282   .     A
C211   C348    1.333   1_455 S
C211   H382    1.088   1_455 S
C212   C279    1.333   .     S
C212   H315    1.088   .     S
C213   C224    1.415   .     A
C213   C215    1.387   .     A
C213   O270    1.385   .     S
C214   C225    1.415   .     A
C214   O254    1.385   .     S
C214   C217    1.387   .     A
C215   C218    1.413   .     A
C215   O255    1.383   .     S
C216   C219    1.433   .     S
C216   O265    1.286   .     A
C216   O263    1.286   .     A
C217   O256    1.383   .     S
C217   C219    1.412   .     A
C218   C220    1.394   .     A
C219   C221    1.394   .     A
C220   C222    1.389   .     A
C220   H233    1.085   .     S
C221   C223    1.389   .     A
C221   H243    1.084   .     S
C222   O257    1.383   .     S
C222   C224    1.401   .     A
C223   O258    1.383   .     S
C223   C225    1.400   .     A
C225   C20     1.442   1_565 S
C226   C228    1.432   .     A
C226   O259    1.381   .     S
C227   O260    1.381   .     S
C227   C229    1.409   .     A
C228   N251    1.370   .     A
C228   O261    1.377   .     S
C229   N252    1.376   .     A
C229   O262    1.373   .     S
C230   C232    1.405   .     A
C230   H244    1.081   .     S
C230   N251    1.362   .     A
C231   H245    1.081   .     S
C231   N252    1.363   .     A
C232   H241    1.083   .     S
H234   O256    0.990   .     S
H235   O257    0.992   .     S
H236   O258    0.992   .     S
H237   O259    0.990   .     S
H238   O668    0.990   1_554 S
H239   O261    0.990   .     S
H240   O262    0.986   .     S
H246   C279    1.088   .     S
H247   C348    1.088   1_455 S
H248   O66     0.988   1_565 S
H250   O255    0.990   .     S
N251   Zn272   2.010   .     S
N252   Zn271   2.010   .     S
O253   Zn271   1.992   .     S
O254   H45     0.988   1_565 S
O260   H646    0.990   .     S
O263   Zn272   1.992   .     S
O264   Zn272   1.998   .     S
O265   Zn271   1.998   .     S
O266   Zn271   1.965   .     S
O267   Zn272   1.965   .     S
O268   Zn272   1.982   .     S
O269   Zn271   1.982   .     S
C273   O321    1.285   .     A
C273   O332    1.287   .     A
C273   C286    1.433   .     S
C274   C276    1.411   .     A
C274   C299    1.409   .     A
C274   H310    1.082   .     S
C275   C300    1.410   .     A
C275   C294    1.411   .     A
C275   C684    1.517   1_554 S
C276   C295    1.419   .     A
C276   C683    1.517   .     S
C277   C279    1.403   .     S
C277   O334    1.276   .     A
C277   O336    1.282   .     A
C278   O335    1.276   .     A
C278   C280    1.403   .     S
C278   O337    1.282   .     A
C280   C347    1.333   .     S
C280   H383    1.088   .     S
C281   C292    1.415   .     A
C281   C283    1.387   .     A
C281   O338    1.385   .     S
C282   C293    1.415   .     A
C282   O322    1.385   .     S
C282   C285    1.387   .     A
C283   C286    1.413   .     A
C283   O323    1.383   .     S
C284   C287    1.433   .     S
C284   O333    1.286   .     A
C284   O331    1.286   .     A
C285   O324    1.383   .     S
C285   C287    1.412   .     A
C286   C288    1.394   .     A
C287   C289    1.394   .     A
C288   C290    1.389   .     A
C288   H301    1.085   .     S
C289   C291    1.389   .     A
C289   H311    1.084   .     S
C290   O325    1.383   .     S
C290   C292    1.401   .     A
C291   O326    1.383   .     S
C291   C293    1.400   .     A
C293   C88     1.442   1_565 S
C294   C296    1.432   .     A
C294   O327    1.381   .     S
C295   O328    1.381   .     S
C295   C297    1.409   .     A
C296   N319    1.370   .     A
C296   O329    1.377   .     S
C297   N320    1.376   .     A
C297   O330    1.373   .     S
C298   C300    1.405   .     A
C298   H312    1.081   .     S
C298   N319    1.362   .     A
C299   H313    1.081   .     S
C299   N320    1.363   .     A
C300   H309    1.083   .     S
H302   O324    0.990   .     S
H303   O325    0.992   .     S
H304   O326    0.992   .     S
H305   O327    0.990   .     S
H306   O736    0.990   1_554 S
H307   O329    0.990   .     S
H308   O330    0.986   .     S
H314   C347    1.088   .     S
H316   O134    0.988   1_565 S
H318   O323    0.990   .     S
N319   Zn340   2.010   .     S
N320   Zn339   2.010   .     S
O321   Zn339   1.992   .     S
O322   H113    0.988   1_565 S
O328   H714    0.990   .     S
O331   Zn340   1.992   .     S
O332   Zn340   1.998   .     S
O333   Zn339   1.998   .     S
O334   Zn339   1.965   .     S
O335   Zn340   1.965   .     S
O336   Zn340   1.982   .     S
O337   Zn339   1.982   .     S
C341   O389    1.285   .     A
C341   O400    1.287   .     A
C341   C354    1.433   .     S
C342   C344    1.411   .     A
C342   C367    1.409   .     A
C342   H378    1.082   .     S
C343   C368    1.410   .     A
C343   C362    1.411   .     A
C343   C752    1.517   1_554 S
C344   C363    1.419   .     A
C344   C751    1.517   .     S
C345   C347    1.403   .     S
C345   O402    1.276   .     A
C345   O404    1.282   .     A
C346   O403    1.276   .     A
C346   C348    1.403   .     S
C346   O405    1.282   .     A
C348   C211    1.333   1_655 S
C348   H247    1.088   1_655 S
C349   C360    1.415   .     A
C349   C351    1.387   .     A
C349   O406    1.385   .     S
C350   C361    1.415   .     A
C350   O390    1.385   .     S
C350   C353    1.387   .     A
C351   C354    1.413   .     A
C351   O391    1.383   .     S
C352   C355    1.433   .     S
C352   O401    1.286   .     A
C352   O399    1.286   .     A
C353   O392    1.383   .     S
C353   C355    1.412   .     A
C354   C356    1.394   .     A
C355   C357    1.394   .     A
C356   C358    1.389   .     A
C356   H369    1.085   .     S
C357   C359    1.389   .     A
C357   H379    1.084   .     S
C358   O393    1.383   .     S
C358   C360    1.401   .     A
C359   O394    1.383   .     S
C359   C361    1.400   .     A
C361   C156    1.442   1_565 S
C362   C364    1.432   .     A
C362   O395    1.381   .     S
C363   O396    1.381   .     S
C363   C365    1.409   .     A
C364   N387    1.370   .     A
C364   O397    1.377   .     S
C365   N388    1.376   .     A
C365   O398    1.373   .     S
C366   C368    1.405   .     A
C366   H380    1.081   .     S
C366   N387    1.362   .     A
C367   H381    1.081   .     S
C367   N388    1.363   .     A
C368   H377    1.083   .     S
H370   O392    0.990   .     S
H371   O393    0.992   .     S
H372   O394    0.992   .     S
H373   O395    0.990   .     S
H374   O804    0.990   1_554 S
H375   O397    0.990   .     S
H376   O398    0.986   .     S
H382   C211    1.088   1_655 S
H384   O202    0.988   1_565 S
H386   O391    0.990   .     S
N387   Zn408   2.010   .     S
N388   Zn407   2.010   .     S
O389   Zn407   1.992   .     S
O390   H181    0.988   1_565 S
O396   H782    0.990   .     S
O399   Zn408   1.992   .     S
O400   Zn408   1.998   .     S
O401   Zn407   1.998   .     S
O402   Zn407   1.965   .     S
O403   Zn408   1.965   .     S
O404   Zn408   1.982   .     S
O405   Zn407   1.982   .     S
C409   O457    1.285   .     A
C409   O468    1.287   .     A
C409   C422    1.433   .     S
C410   C412    1.411   .     A
C410   C435    1.409   .     A
C410   H446    1.082   .     S
C411   C436    1.410   .     A
C411   C430    1.411   .     A
C412   C431    1.419   .     A
C412   C3      1.517   1_556 S
C413   C415    1.403   .     S
C413   O470    1.276   .     A
C413   O472    1.282   .     A
C414   O471    1.276   .     A
C414   C416    1.403   .     S
C414   O473    1.282   .     A
C415   C552    1.333   1_455 S
C415   H586    1.088   1_455 S
C416   C483    1.333   .     S
C416   H519    1.088   .     S
C417   C428    1.415   .     A
C417   C419    1.387   .     A
C417   O474    1.385   .     S
C418   C429    1.415   .     A
C418   O458    1.385   .     S
C418   C421    1.387   .     A
C419   C422    1.413   .     A
C419   O459    1.383   .     S
C420   C423    1.433   .     S
C420   O469    1.286   .     A
C420   O467    1.286   .     A
C421   O460    1.383   .     S
C421   C423    1.412   .     A
C422   C424    1.394   .     A
C423   C425    1.394   .     A
C424   C426    1.389   .     A
C424   H437    1.085   .     S
C425   C427    1.389   .     A
C425   H447    1.084   .     S
C426   O461    1.383   .     S
C426   C428    1.401   .     A
C427   O462    1.383   .     S
C427   C429    1.400   .     A
C428   C633    1.442   1_545 S
C429   C632    1.442   .     S
C430   C432    1.432   .     A
C430   O463    1.381   .     S
C431   O464    1.381   .     S
C431   C433    1.409   .     A
C432   N455    1.370   .     A
C432   O465    1.377   .     S
C433   N456    1.376   .     A
C433   O466    1.373   .     S
C434   C436    1.405   .     A
C434   H448    1.081   .     S
C434   N455    1.362   .     A
C435   H449    1.081   .     S
C435   N456    1.363   .     A
C436   H445    1.083   .     S
H438   O460    0.990   .     S
H439   O461    0.992   .     S
H440   O462    0.992   .     S
H441   O463    0.990   .     S
H443   O465    0.990   .     S
H444   O466    0.986   .     S
H450   C483    1.088   .     S
H451   C552    1.088   1_455 S
H452   O678    0.988   .     S
H453   O662    0.988   1_545 S
H454   O459    0.990   .     S
N455   Zn476   2.010   .     S
N456   Zn475   2.010   .     S
O457   Zn475   1.992   .     S
O458   H657    0.988   .     S
O464   H34     0.990   1_556 S
O467   Zn476   1.992   .     S
O468   Zn476   1.998   .     S
O469   Zn475   1.998   .     S
O470   Zn475   1.965   .     S
O471   Zn476   1.965   .     S
O472   Zn476   1.982   .     S
O473   Zn475   1.982   .     S
O474   H656    0.988   1_545 S
C477   O525    1.285   .     A
C477   O536    1.287   .     A
C477   C490    1.433   .     S
C478   C480    1.411   .     A
C478   C503    1.409   .     A
C478   H514    1.082   .     S
C479   C504    1.410   .     A
C479   C498    1.411   .     A
C480   C499    1.419   .     A
C480   C71     1.517   1_556 S
C481   C483    1.403   .     S
C481   O538    1.276   .     A
C481   O540    1.282   .     A
C482   O539    1.276   .     A
C482   C484    1.403   .     S
C482   O541    1.282   .     A
C484   C551    1.333   .     S
C484   H587    1.088   .     S
C485   C496    1.415   .     A
C485   C487    1.387   .     A
C485   O542    1.385   .     S
C486   C497    1.415   .     A
C486   O526    1.385   .     S
C486   C489    1.387   .     A
C487   C490    1.413   .     A
C487   O527    1.383   .     S
C488   C491    1.433   .     S
C488   O537    1.286   .     A
C488   O535    1.286   .     A
C489   O528    1.383   .     S
C489   C491    1.412   .     A
C490   C492    1.394   .     A
C491   C493    1.394   .     A
C492   C494    1.389   .     A
C492   H505    1.085   .     S
C493   C495    1.389   .     A
C493   H515    1.084   .     S
C494   O529    1.383   .     S
C494   C496    1.401   .     A
C495   O530    1.383   .     S
C495   C497    1.400   .     A
C496   C701    1.442   1_545 S
C497   C700    1.442   .     S
C498   C500    1.432   .     A
C498   O531    1.381   .     S
C499   O532    1.381   .     S
C499   C501    1.409   .     A
C500   N523    1.370   .     A
C500   O533    1.377   .     S
C501   N524    1.376   .     A
C501   O534    1.373   .     S
C502   C504    1.405   .     A
C502   H516    1.081   .     S
C502   N523    1.362   .     A
C503   H517    1.081   .     S
C503   N524    1.363   .     A
C504   H513    1.083   .     S
H506   O528    0.990   .     S
H507   O529    0.992   .     S
H508   O530    0.992   .     S
H509   O531    0.990   .     S
H511   O533    0.990   .     S
H512   O534    0.986   .     S
H518   C551    1.088   .     S
H520   O746    0.988   .     S
H521   O730    0.988   1_545 S
H522   O527    0.990   .     S
N523   Zn544   2.010   .     S
N524   Zn543   2.010   .     S
O525   Zn543   1.992   .     S
O526   H725    0.988   .     S
O532   H102    0.990   1_556 S
O535   Zn544   1.992   .     S
O536   Zn544   1.998   .     S
O537   Zn543   1.998   .     S
O538   Zn543   1.965   .     S
O539   Zn544   1.965   .     S
O540   Zn544   1.982   .     S
O541   Zn543   1.982   .     S
O542   H724    0.988   1_545 S
C545   O593    1.285   .     A
C545   O604    1.287   .     A
C545   C558    1.433   .     S
C546   C548    1.411   .     A
C546   C571    1.409   .     A
C546   H582    1.082   .     S
C547   C572    1.410   .     A
C547   C566    1.411   .     A
C548   C567    1.419   .     A
C548   C139    1.517   1_556 S
C549   C551    1.403   .     S
C549   O606    1.276   .     A
C549   O608    1.282   .     A
C550   O607    1.276   .     A
C550   C552    1.403   .     S
C550   O609    1.282   .     A
C552   C415    1.333   1_655 S
C552   H451    1.088   1_655 S
C553   C564    1.415   .     A
C553   C555    1.387   .     A
C553   O610    1.385   .     S
C554   C565    1.415   .     A
C554   O594    1.385   .     S
C554   C557    1.387   .     A
C555   C558    1.413   .     A
C555   O595    1.383   .     S
C556   C559    1.433   .     S
C556   O605    1.286   .     A
C556   O603    1.286   .     A
C557   O596    1.383   .     S
C557   C559    1.412   .     A
C558   C560    1.394   .     A
C559   C561    1.394   .     A
C560   C562    1.389   .     A
C560   H573    1.085   .     S
C561   C563    1.389   .     A
C561   H583    1.084   .     S
C562   O597    1.383   .     S
C562   C564    1.401   .     A
C563   O598    1.383   .     S
C563   C565    1.400   .     A
C564   C769    1.442   1_545 S
C565   C768    1.442   .     S
C566   C568    1.432   .     A
C566   O599    1.381   .     S
C567   O600    1.381   .     S
C567   C569    1.409   .     A
C568   N591    1.370   .     A
C568   O601    1.377   .     S
C569   N592    1.376   .     A
C569   O602    1.373   .     S
C570   C572    1.405   .     A
C570   H584    1.081   .     S
C570   N591    1.362   .     A
C571   H585    1.081   .     S
C571   N592    1.363   .     A
C572   H581    1.083   .     S
H574   O596    0.990   .     S
H575   O597    0.992   .     S
H576   O598    0.992   .     S
H577   O599    0.990   .     S
H579   O601    0.990   .     S
H580   O602    0.986   .     S
H586   C415    1.088   1_655 S
H588   O814    0.988   .     S
H589   O798    0.988   1_545 S
H590   O595    0.990   .     S
N591   Zn612   2.010   .     S
N592   Zn611   2.010   .     S
O593   Zn611   1.992   .     S
O594   H793    0.988   .     S
O600   H170    0.990   1_556 S
O603   Zn612   1.992   .     S
O604   Zn612   1.998   .     S
O605   Zn611   1.998   .     S
O606   Zn611   1.965   .     S
O607   Zn612   1.965   .     S
O608   Zn612   1.982   .     S
O609   Zn611   1.982   .     S
O610   H792    0.988   1_545 S
C613   O661    1.285   .     A
C613   O672    1.287   .     A
C613   C626    1.433   .     S
C614   C616    1.411   .     A
C614   C639    1.409   .     A
C614   H650    1.082   .     S
C615   C640    1.410   .     A
C615   C634    1.411   .     A
C616   C635    1.419   .     A
C616   C207    1.517   1_556 S
C617   C619    1.403   .     S
C617   O674    1.276   .     A
C617   O676    1.282   .     A
C618   O675    1.276   .     A
C618   C620    1.403   .     S
C618   O677    1.282   .     A
C619   C756    1.333   1_455 S
C619   H790    1.088   1_455 S
C620   C687    1.333   .     S
C620   H723    1.088   .     S
C621   C632    1.415   .     A
C621   C623    1.387   .     A
C621   O678    1.385   .     S
C622   C633    1.415   .     A
C622   O662    1.385   .     S
C622   C625    1.387   .     A
C623   C626    1.413   .     A
C623   O663    1.383   .     S
C624   C627    1.433   .     S
C624   O673    1.286   .     A
C624   O671    1.286   .     A
C625   O664    1.383   .     S
C625   C627    1.412   .     A
C626   C628    1.394   .     A
C627   C629    1.394   .     A
C628   C630    1.389   .     A
C628   H641    1.085   .     S
C629   C631    1.389   .     A
C629   H651    1.084   .     S
C630   O665    1.383   .     S
C630   C632    1.401   .     A
C631   O666    1.383   .     S
C631   C633    1.400   .     A
C633   C428    1.442   1_565 S
C634   C636    1.432   .     A
C634   O667    1.381   .     S
C635   O668    1.381   .     S
C635   C637    1.409   .     A
C636   N659    1.370   .     A
C636   O669    1.377   .     S
C637   N660    1.376   .     A
C637   O670    1.373   .     S
C638   C640    1.405   .     A
C638   H652    1.081   .     S
C638   N659    1.362   .     A
C639   H653    1.081   .     S
C639   N660    1.363   .     A
C640   H649    1.083   .     S
H642   O664    0.990   .     S
H643   O665    0.992   .     S
H644   O666    0.992   .     S
H645   O667    0.990   .     S
H647   O669    0.990   .     S
H648   O670    0.986   .     S
H654   C687    1.088   .     S
H655   C756    1.088   1_455 S
H656   O474    0.988   1_565 S
H658   O663    0.990   .     S
N659   Zn680   2.010   .     S
N660   Zn679   2.010   .     S
O661   Zn679   1.992   .     S
O662   H453    0.988   1_565 S
O668   H238    0.990   1_556 S
O671   Zn680   1.992   .     S
O672   Zn680   1.998   .     S
O673   Zn679   1.998   .     S
O674   Zn679   1.965   .     S
O675   Zn680   1.965   .     S
O676   Zn680   1.982   .     S
O677   Zn679   1.982   .     S
C681   O729    1.285   .     A
C681   O740    1.287   .     A
C681   C694    1.433   .     S
C682   C684    1.411   .     A
C682   C707    1.409   .     A
C682   H718    1.082   .     S
C683   C708    1.410   .     A
C683   C702    1.411   .     A
C684   C703    1.419   .     A
C684   C275    1.517   1_556 S
C685   C687    1.403   .     S
C685   O742    1.276   .     A
C685   O744    1.282   .     A
C686   O743    1.276   .     A
C686   C688    1.403   .     S
C686   O745    1.282   .     A
C688   C755    1.333   .     S
C688   H791    1.088   .     S
C689   C700    1.415   .     A
C689   C691    1.387   .     A
C689   O746    1.385   .     S
C690   C701    1.415   .     A
C690   O730    1.385   .     S
C690   C693    1.387   .     A
C691   C694    1.413   .     A
C691   O731    1.383   .     S
C692   C695    1.433   .     S
C692   O741    1.286   .     A
C692   O739    1.286   .     A
C693   O732    1.383   .     S
C693   C695    1.412   .     A
C694   C696    1.394   .     A
C695   C697    1.394   .     A
C696   C698    1.389   .     A
C696   H709    1.085   .     S
C697   C699    1.389   .     A
C697   H719    1.084   .     S
C698   O733    1.383   .     S
C698   C700    1.401   .     A
C699   O734    1.383   .     S
C699   C701    1.400   .     A
C701   C496    1.442   1_565 S
C702   C704    1.432   .     A
C702   O735    1.381   .     S
C703   O736    1.381   .     S
C703   C705    1.409   .     A
C704   N727    1.370   .     A
C704   O737    1.377   .     S
C705   N728    1.376   .     A
C705   O738    1.373   .     S
C706   C708    1.405   .     A
C706   H720    1.081   .     S
C706   N727    1.362   .     A
C707   H721    1.081   .     S
C707   N728    1.363   .     A
C708   H717    1.083   .     S
H710   O732    0.990   .     S
H711   O733    0.992   .     S
H712   O734    0.992   .     S
H713   O735    0.990   .     S
H715   O737    0.990   .     S
H716   O738    0.986   .     S
H722   C755    1.088   .     S
H724   O542    0.988   1_565 S
H726   O731    0.990   .     S
N727   Zn748   2.010   .     S
N728   Zn747   2.010   .     S
O729   Zn747   1.992   .     S
O730   H521    0.988   1_565 S
O736   H306    0.990   1_556 S
O739   Zn748   1.992   .     S
O740   Zn748   1.998   .     S
O741   Zn747   1.998   .     S
O742   Zn747   1.965   .     S
O743   Zn748   1.965   .     S
O744   Zn748   1.982   .     S
O745   Zn747   1.982   .     S
C749   O797    1.285   .     A
C749   O808    1.287   .     A
C749   C762    1.433   .     S
C750   C752    1.411   .     A
C750   C775    1.409   .     A
C750   H786    1.082   .     S
C751   C776    1.410   .     A
C751   C770    1.411   .     A
C752   C771    1.419   .     A
C752   C343    1.517   1_556 S
C753   C755    1.403   .     S
C753   O810    1.276   .     A
C753   O812    1.282   .     A
C754   O811    1.276   .     A
C754   C756    1.403   .     S
C754   O813    1.282   .     A
C756   C619    1.333   1_655 S
C756   H655    1.088   1_655 S
C757   C768    1.415   .     A
C757   C759    1.387   .     A
C757   O814    1.385   .     S
C758   C769    1.415   .     A
C758   O798    1.385   .     S
C758   C761    1.387   .     A
C759   C762    1.413   .     A
C759   O799    1.383   .     S
C760   C763    1.433   .     S
C760   O809    1.286   .     A
C760   O807    1.286   .     A
C761   O800    1.383   .     S
C761   C763    1.412   .     A
C762   C764    1.394   .     A
C763   C765    1.394   .     A
C764   C766    1.389   .     A
C764   H777    1.085   .     S
C765   C767    1.389   .     A
C765   H787    1.084   .     S
C766   O801    1.383   .     S
C766   C768    1.401   .     A
C767   O802    1.383   .     S
C767   C769    1.400   .     A
C769   C564    1.442   1_565 S
C770   C772    1.432   .     A
C770   O803    1.381   .     S
C771   O804    1.381   .     S
C771   C773    1.409   .     A
C772   N795    1.370   .     A
C772   O805    1.377   .     S
C773   N796    1.376   .     A
C773   O806    1.373   .     S
C774   C776    1.405   .     A
C774   H788    1.081   .     S
C774   N795    1.362   .     A
C775   H789    1.081   .     S
C775   N796    1.363   .     A
C776   H785    1.083   .     S
H778   O800    0.990   .     S
H779   O801    0.992   .     S
H780   O802    0.992   .     S
H781   O803    0.990   .     S
H783   O805    0.990   .     S
H784   O806    0.986   .     S
H790   C619    1.088   1_655 S
H792   O610    0.988   1_565 S
H794   O799    0.990   .     S
N795   Zn816   2.010   .     S
N796   Zn815   2.010   .     S
O797   Zn815   1.992   .     S
O798   H589    0.988   1_565 S
O804   H374    0.990   1_556 S
O807   Zn816   1.992   .     S
O808   Zn816   1.998   .     S
O809   Zn815   1.998   .     S
O810   Zn815   1.965   .     S
O811   Zn816   1.965   .     S
O812   Zn816   1.982   .     S
O813   Zn815   1.982   .     S
