data_str_m2_o10_o17_pcu_sym.87
_audit_creation_date              2020-01-03
_audit_creation_method            'Materials Studio'
_symmetry_space_group_name_H-M    'P1'
_symmetry_Int_Tables_number       1
_symmetry_cell_setting            triclinic
loop_
_symmetry_equiv_pos_as_xyz
  x,y,z
_cell_length_a                    29.9078
_cell_length_b                    26.1645
_cell_length_c                    22.3243
_cell_angle_alpha                 102.5391
_cell_angle_beta                  93.8135
_cell_angle_gamma                 92.2924
loop_
_atom_site_label
_atom_site_type_symbol
_atom_site_fract_x
_atom_site_fract_y
_atom_site_fract_z
_atom_site_U_iso_or_equiv
_atom_site_adp_type
_atom_site_occupancy
O1     O     0.25325   0.09538   0.20659   0.00000  Uiso   1.00
O2     O     0.24674   0.23796   0.12674   0.00000  Uiso   1.00
O3     O     0.24480   0.08559   0.10279   0.00000  Uiso   1.00
O4     O     0.25520   0.24774   0.23055   0.00000  Uiso   1.00
C5     C     0.24706   0.06678   0.15156   0.00000  Uiso   1.00
C6     C     0.25294   0.26655   0.18177   0.00000  Uiso   1.00
O7     O     0.18935   0.17155   0.21857   0.00000  Uiso   1.00
O8     O     0.31064   0.16179   0.11476   0.00000  Uiso   1.00
O9     O     0.18090   0.16176   0.11477   0.00000  Uiso   1.00
O10    O     0.31910   0.17157   0.21857   0.00000  Uiso   1.00
C11    C     0.16456   0.16659   0.16769   0.00000  Uiso   1.00
C12    C     0.33544   0.16674   0.16564   0.00000  Uiso   1.00
Cu13   Cu    0.25500   0.17246   0.22813   0.00000  Uiso   1.00
Cu14   Cu    0.24499   0.16087   0.10521   0.00000  Uiso   1.00
C15    C     0.40919   0.21328   0.19007   0.00000  Uiso   1.00
C16    C     0.09081   0.12005   0.14326   0.00000  Uiso   1.00
C17    C     0.38350   0.16735   0.16340   0.00000  Uiso   1.00
C18    C     0.11650   0.16598   0.16993   0.00000  Uiso   1.00
C19    C     0.40351   0.12170   0.13657   0.00000  Uiso   1.00
C20    C     0.09649   0.21163   0.19676   0.00000  Uiso   1.00
C21    C     0.45011   0.12096   0.13852   0.00000  Uiso   1.00
C22    C     0.04989   0.21237   0.19481   0.00000  Uiso   1.00
C23    C     0.47655   0.16726   0.16529   0.00000  Uiso   1.00
C24    C     0.02345   0.16607   0.16804   0.00000  Uiso   1.00
C25    C     0.45599   0.21461   0.18933   0.00000  Uiso   1.00
C26    C     0.04400   0.11872   0.14400   0.00000  Uiso   1.00
C27    C     0.47041   0.07417   0.11575   0.00000  Uiso   1.00
C28    C     0.02958   0.25916   0.21758   0.00000  Uiso   1.00
C29    C     0.01716   0.07201   0.11969   0.00000  Uiso   1.00
C30    C     0.48284   0.26132   0.21364   0.00000  Uiso   1.00
H31    H     0.39216   0.24730   0.21194   0.00000  Uiso   1.00
H32    H     0.10784   0.08603   0.12140   0.00000  Uiso   1.00
H33    H     0.38277   0.08637   0.11651   0.00000  Uiso   1.00
H34    H     0.11723   0.24697   0.21682   0.00000  Uiso   1.00
H35    H     0.44971   0.03864   0.09675   0.00000  Uiso   1.00
H36    H     0.05029   0.29469   0.23658   0.00000  Uiso   1.00
C37    C     0.24051   0.01108   0.14483   0.00000  Uiso   1.00
C38    C     0.25949   0.32226   0.18851   0.00000  Uiso   1.00
N39    N     0.23744   0.15214   0.01284   0.00000  Uiso   1.00
N40    N     0.26255   0.18119   0.32049   0.00000  Uiso   1.00
H41    H     0.21523   0.12607   0.31629   0.00000  Uiso   1.00
H42    H     0.28477   0.20727   0.01704   0.00000  Uiso   1.00
N43    N     0.03642   0.02193   0.10151   0.00000  Uiso   1.00
O44    O     0.01654   0.31941   0.05700   0.00000  Uiso   1.00
O45    O     0.06816   0.00837   0.13672   0.00000  Uiso   1.00
N46    N     0.46358   0.31141   0.23180   0.00000  Uiso   1.00
O47    O     0.48347   0.01393   0.27630   0.00000  Uiso   1.00
O48    O     0.43184   0.32496   0.19660   0.00000  Uiso   1.00
O49    O     0.21302   0.31495   0.09584   0.00000  Uiso   1.00
H50    H     0.19899   0.00520   0.07170   0.00000  Uiso   1.00
O51    O     0.28698   0.01838   0.23749   0.00000  Uiso   1.00
H52    H     0.30101   0.32813   0.26163   0.00000  Uiso   1.00
O53    O     0.75325   0.09538   0.20659   0.00000  Uiso   1.00
O54    O     0.74674   0.23796   0.12674   0.00000  Uiso   1.00
O55    O     0.74480   0.08559   0.10279   0.00000  Uiso   1.00
O56    O     0.75520   0.24774   0.23055   0.00000  Uiso   1.00
C57    C     0.74706   0.06678   0.15156   0.00000  Uiso   1.00
C58    C     0.75294   0.26655   0.18177   0.00000  Uiso   1.00
O59    O     0.68935   0.17155   0.21857   0.00000  Uiso   1.00
O60    O     0.81064   0.16179   0.11476   0.00000  Uiso   1.00
O61    O     0.68090   0.16176   0.11477   0.00000  Uiso   1.00
O62    O     0.81910   0.17157   0.21857   0.00000  Uiso   1.00
C63    C     0.66456   0.16659   0.16769   0.00000  Uiso   1.00
C64    C     0.83544   0.16674   0.16564   0.00000  Uiso   1.00
Cu65   Cu    0.75500   0.17246   0.22813   0.00000  Uiso   1.00
Cu66   Cu    0.74499   0.16087   0.10521   0.00000  Uiso   1.00
C67    C     0.90919   0.21328   0.19007   0.00000  Uiso   1.00
C68    C     0.59081   0.12005   0.14326   0.00000  Uiso   1.00
C69    C     0.88350   0.16735   0.16340   0.00000  Uiso   1.00
C70    C     0.61650   0.16598   0.16993   0.00000  Uiso   1.00
C71    C     0.90351   0.12170   0.13657   0.00000  Uiso   1.00
C72    C     0.59649   0.21163   0.19676   0.00000  Uiso   1.00
C73    C     0.95011   0.12096   0.13852   0.00000  Uiso   1.00
C74    C     0.54989   0.21237   0.19481   0.00000  Uiso   1.00
C75    C     0.97655   0.16726   0.16529   0.00000  Uiso   1.00
C76    C     0.52345   0.16607   0.16804   0.00000  Uiso   1.00
C77    C     0.95599   0.21461   0.18933   0.00000  Uiso   1.00
C78    C     0.54400   0.11872   0.14400   0.00000  Uiso   1.00
C79    C     0.97041   0.07417   0.11575   0.00000  Uiso   1.00
C80    C     0.52958   0.25916   0.21758   0.00000  Uiso   1.00
C81    C     0.51716   0.07201   0.11969   0.00000  Uiso   1.00
C82    C     0.98284   0.26132   0.21364   0.00000  Uiso   1.00
H83    H     0.89216   0.24730   0.21194   0.00000  Uiso   1.00
H84    H     0.60784   0.08603   0.12140   0.00000  Uiso   1.00
H85    H     0.88277   0.08637   0.11651   0.00000  Uiso   1.00
H86    H     0.61723   0.24697   0.21682   0.00000  Uiso   1.00
H87    H     0.94971   0.03864   0.09675   0.00000  Uiso   1.00
H88    H     0.55029   0.29469   0.23658   0.00000  Uiso   1.00
C89    C     0.74051   0.01108   0.14483   0.00000  Uiso   1.00
C90    C     0.75949   0.32226   0.18851   0.00000  Uiso   1.00
N91    N     0.73744   0.15214   0.01284   0.00000  Uiso   1.00
N92    N     0.76255   0.18119   0.32049   0.00000  Uiso   1.00
H93    H     0.71523   0.12607   0.31629   0.00000  Uiso   1.00
H94    H     0.78477   0.20727   0.01704   0.00000  Uiso   1.00
N95    N     0.53642   0.02193   0.10151   0.00000  Uiso   1.00
O96    O     0.51654   0.31941   0.05700   0.00000  Uiso   1.00
O97    O     0.56816   0.00837   0.13672   0.00000  Uiso   1.00
N98    N     0.96358   0.31141   0.23180   0.00000  Uiso   1.00
O99    O     0.98347   0.01393   0.27630   0.00000  Uiso   1.00
O100   O     0.93184   0.32496   0.19660   0.00000  Uiso   1.00
O101   O     0.71302   0.31495   0.09584   0.00000  Uiso   1.00
H102   H     0.69899   0.00520   0.07170   0.00000  Uiso   1.00
O103   O     0.78698   0.01838   0.23749   0.00000  Uiso   1.00
H104   H     0.80101   0.32813   0.26163   0.00000  Uiso   1.00
O105   O     0.25325   0.42871   0.20659   0.00000  Uiso   1.00
O106   O     0.24674   0.57129   0.12674   0.00000  Uiso   1.00
O107   O     0.24480   0.41892   0.10279   0.00000  Uiso   1.00
O108   O     0.25520   0.58108   0.23055   0.00000  Uiso   1.00
C109   C     0.24706   0.40012   0.15156   0.00000  Uiso   1.00
C110   C     0.25294   0.59988   0.18177   0.00000  Uiso   1.00
O111   O     0.18935   0.50488   0.21857   0.00000  Uiso   1.00
O112   O     0.31064   0.49512   0.11476   0.00000  Uiso   1.00
O113   O     0.18090   0.49510   0.11477   0.00000  Uiso   1.00
O114   O     0.31910   0.50490   0.21857   0.00000  Uiso   1.00
C115   C     0.16456   0.49993   0.16769   0.00000  Uiso   1.00
C116   C     0.33544   0.50007   0.16564   0.00000  Uiso   1.00
Cu117  Cu    0.25500   0.50579   0.22813   0.00000  Uiso   1.00
Cu118  Cu    0.24499   0.49421   0.10521   0.00000  Uiso   1.00
C119   C     0.40919   0.54661   0.19007   0.00000  Uiso   1.00
C120   C     0.09081   0.45339   0.14326   0.00000  Uiso   1.00
C121   C     0.38350   0.50069   0.16340   0.00000  Uiso   1.00
C122   C     0.11650   0.49931   0.16993   0.00000  Uiso   1.00
C123   C     0.40351   0.45504   0.13657   0.00000  Uiso   1.00
C124   C     0.09649   0.54496   0.19676   0.00000  Uiso   1.00
C125   C     0.45011   0.45429   0.13852   0.00000  Uiso   1.00
C126   C     0.04989   0.54571   0.19481   0.00000  Uiso   1.00
C127   C     0.47655   0.50059   0.16529   0.00000  Uiso   1.00
C128   C     0.02345   0.49941   0.16804   0.00000  Uiso   1.00
C129   C     0.45599   0.54795   0.18933   0.00000  Uiso   1.00
C130   C     0.04400   0.45206   0.14400   0.00000  Uiso   1.00
C131   C     0.47041   0.40751   0.11575   0.00000  Uiso   1.00
C132   C     0.02958   0.59250   0.21758   0.00000  Uiso   1.00
C133   C     0.01716   0.40535   0.11969   0.00000  Uiso   1.00
C134   C     0.48284   0.59466   0.21364   0.00000  Uiso   1.00
H135   H     0.39216   0.58063   0.21194   0.00000  Uiso   1.00
H136   H     0.10784   0.41937   0.12140   0.00000  Uiso   1.00
H137   H     0.38277   0.41970   0.11651   0.00000  Uiso   1.00
H138   H     0.11723   0.58030   0.21682   0.00000  Uiso   1.00
H139   H     0.44971   0.37198   0.09675   0.00000  Uiso   1.00
H140   H     0.05029   0.62803   0.23658   0.00000  Uiso   1.00
C141   C     0.24051   0.34441   0.14483   0.00000  Uiso   1.00
C142   C     0.25949   0.65559   0.18851   0.00000  Uiso   1.00
N143   N     0.23744   0.48547   0.01284   0.00000  Uiso   1.00
N144   N     0.26255   0.51453   0.32049   0.00000  Uiso   1.00
H145   H     0.21523   0.45940   0.31629   0.00000  Uiso   1.00
H146   H     0.28477   0.54060   0.01704   0.00000  Uiso   1.00
N147   N     0.03642   0.35526   0.10151   0.00000  Uiso   1.00
O148   O     0.01654   0.65274   0.05700   0.00000  Uiso   1.00
O149   O     0.06816   0.34170   0.13672   0.00000  Uiso   1.00
N150   N     0.46358   0.64474   0.23180   0.00000  Uiso   1.00
O151   O     0.48347   0.34727   0.27630   0.00000  Uiso   1.00
O152   O     0.43184   0.65829   0.19660   0.00000  Uiso   1.00
O153   O     0.21302   0.64829   0.09584   0.00000  Uiso   1.00
H154   H     0.19899   0.33854   0.07170   0.00000  Uiso   1.00
O155   O     0.28698   0.35171   0.23749   0.00000  Uiso   1.00
H156   H     0.30101   0.66146   0.26163   0.00000  Uiso   1.00
O157   O     0.75325   0.42871   0.20659   0.00000  Uiso   1.00
O158   O     0.74674   0.57129   0.12674   0.00000  Uiso   1.00
O159   O     0.74480   0.41892   0.10279   0.00000  Uiso   1.00
O160   O     0.75520   0.58108   0.23055   0.00000  Uiso   1.00
C161   C     0.74706   0.40012   0.15156   0.00000  Uiso   1.00
C162   C     0.75294   0.59988   0.18177   0.00000  Uiso   1.00
O163   O     0.68935   0.50488   0.21857   0.00000  Uiso   1.00
O164   O     0.81064   0.49512   0.11476   0.00000  Uiso   1.00
O165   O     0.68090   0.49510   0.11477   0.00000  Uiso   1.00
O166   O     0.81910   0.50490   0.21857   0.00000  Uiso   1.00
C167   C     0.66456   0.49993   0.16769   0.00000  Uiso   1.00
C168   C     0.83544   0.50007   0.16564   0.00000  Uiso   1.00
Cu169  Cu    0.75500   0.50579   0.22813   0.00000  Uiso   1.00
Cu170  Cu    0.74499   0.49421   0.10521   0.00000  Uiso   1.00
C171   C     0.90919   0.54661   0.19007   0.00000  Uiso   1.00
C172   C     0.59081   0.45339   0.14326   0.00000  Uiso   1.00
C173   C     0.88350   0.50069   0.16340   0.00000  Uiso   1.00
C174   C     0.61650   0.49931   0.16993   0.00000  Uiso   1.00
C175   C     0.90351   0.45504   0.13657   0.00000  Uiso   1.00
C176   C     0.59649   0.54496   0.19676   0.00000  Uiso   1.00
C177   C     0.95011   0.45429   0.13852   0.00000  Uiso   1.00
C178   C     0.54989   0.54571   0.19481   0.00000  Uiso   1.00
C179   C     0.97655   0.50059   0.16529   0.00000  Uiso   1.00
C180   C     0.52345   0.49941   0.16804   0.00000  Uiso   1.00
C181   C     0.95599   0.54795   0.18933   0.00000  Uiso   1.00
C182   C     0.54400   0.45206   0.14400   0.00000  Uiso   1.00
C183   C     0.97041   0.40751   0.11575   0.00000  Uiso   1.00
C184   C     0.52958   0.59250   0.21758   0.00000  Uiso   1.00
C185   C     0.51716   0.40535   0.11969   0.00000  Uiso   1.00
C186   C     0.98284   0.59466   0.21364   0.00000  Uiso   1.00
H187   H     0.89216   0.58063   0.21194   0.00000  Uiso   1.00
H188   H     0.60784   0.41937   0.12140   0.00000  Uiso   1.00
H189   H     0.88277   0.41970   0.11651   0.00000  Uiso   1.00
H190   H     0.61723   0.58030   0.21682   0.00000  Uiso   1.00
H191   H     0.94971   0.37198   0.09675   0.00000  Uiso   1.00
H192   H     0.55029   0.62803   0.23658   0.00000  Uiso   1.00
C193   C     0.74051   0.34441   0.14483   0.00000  Uiso   1.00
C194   C     0.75949   0.65559   0.18851   0.00000  Uiso   1.00
N195   N     0.73744   0.48547   0.01284   0.00000  Uiso   1.00
N196   N     0.76255   0.51453   0.32049   0.00000  Uiso   1.00
H197   H     0.71523   0.45940   0.31629   0.00000  Uiso   1.00
H198   H     0.78477   0.54060   0.01704   0.00000  Uiso   1.00
N199   N     0.53642   0.35526   0.10151   0.00000  Uiso   1.00
O200   O     0.51654   0.65274   0.05700   0.00000  Uiso   1.00
O201   O     0.56816   0.34170   0.13672   0.00000  Uiso   1.00
N202   N     0.96358   0.64474   0.23180   0.00000  Uiso   1.00
O203   O     0.98347   0.34727   0.27630   0.00000  Uiso   1.00
O204   O     0.93184   0.65829   0.19660   0.00000  Uiso   1.00
O205   O     0.71302   0.64829   0.09584   0.00000  Uiso   1.00
H206   H     0.69899   0.33854   0.07170   0.00000  Uiso   1.00
O207   O     0.78698   0.35171   0.23749   0.00000  Uiso   1.00
H208   H     0.80101   0.66146   0.26163   0.00000  Uiso   1.00
O209   O     0.25325   0.76204   0.20659   0.00000  Uiso   1.00
O210   O     0.24674   0.90462   0.12674   0.00000  Uiso   1.00
O211   O     0.24480   0.75226   0.10279   0.00000  Uiso   1.00
O212   O     0.25520   0.91441   0.23055   0.00000  Uiso   1.00
C213   C     0.24706   0.73345   0.15156   0.00000  Uiso   1.00
C214   C     0.25294   0.93322   0.18177   0.00000  Uiso   1.00
O215   O     0.18935   0.83821   0.21857   0.00000  Uiso   1.00
O216   O     0.31064   0.82845   0.11476   0.00000  Uiso   1.00
O217   O     0.18090   0.82843   0.11477   0.00000  Uiso   1.00
O218   O     0.31910   0.83824   0.21857   0.00000  Uiso   1.00
C219   C     0.16456   0.83326   0.16769   0.00000  Uiso   1.00
C220   C     0.33544   0.83341   0.16564   0.00000  Uiso   1.00
Cu221  Cu    0.25500   0.83913   0.22813   0.00000  Uiso   1.00
Cu222  Cu    0.24499   0.82754   0.10521   0.00000  Uiso   1.00
C223   C     0.40919   0.87995   0.19007   0.00000  Uiso   1.00
C224   C     0.09081   0.78672   0.14326   0.00000  Uiso   1.00
C225   C     0.38350   0.83402   0.16340   0.00000  Uiso   1.00
C226   C     0.11650   0.83265   0.16993   0.00000  Uiso   1.00
C227   C     0.40351   0.78837   0.13657   0.00000  Uiso   1.00
C228   C     0.09649   0.87830   0.19676   0.00000  Uiso   1.00
C229   C     0.45011   0.78763   0.13852   0.00000  Uiso   1.00
C230   C     0.04989   0.87904   0.19481   0.00000  Uiso   1.00
C231   C     0.47655   0.83393   0.16529   0.00000  Uiso   1.00
C232   C     0.02345   0.83274   0.16804   0.00000  Uiso   1.00
C233   C     0.45599   0.88128   0.18933   0.00000  Uiso   1.00
C234   C     0.04400   0.78539   0.14400   0.00000  Uiso   1.00
C235   C     0.47041   0.74084   0.11575   0.00000  Uiso   1.00
C236   C     0.02958   0.92583   0.21758   0.00000  Uiso   1.00
C237   C     0.01716   0.73868   0.11969   0.00000  Uiso   1.00
C238   C     0.48284   0.92799   0.21364   0.00000  Uiso   1.00
H239   H     0.39216   0.91397   0.21194   0.00000  Uiso   1.00
H240   H     0.10784   0.75270   0.12140   0.00000  Uiso   1.00
H241   H     0.38277   0.75303   0.11651   0.00000  Uiso   1.00
H242   H     0.11723   0.91364   0.21682   0.00000  Uiso   1.00
H243   H     0.44971   0.70531   0.09675   0.00000  Uiso   1.00
H244   H     0.05029   0.96136   0.23658   0.00000  Uiso   1.00
C245   C     0.24051   0.67774   0.14483   0.00000  Uiso   1.00
C246   C     0.25949   0.98892   0.18851   0.00000  Uiso   1.00
N247   N     0.23744   0.81881   0.01284   0.00000  Uiso   1.00
N248   N     0.26255   0.84786   0.32049   0.00000  Uiso   1.00
H249   H     0.21523   0.79273   0.31629   0.00000  Uiso   1.00
H250   H     0.28477   0.87393   0.01704   0.00000  Uiso   1.00
N251   N     0.03642   0.68859   0.10151   0.00000  Uiso   1.00
O252   O     0.01654   0.98608   0.05700   0.00000  Uiso   1.00
O253   O     0.06816   0.67504   0.13672   0.00000  Uiso   1.00
N254   N     0.46358   0.97808   0.23180   0.00000  Uiso   1.00
O255   O     0.48347   0.68060   0.27630   0.00000  Uiso   1.00
O256   O     0.43184   0.99162   0.19660   0.00000  Uiso   1.00
O257   O     0.21302   0.98162   0.09584   0.00000  Uiso   1.00
H258   H     0.19899   0.67187   0.07170   0.00000  Uiso   1.00
O259   O     0.28698   0.68505   0.23749   0.00000  Uiso   1.00
H260   H     0.30101   0.99480   0.26163   0.00000  Uiso   1.00
O261   O     0.75325   0.76204   0.20659   0.00000  Uiso   1.00
O262   O     0.74674   0.90462   0.12674   0.00000  Uiso   1.00
O263   O     0.74480   0.75226   0.10279   0.00000  Uiso   1.00
O264   O     0.75520   0.91441   0.23055   0.00000  Uiso   1.00
C265   C     0.74706   0.73345   0.15156   0.00000  Uiso   1.00
C266   C     0.75294   0.93322   0.18177   0.00000  Uiso   1.00
O267   O     0.68935   0.83821   0.21857   0.00000  Uiso   1.00
O268   O     0.81064   0.82845   0.11476   0.00000  Uiso   1.00
O269   O     0.68090   0.82843   0.11477   0.00000  Uiso   1.00
O270   O     0.81910   0.83824   0.21857   0.00000  Uiso   1.00
C271   C     0.66456   0.83326   0.16769   0.00000  Uiso   1.00
C272   C     0.83544   0.83341   0.16564   0.00000  Uiso   1.00
Cu273  Cu    0.75500   0.83913   0.22813   0.00000  Uiso   1.00
Cu274  Cu    0.74499   0.82754   0.10521   0.00000  Uiso   1.00
C275   C     0.90919   0.87995   0.19007   0.00000  Uiso   1.00
C276   C     0.59081   0.78672   0.14326   0.00000  Uiso   1.00
C277   C     0.88350   0.83402   0.16340   0.00000  Uiso   1.00
C278   C     0.61650   0.83265   0.16993   0.00000  Uiso   1.00
C279   C     0.90351   0.78837   0.13657   0.00000  Uiso   1.00
C280   C     0.59649   0.87830   0.19676   0.00000  Uiso   1.00
C281   C     0.95011   0.78763   0.13852   0.00000  Uiso   1.00
C282   C     0.54989   0.87904   0.19481   0.00000  Uiso   1.00
C283   C     0.97655   0.83393   0.16529   0.00000  Uiso   1.00
C284   C     0.52345   0.83274   0.16804   0.00000  Uiso   1.00
C285   C     0.95599   0.88128   0.18933   0.00000  Uiso   1.00
C286   C     0.54400   0.78539   0.14400   0.00000  Uiso   1.00
C287   C     0.97041   0.74084   0.11575   0.00000  Uiso   1.00
C288   C     0.52958   0.92583   0.21758   0.00000  Uiso   1.00
C289   C     0.51716   0.73868   0.11969   0.00000  Uiso   1.00
C290   C     0.98284   0.92799   0.21364   0.00000  Uiso   1.00
H291   H     0.89216   0.91397   0.21194   0.00000  Uiso   1.00
H292   H     0.60784   0.75270   0.12140   0.00000  Uiso   1.00
H293   H     0.88277   0.75303   0.11651   0.00000  Uiso   1.00
H294   H     0.61723   0.91364   0.21682   0.00000  Uiso   1.00
H295   H     0.94971   0.70531   0.09675   0.00000  Uiso   1.00
H296   H     0.55029   0.96136   0.23658   0.00000  Uiso   1.00
C297   C     0.74051   0.67774   0.14483   0.00000  Uiso   1.00
C298   C     0.75949   0.98892   0.18851   0.00000  Uiso   1.00
N299   N     0.73744   0.81881   0.01284   0.00000  Uiso   1.00
N300   N     0.76255   0.84786   0.32049   0.00000  Uiso   1.00
H301   H     0.71523   0.79273   0.31629   0.00000  Uiso   1.00
H302   H     0.78477   0.87393   0.01704   0.00000  Uiso   1.00
N303   N     0.53642   0.68859   0.10151   0.00000  Uiso   1.00
O304   O     0.51654   0.98608   0.05700   0.00000  Uiso   1.00
O305   O     0.56816   0.67504   0.13672   0.00000  Uiso   1.00
N306   N     0.96358   0.97808   0.23180   0.00000  Uiso   1.00
O307   O     0.98347   0.68060   0.27630   0.00000  Uiso   1.00
O308   O     0.93184   0.99162   0.19660   0.00000  Uiso   1.00
O309   O     0.71302   0.98162   0.09584   0.00000  Uiso   1.00
H310   H     0.69899   0.67187   0.07170   0.00000  Uiso   1.00
O311   O     0.78698   0.68505   0.23749   0.00000  Uiso   1.00
H312   H     0.80101   0.99480   0.26163   0.00000  Uiso   1.00
O313   O     0.25325   0.09538   0.53992   0.00000  Uiso   1.00
O314   O     0.24674   0.23796   0.46008   0.00000  Uiso   1.00
O315   O     0.24480   0.08559   0.43612   0.00000  Uiso   1.00
O316   O     0.25520   0.24774   0.56388   0.00000  Uiso   1.00
C317   C     0.24706   0.06678   0.48490   0.00000  Uiso   1.00
C318   C     0.25294   0.26655   0.51510   0.00000  Uiso   1.00
O319   O     0.18935   0.17155   0.55191   0.00000  Uiso   1.00
O320   O     0.31064   0.16179   0.44809   0.00000  Uiso   1.00
O321   O     0.18090   0.16176   0.44810   0.00000  Uiso   1.00
O322   O     0.31910   0.17157   0.55190   0.00000  Uiso   1.00
C323   C     0.16456   0.16659   0.50103   0.00000  Uiso   1.00
C324   C     0.33544   0.16674   0.49897   0.00000  Uiso   1.00
Cu325  Cu    0.25500   0.17246   0.56146   0.00000  Uiso   1.00
Cu326  Cu    0.24499   0.16087   0.43854   0.00000  Uiso   1.00
C327   C     0.40919   0.21328   0.52340   0.00000  Uiso   1.00
C328   C     0.09081   0.12005   0.47660   0.00000  Uiso   1.00
C329   C     0.38350   0.16735   0.49674   0.00000  Uiso   1.00
C330   C     0.11650   0.16598   0.50326   0.00000  Uiso   1.00
C331   C     0.40351   0.12170   0.46991   0.00000  Uiso   1.00
C332   C     0.09649   0.21163   0.53009   0.00000  Uiso   1.00
C333   C     0.45011   0.12096   0.47186   0.00000  Uiso   1.00
C334   C     0.04989   0.21237   0.52814   0.00000  Uiso   1.00
C335   C     0.47655   0.16726   0.49862   0.00000  Uiso   1.00
C336   C     0.02345   0.16607   0.50137   0.00000  Uiso   1.00
C337   C     0.45599   0.21461   0.52267   0.00000  Uiso   1.00
C338   C     0.04400   0.11872   0.47733   0.00000  Uiso   1.00
C339   C     0.47041   0.07417   0.44908   0.00000  Uiso   1.00
C340   C     0.02958   0.25916   0.55091   0.00000  Uiso   1.00
C341   C     0.01716   0.07201   0.45302   0.00000  Uiso   1.00
C342   C     0.48284   0.26132   0.54697   0.00000  Uiso   1.00
H343   H     0.39216   0.24730   0.54527   0.00000  Uiso   1.00
H344   H     0.10784   0.08603   0.45473   0.00000  Uiso   1.00
H345   H     0.38277   0.08637   0.44984   0.00000  Uiso   1.00
H346   H     0.11723   0.24697   0.55015   0.00000  Uiso   1.00
H347   H     0.44971   0.03864   0.43008   0.00000  Uiso   1.00
H348   H     0.05029   0.29469   0.56991   0.00000  Uiso   1.00
C349   C     0.24051   0.01108   0.47816   0.00000  Uiso   1.00
C350   C     0.25949   0.32226   0.52184   0.00000  Uiso   1.00
N351   N     0.23744   0.15214   0.34617   0.00000  Uiso   1.00
N352   N     0.26255   0.18119   0.65383   0.00000  Uiso   1.00
H353   H     0.21523   0.12607   0.64963   0.00000  Uiso   1.00
H354   H     0.28477   0.20727   0.35037   0.00000  Uiso   1.00
N355   N     0.03642   0.02193   0.43485   0.00000  Uiso   1.00
O356   O     0.01654   0.31941   0.39033   0.00000  Uiso   1.00
O357   O     0.06816   0.00837   0.47005   0.00000  Uiso   1.00
N358   N     0.46358   0.31141   0.56514   0.00000  Uiso   1.00
O359   O     0.48347   0.01393   0.60963   0.00000  Uiso   1.00
O360   O     0.43184   0.32496   0.52994   0.00000  Uiso   1.00
O361   O     0.21302   0.31495   0.42918   0.00000  Uiso   1.00
H362   H     0.19899   0.00520   0.40503   0.00000  Uiso   1.00
O363   O     0.28698   0.01838   0.57082   0.00000  Uiso   1.00
H364   H     0.30101   0.32813   0.59497   0.00000  Uiso   1.00
O365   O     0.75325   0.09538   0.53992   0.00000  Uiso   1.00
O366   O     0.74674   0.23796   0.46008   0.00000  Uiso   1.00
O367   O     0.74480   0.08559   0.43612   0.00000  Uiso   1.00
O368   O     0.75520   0.24774   0.56388   0.00000  Uiso   1.00
C369   C     0.74706   0.06678   0.48490   0.00000  Uiso   1.00
C370   C     0.75294   0.26655   0.51510   0.00000  Uiso   1.00
O371   O     0.68935   0.17155   0.55191   0.00000  Uiso   1.00
O372   O     0.81064   0.16179   0.44809   0.00000  Uiso   1.00
O373   O     0.68090   0.16176   0.44810   0.00000  Uiso   1.00
O374   O     0.81910   0.17157   0.55190   0.00000  Uiso   1.00
C375   C     0.66456   0.16659   0.50103   0.00000  Uiso   1.00
C376   C     0.83544   0.16674   0.49897   0.00000  Uiso   1.00
Cu377  Cu    0.75500   0.17246   0.56146   0.00000  Uiso   1.00
Cu378  Cu    0.74499   0.16087   0.43854   0.00000  Uiso   1.00
C379   C     0.90919   0.21328   0.52340   0.00000  Uiso   1.00
C380   C     0.59081   0.12005   0.47660   0.00000  Uiso   1.00
C381   C     0.88350   0.16735   0.49674   0.00000  Uiso   1.00
C382   C     0.61650   0.16598   0.50326   0.00000  Uiso   1.00
C383   C     0.90351   0.12170   0.46991   0.00000  Uiso   1.00
C384   C     0.59649   0.21163   0.53009   0.00000  Uiso   1.00
C385   C     0.95011   0.12096   0.47186   0.00000  Uiso   1.00
C386   C     0.54989   0.21237   0.52814   0.00000  Uiso   1.00
C387   C     0.97655   0.16726   0.49862   0.00000  Uiso   1.00
C388   C     0.52345   0.16607   0.50137   0.00000  Uiso   1.00
C389   C     0.95599   0.21461   0.52267   0.00000  Uiso   1.00
C390   C     0.54400   0.11872   0.47733   0.00000  Uiso   1.00
C391   C     0.97041   0.07417   0.44908   0.00000  Uiso   1.00
C392   C     0.52958   0.25916   0.55091   0.00000  Uiso   1.00
C393   C     0.51716   0.07201   0.45302   0.00000  Uiso   1.00
C394   C     0.98284   0.26132   0.54697   0.00000  Uiso   1.00
H395   H     0.89216   0.24730   0.54527   0.00000  Uiso   1.00
H396   H     0.60784   0.08603   0.45473   0.00000  Uiso   1.00
H397   H     0.88277   0.08637   0.44984   0.00000  Uiso   1.00
H398   H     0.61723   0.24697   0.55015   0.00000  Uiso   1.00
H399   H     0.94971   0.03864   0.43008   0.00000  Uiso   1.00
H400   H     0.55029   0.29469   0.56991   0.00000  Uiso   1.00
C401   C     0.74051   0.01108   0.47816   0.00000  Uiso   1.00
C402   C     0.75949   0.32226   0.52184   0.00000  Uiso   1.00
N403   N     0.73744   0.15214   0.34617   0.00000  Uiso   1.00
N404   N     0.76255   0.18119   0.65383   0.00000  Uiso   1.00
H405   H     0.71523   0.12607   0.64963   0.00000  Uiso   1.00
H406   H     0.78477   0.20727   0.35037   0.00000  Uiso   1.00
N407   N     0.53642   0.02193   0.43485   0.00000  Uiso   1.00
O408   O     0.51654   0.31941   0.39033   0.00000  Uiso   1.00
O409   O     0.56816   0.00837   0.47005   0.00000  Uiso   1.00
N410   N     0.96358   0.31141   0.56514   0.00000  Uiso   1.00
O411   O     0.98347   0.01393   0.60963   0.00000  Uiso   1.00
O412   O     0.93184   0.32496   0.52994   0.00000  Uiso   1.00
O413   O     0.71302   0.31495   0.42918   0.00000  Uiso   1.00
H414   H     0.69899   0.00520   0.40503   0.00000  Uiso   1.00
O415   O     0.78698   0.01838   0.57082   0.00000  Uiso   1.00
H416   H     0.80101   0.32813   0.59497   0.00000  Uiso   1.00
O417   O     0.25325   0.42871   0.53992   0.00000  Uiso   1.00
O418   O     0.24674   0.57129   0.46008   0.00000  Uiso   1.00
O419   O     0.24480   0.41892   0.43612   0.00000  Uiso   1.00
O420   O     0.25520   0.58108   0.56388   0.00000  Uiso   1.00
C421   C     0.24706   0.40012   0.48490   0.00000  Uiso   1.00
C422   C     0.25294   0.59988   0.51510   0.00000  Uiso   1.00
O423   O     0.18935   0.50488   0.55191   0.00000  Uiso   1.00
O424   O     0.31064   0.49512   0.44809   0.00000  Uiso   1.00
O425   O     0.18090   0.49510   0.44810   0.00000  Uiso   1.00
O426   O     0.31910   0.50490   0.55190   0.00000  Uiso   1.00
C427   C     0.16456   0.49993   0.50103   0.00000  Uiso   1.00
C428   C     0.33544   0.50007   0.49897   0.00000  Uiso   1.00
Cu429  Cu    0.25500   0.50579   0.56146   0.00000  Uiso   1.00
Cu430  Cu    0.24499   0.49421   0.43854   0.00000  Uiso   1.00
C431   C     0.40919   0.54661   0.52340   0.00000  Uiso   1.00
C432   C     0.09081   0.45339   0.47660   0.00000  Uiso   1.00
C433   C     0.38350   0.50069   0.49674   0.00000  Uiso   1.00
C434   C     0.11650   0.49931   0.50326   0.00000  Uiso   1.00
C435   C     0.40351   0.45504   0.46991   0.00000  Uiso   1.00
C436   C     0.09649   0.54496   0.53009   0.00000  Uiso   1.00
C437   C     0.45011   0.45429   0.47186   0.00000  Uiso   1.00
C438   C     0.04989   0.54571   0.52814   0.00000  Uiso   1.00
C439   C     0.47655   0.50059   0.49862   0.00000  Uiso   1.00
C440   C     0.02345   0.49941   0.50137   0.00000  Uiso   1.00
C441   C     0.45599   0.54795   0.52267   0.00000  Uiso   1.00
C442   C     0.04400   0.45206   0.47733   0.00000  Uiso   1.00
C443   C     0.47041   0.40751   0.44908   0.00000  Uiso   1.00
C444   C     0.02958   0.59250   0.55091   0.00000  Uiso   1.00
C445   C     0.01716   0.40535   0.45302   0.00000  Uiso   1.00
C446   C     0.48284   0.59466   0.54697   0.00000  Uiso   1.00
H447   H     0.39216   0.58063   0.54527   0.00000  Uiso   1.00
H448   H     0.10784   0.41937   0.45473   0.00000  Uiso   1.00
H449   H     0.38277   0.41970   0.44984   0.00000  Uiso   1.00
H450   H     0.11723   0.58030   0.55015   0.00000  Uiso   1.00
H451   H     0.44971   0.37198   0.43008   0.00000  Uiso   1.00
H452   H     0.05029   0.62803   0.56991   0.00000  Uiso   1.00
C453   C     0.24051   0.34441   0.47816   0.00000  Uiso   1.00
C454   C     0.25949   0.65559   0.52184   0.00000  Uiso   1.00
N455   N     0.23744   0.48547   0.34617   0.00000  Uiso   1.00
N456   N     0.26255   0.51453   0.65383   0.00000  Uiso   1.00
H457   H     0.21523   0.45940   0.64963   0.00000  Uiso   1.00
H458   H     0.28477   0.54060   0.35037   0.00000  Uiso   1.00
N459   N     0.03642   0.35526   0.43485   0.00000  Uiso   1.00
O460   O     0.01654   0.65274   0.39033   0.00000  Uiso   1.00
O461   O     0.06816   0.34170   0.47005   0.00000  Uiso   1.00
N462   N     0.46358   0.64474   0.56514   0.00000  Uiso   1.00
O463   O     0.48347   0.34727   0.60963   0.00000  Uiso   1.00
O464   O     0.43184   0.65829   0.52994   0.00000  Uiso   1.00
O465   O     0.21302   0.64829   0.42918   0.00000  Uiso   1.00
H466   H     0.19899   0.33854   0.40503   0.00000  Uiso   1.00
O467   O     0.28698   0.35171   0.57082   0.00000  Uiso   1.00
H468   H     0.30101   0.66146   0.59497   0.00000  Uiso   1.00
O469   O     0.75325   0.42871   0.53992   0.00000  Uiso   1.00
O470   O     0.74674   0.57129   0.46008   0.00000  Uiso   1.00
O471   O     0.74480   0.41892   0.43612   0.00000  Uiso   1.00
O472   O     0.75520   0.58108   0.56388   0.00000  Uiso   1.00
C473   C     0.74706   0.40012   0.48490   0.00000  Uiso   1.00
C474   C     0.75294   0.59988   0.51510   0.00000  Uiso   1.00
O475   O     0.68935   0.50488   0.55191   0.00000  Uiso   1.00
O476   O     0.81064   0.49512   0.44809   0.00000  Uiso   1.00
O477   O     0.68090   0.49510   0.44810   0.00000  Uiso   1.00
O478   O     0.81910   0.50490   0.55190   0.00000  Uiso   1.00
C479   C     0.66456   0.49993   0.50103   0.00000  Uiso   1.00
C480   C     0.83544   0.50007   0.49897   0.00000  Uiso   1.00
Cu481  Cu    0.75500   0.50579   0.56146   0.00000  Uiso   1.00
Cu482  Cu    0.74499   0.49421   0.43854   0.00000  Uiso   1.00
C483   C     0.90919   0.54661   0.52340   0.00000  Uiso   1.00
C484   C     0.59081   0.45339   0.47660   0.00000  Uiso   1.00
C485   C     0.88350   0.50069   0.49674   0.00000  Uiso   1.00
C486   C     0.61650   0.49931   0.50326   0.00000  Uiso   1.00
C487   C     0.90351   0.45504   0.46991   0.00000  Uiso   1.00
C488   C     0.59649   0.54496   0.53009   0.00000  Uiso   1.00
C489   C     0.95011   0.45429   0.47186   0.00000  Uiso   1.00
C490   C     0.54989   0.54571   0.52814   0.00000  Uiso   1.00
C491   C     0.97655   0.50059   0.49862   0.00000  Uiso   1.00
C492   C     0.52345   0.49941   0.50137   0.00000  Uiso   1.00
C493   C     0.95599   0.54795   0.52267   0.00000  Uiso   1.00
C494   C     0.54400   0.45206   0.47733   0.00000  Uiso   1.00
C495   C     0.97041   0.40751   0.44908   0.00000  Uiso   1.00
C496   C     0.52958   0.59250   0.55091   0.00000  Uiso   1.00
C497   C     0.51716   0.40535   0.45302   0.00000  Uiso   1.00
C498   C     0.98284   0.59466   0.54697   0.00000  Uiso   1.00
H499   H     0.89216   0.58063   0.54527   0.00000  Uiso   1.00
H500   H     0.60784   0.41937   0.45473   0.00000  Uiso   1.00
H501   H     0.88277   0.41970   0.44984   0.00000  Uiso   1.00
H502   H     0.61723   0.58030   0.55015   0.00000  Uiso   1.00
H503   H     0.94971   0.37198   0.43008   0.00000  Uiso   1.00
H504   H     0.55029   0.62803   0.56991   0.00000  Uiso   1.00
C505   C     0.74051   0.34441   0.47816   0.00000  Uiso   1.00
C506   C     0.75949   0.65559   0.52184   0.00000  Uiso   1.00
N507   N     0.73744   0.48547   0.34617   0.00000  Uiso   1.00
N508   N     0.76255   0.51453   0.65383   0.00000  Uiso   1.00
H509   H     0.71523   0.45940   0.64963   0.00000  Uiso   1.00
H510   H     0.78477   0.54060   0.35037   0.00000  Uiso   1.00
N511   N     0.53642   0.35526   0.43485   0.00000  Uiso   1.00
O512   O     0.51654   0.65274   0.39033   0.00000  Uiso   1.00
O513   O     0.56816   0.34170   0.47005   0.00000  Uiso   1.00
N514   N     0.96358   0.64474   0.56514   0.00000  Uiso   1.00
O515   O     0.98347   0.34727   0.60963   0.00000  Uiso   1.00
O516   O     0.93184   0.65829   0.52994   0.00000  Uiso   1.00
O517   O     0.71302   0.64829   0.42918   0.00000  Uiso   1.00
H518   H     0.69899   0.33854   0.40503   0.00000  Uiso   1.00
O519   O     0.78698   0.35171   0.57082   0.00000  Uiso   1.00
H520   H     0.80101   0.66146   0.59497   0.00000  Uiso   1.00
O521   O     0.25325   0.76204   0.53992   0.00000  Uiso   1.00
O522   O     0.24674   0.90462   0.46008   0.00000  Uiso   1.00
O523   O     0.24480   0.75226   0.43612   0.00000  Uiso   1.00
O524   O     0.25520   0.91441   0.56388   0.00000  Uiso   1.00
C525   C     0.24706   0.73345   0.48490   0.00000  Uiso   1.00
C526   C     0.25294   0.93322   0.51510   0.00000  Uiso   1.00
O527   O     0.18935   0.83821   0.55191   0.00000  Uiso   1.00
O528   O     0.31064   0.82845   0.44809   0.00000  Uiso   1.00
O529   O     0.18090   0.82843   0.44810   0.00000  Uiso   1.00
O530   O     0.31910   0.83824   0.55190   0.00000  Uiso   1.00
C531   C     0.16456   0.83326   0.50103   0.00000  Uiso   1.00
C532   C     0.33544   0.83341   0.49897   0.00000  Uiso   1.00
Cu533  Cu    0.25500   0.83913   0.56146   0.00000  Uiso   1.00
Cu534  Cu    0.24499   0.82754   0.43854   0.00000  Uiso   1.00
C535   C     0.40919   0.87995   0.52340   0.00000  Uiso   1.00
C536   C     0.09081   0.78672   0.47660   0.00000  Uiso   1.00
C537   C     0.38350   0.83402   0.49674   0.00000  Uiso   1.00
C538   C     0.11650   0.83265   0.50326   0.00000  Uiso   1.00
C539   C     0.40351   0.78837   0.46991   0.00000  Uiso   1.00
C540   C     0.09649   0.87830   0.53009   0.00000  Uiso   1.00
C541   C     0.45011   0.78763   0.47186   0.00000  Uiso   1.00
C542   C     0.04989   0.87904   0.52814   0.00000  Uiso   1.00
C543   C     0.47655   0.83393   0.49862   0.00000  Uiso   1.00
C544   C     0.02345   0.83274   0.50137   0.00000  Uiso   1.00
C545   C     0.45599   0.88128   0.52267   0.00000  Uiso   1.00
C546   C     0.04400   0.78539   0.47733   0.00000  Uiso   1.00
C547   C     0.47041   0.74084   0.44908   0.00000  Uiso   1.00
C548   C     0.02958   0.92583   0.55091   0.00000  Uiso   1.00
C549   C     0.01716   0.73868   0.45302   0.00000  Uiso   1.00
C550   C     0.48284   0.92799   0.54697   0.00000  Uiso   1.00
H551   H     0.39216   0.91397   0.54527   0.00000  Uiso   1.00
H552   H     0.10784   0.75270   0.45473   0.00000  Uiso   1.00
H553   H     0.38277   0.75303   0.44984   0.00000  Uiso   1.00
H554   H     0.11723   0.91364   0.55015   0.00000  Uiso   1.00
H555   H     0.44971   0.70531   0.43008   0.00000  Uiso   1.00
H556   H     0.05029   0.96136   0.56991   0.00000  Uiso   1.00
C557   C     0.24051   0.67774   0.47816   0.00000  Uiso   1.00
C558   C     0.25949   0.98892   0.52184   0.00000  Uiso   1.00
N559   N     0.23744   0.81881   0.34617   0.00000  Uiso   1.00
N560   N     0.26255   0.84786   0.65383   0.00000  Uiso   1.00
H561   H     0.21523   0.79273   0.64963   0.00000  Uiso   1.00
H562   H     0.28477   0.87393   0.35037   0.00000  Uiso   1.00
N563   N     0.03642   0.68859   0.43485   0.00000  Uiso   1.00
O564   O     0.01654   0.98608   0.39033   0.00000  Uiso   1.00
O565   O     0.06816   0.67504   0.47005   0.00000  Uiso   1.00
N566   N     0.46358   0.97808   0.56514   0.00000  Uiso   1.00
O567   O     0.48347   0.68060   0.60963   0.00000  Uiso   1.00
O568   O     0.43184   0.99162   0.52994   0.00000  Uiso   1.00
O569   O     0.21302   0.98162   0.42918   0.00000  Uiso   1.00
H570   H     0.19899   0.67187   0.40503   0.00000  Uiso   1.00
O571   O     0.28698   0.68505   0.57082   0.00000  Uiso   1.00
H572   H     0.30101   0.99480   0.59497   0.00000  Uiso   1.00
O573   O     0.75325   0.76204   0.53992   0.00000  Uiso   1.00
O574   O     0.74674   0.90462   0.46008   0.00000  Uiso   1.00
O575   O     0.74480   0.75226   0.43612   0.00000  Uiso   1.00
O576   O     0.75520   0.91441   0.56388   0.00000  Uiso   1.00
C577   C     0.74706   0.73345   0.48490   0.00000  Uiso   1.00
C578   C     0.75294   0.93322   0.51510   0.00000  Uiso   1.00
O579   O     0.68935   0.83821   0.55191   0.00000  Uiso   1.00
O580   O     0.81064   0.82845   0.44809   0.00000  Uiso   1.00
O581   O     0.68090   0.82843   0.44810   0.00000  Uiso   1.00
O582   O     0.81910   0.83824   0.55190   0.00000  Uiso   1.00
C583   C     0.66456   0.83326   0.50103   0.00000  Uiso   1.00
C584   C     0.83544   0.83341   0.49897   0.00000  Uiso   1.00
Cu585  Cu    0.75500   0.83913   0.56146   0.00000  Uiso   1.00
Cu586  Cu    0.74499   0.82754   0.43854   0.00000  Uiso   1.00
C587   C     0.90919   0.87995   0.52340   0.00000  Uiso   1.00
C588   C     0.59081   0.78672   0.47660   0.00000  Uiso   1.00
C589   C     0.88350   0.83402   0.49674   0.00000  Uiso   1.00
C590   C     0.61650   0.83265   0.50326   0.00000  Uiso   1.00
C591   C     0.90351   0.78837   0.46991   0.00000  Uiso   1.00
C592   C     0.59649   0.87830   0.53009   0.00000  Uiso   1.00
C593   C     0.95011   0.78763   0.47186   0.00000  Uiso   1.00
C594   C     0.54989   0.87904   0.52814   0.00000  Uiso   1.00
C595   C     0.97655   0.83393   0.49862   0.00000  Uiso   1.00
C596   C     0.52345   0.83274   0.50137   0.00000  Uiso   1.00
C597   C     0.95599   0.88128   0.52267   0.00000  Uiso   1.00
C598   C     0.54400   0.78539   0.47733   0.00000  Uiso   1.00
C599   C     0.97041   0.74084   0.44908   0.00000  Uiso   1.00
C600   C     0.52958   0.92583   0.55091   0.00000  Uiso   1.00
C601   C     0.51716   0.73868   0.45302   0.00000  Uiso   1.00
C602   C     0.98284   0.92799   0.54697   0.00000  Uiso   1.00
H603   H     0.89216   0.91397   0.54527   0.00000  Uiso   1.00
H604   H     0.60784   0.75270   0.45473   0.00000  Uiso   1.00
H605   H     0.88277   0.75303   0.44984   0.00000  Uiso   1.00
H606   H     0.61723   0.91364   0.55015   0.00000  Uiso   1.00
H607   H     0.94971   0.70531   0.43008   0.00000  Uiso   1.00
H608   H     0.55029   0.96136   0.56991   0.00000  Uiso   1.00
C609   C     0.74051   0.67774   0.47816   0.00000  Uiso   1.00
C610   C     0.75949   0.98892   0.52184   0.00000  Uiso   1.00
N611   N     0.73744   0.81881   0.34617   0.00000  Uiso   1.00
N612   N     0.76255   0.84786   0.65383   0.00000  Uiso   1.00
H613   H     0.71523   0.79273   0.64963   0.00000  Uiso   1.00
H614   H     0.78477   0.87393   0.35037   0.00000  Uiso   1.00
N615   N     0.53642   0.68859   0.43485   0.00000  Uiso   1.00
O616   O     0.51654   0.98608   0.39033   0.00000  Uiso   1.00
O617   O     0.56816   0.67504   0.47005   0.00000  Uiso   1.00
N618   N     0.96358   0.97808   0.56514   0.00000  Uiso   1.00
O619   O     0.98347   0.68060   0.60963   0.00000  Uiso   1.00
O620   O     0.93184   0.99162   0.52994   0.00000  Uiso   1.00
O621   O     0.71302   0.98162   0.42918   0.00000  Uiso   1.00
H622   H     0.69899   0.67187   0.40503   0.00000  Uiso   1.00
O623   O     0.78698   0.68505   0.57082   0.00000  Uiso   1.00
H624   H     0.80101   0.99480   0.59497   0.00000  Uiso   1.00
O625   O     0.25325   0.09538   0.87326   0.00000  Uiso   1.00
O626   O     0.24674   0.23796   0.79341   0.00000  Uiso   1.00
O627   O     0.24480   0.08559   0.76945   0.00000  Uiso   1.00
O628   O     0.25520   0.24774   0.89721   0.00000  Uiso   1.00
C629   C     0.24706   0.06678   0.81823   0.00000  Uiso   1.00
C630   C     0.25294   0.26655   0.84844   0.00000  Uiso   1.00
O631   O     0.18935   0.17155   0.88524   0.00000  Uiso   1.00
O632   O     0.31064   0.16179   0.78143   0.00000  Uiso   1.00
O633   O     0.18090   0.16176   0.78143   0.00000  Uiso   1.00
O634   O     0.31910   0.17157   0.88523   0.00000  Uiso   1.00
C635   C     0.16456   0.16659   0.83436   0.00000  Uiso   1.00
C636   C     0.33544   0.16674   0.83231   0.00000  Uiso   1.00
Cu637  Cu    0.25500   0.17246   0.89479   0.00000  Uiso   1.00
Cu638  Cu    0.24499   0.16087   0.77187   0.00000  Uiso   1.00
C639   C     0.40919   0.21328   0.85674   0.00000  Uiso   1.00
C640   C     0.09081   0.12005   0.80993   0.00000  Uiso   1.00
C641   C     0.38350   0.16735   0.83007   0.00000  Uiso   1.00
C642   C     0.11650   0.16598   0.83660   0.00000  Uiso   1.00
C643   C     0.40351   0.12170   0.80324   0.00000  Uiso   1.00
C644   C     0.09649   0.21163   0.86343   0.00000  Uiso   1.00
C645   C     0.45011   0.12096   0.80519   0.00000  Uiso   1.00
C646   C     0.04989   0.21237   0.86147   0.00000  Uiso   1.00
C647   C     0.47655   0.16726   0.83196   0.00000  Uiso   1.00
C648   C     0.02345   0.16607   0.83471   0.00000  Uiso   1.00
C649   C     0.45599   0.21461   0.85600   0.00000  Uiso   1.00
C650   C     0.04400   0.11872   0.81066   0.00000  Uiso   1.00
C651   C     0.47041   0.07417   0.78241   0.00000  Uiso   1.00
C652   C     0.02958   0.25916   0.88425   0.00000  Uiso   1.00
C653   C     0.01716   0.07201   0.78636   0.00000  Uiso   1.00
C654   C     0.48284   0.26132   0.88030   0.00000  Uiso   1.00
H655   H     0.39216   0.24730   0.87860   0.00000  Uiso   1.00
H656   H     0.10784   0.08603   0.78807   0.00000  Uiso   1.00
H657   H     0.38277   0.08637   0.78318   0.00000  Uiso   1.00
H658   H     0.11723   0.24697   0.88349   0.00000  Uiso   1.00
H659   H     0.44971   0.03864   0.76342   0.00000  Uiso   1.00
H660   H     0.05029   0.29469   0.90324   0.00000  Uiso   1.00
C661   C     0.24051   0.01108   0.81149   0.00000  Uiso   1.00
C662   C     0.25949   0.32226   0.85517   0.00000  Uiso   1.00
N663   N     0.23744   0.15214   0.67951   0.00000  Uiso   1.00
N664   N     0.26255   0.18119   0.98716   0.00000  Uiso   1.00
H665   H     0.21523   0.12607   0.98296   0.00000  Uiso   1.00
H666   H     0.28477   0.20727   0.68371   0.00000  Uiso   1.00
N667   N     0.03642   0.02193   0.76818   0.00000  Uiso   1.00
O668   O     0.01654   0.31941   0.72366   0.00000  Uiso   1.00
O669   O     0.06816   0.00837   0.80339   0.00000  Uiso   1.00
N670   N     0.46358   0.31141   0.89847   0.00000  Uiso   1.00
O671   O     0.48347   0.01393   0.94297   0.00000  Uiso   1.00
O672   O     0.43184   0.32496   0.86327   0.00000  Uiso   1.00
O673   O     0.21302   0.31495   0.76251   0.00000  Uiso   1.00
H674   H     0.19899   0.00520   0.73837   0.00000  Uiso   1.00
O675   O     0.28698   0.01838   0.90416   0.00000  Uiso   1.00
H676   H     0.30101   0.32813   0.92830   0.00000  Uiso   1.00
O677   O     0.75325   0.09538   0.87326   0.00000  Uiso   1.00
O678   O     0.74674   0.23796   0.79341   0.00000  Uiso   1.00
O679   O     0.74480   0.08559   0.76945   0.00000  Uiso   1.00
O680   O     0.75520   0.24774   0.89721   0.00000  Uiso   1.00
C681   C     0.74706   0.06678   0.81823   0.00000  Uiso   1.00
C682   C     0.75294   0.26655   0.84844   0.00000  Uiso   1.00
O683   O     0.68935   0.17155   0.88524   0.00000  Uiso   1.00
O684   O     0.81064   0.16179   0.78143   0.00000  Uiso   1.00
O685   O     0.68090   0.16176   0.78143   0.00000  Uiso   1.00
O686   O     0.81910   0.17157   0.88523   0.00000  Uiso   1.00
C687   C     0.66456   0.16659   0.83436   0.00000  Uiso   1.00
C688   C     0.83544   0.16674   0.83231   0.00000  Uiso   1.00
Cu689  Cu    0.75500   0.17246   0.89479   0.00000  Uiso   1.00
Cu690  Cu    0.74499   0.16087   0.77187   0.00000  Uiso   1.00
C691   C     0.90919   0.21328   0.85674   0.00000  Uiso   1.00
C692   C     0.59081   0.12005   0.80993   0.00000  Uiso   1.00
C693   C     0.88350   0.16735   0.83007   0.00000  Uiso   1.00
C694   C     0.61650   0.16598   0.83660   0.00000  Uiso   1.00
C695   C     0.90351   0.12170   0.80324   0.00000  Uiso   1.00
C696   C     0.59649   0.21163   0.86343   0.00000  Uiso   1.00
C697   C     0.95011   0.12096   0.80519   0.00000  Uiso   1.00
C698   C     0.54989   0.21237   0.86147   0.00000  Uiso   1.00
C699   C     0.97655   0.16726   0.83196   0.00000  Uiso   1.00
C700   C     0.52345   0.16607   0.83471   0.00000  Uiso   1.00
C701   C     0.95599   0.21461   0.85600   0.00000  Uiso   1.00
C702   C     0.54400   0.11872   0.81066   0.00000  Uiso   1.00
C703   C     0.97041   0.07417   0.78241   0.00000  Uiso   1.00
C704   C     0.52958   0.25916   0.88425   0.00000  Uiso   1.00
C705   C     0.51716   0.07201   0.78636   0.00000  Uiso   1.00
C706   C     0.98284   0.26132   0.88030   0.00000  Uiso   1.00
H707   H     0.89216   0.24730   0.87860   0.00000  Uiso   1.00
H708   H     0.60784   0.08603   0.78807   0.00000  Uiso   1.00
H709   H     0.88277   0.08637   0.78318   0.00000  Uiso   1.00
H710   H     0.61723   0.24697   0.88349   0.00000  Uiso   1.00
H711   H     0.94971   0.03864   0.76342   0.00000  Uiso   1.00
H712   H     0.55029   0.29469   0.90324   0.00000  Uiso   1.00
C713   C     0.74051   0.01108   0.81149   0.00000  Uiso   1.00
C714   C     0.75949   0.32226   0.85517   0.00000  Uiso   1.00
N715   N     0.73744   0.15214   0.67951   0.00000  Uiso   1.00
N716   N     0.76255   0.18119   0.98716   0.00000  Uiso   1.00
H717   H     0.71523   0.12607   0.98296   0.00000  Uiso   1.00
H718   H     0.78477   0.20727   0.68371   0.00000  Uiso   1.00
N719   N     0.53642   0.02193   0.76818   0.00000  Uiso   1.00
O720   O     0.51654   0.31941   0.72366   0.00000  Uiso   1.00
O721   O     0.56816   0.00837   0.80339   0.00000  Uiso   1.00
N722   N     0.96358   0.31141   0.89847   0.00000  Uiso   1.00
O723   O     0.98347   0.01393   0.94297   0.00000  Uiso   1.00
O724   O     0.93184   0.32496   0.86327   0.00000  Uiso   1.00
O725   O     0.71302   0.31495   0.76251   0.00000  Uiso   1.00
H726   H     0.69899   0.00520   0.73837   0.00000  Uiso   1.00
O727   O     0.78698   0.01838   0.90416   0.00000  Uiso   1.00
H728   H     0.80101   0.32813   0.92830   0.00000  Uiso   1.00
O729   O     0.25325   0.42871   0.87326   0.00000  Uiso   1.00
O730   O     0.24674   0.57129   0.79341   0.00000  Uiso   1.00
O731   O     0.24480   0.41892   0.76945   0.00000  Uiso   1.00
O732   O     0.25520   0.58108   0.89721   0.00000  Uiso   1.00
C733   C     0.24706   0.40012   0.81823   0.00000  Uiso   1.00
C734   C     0.25294   0.59988   0.84844   0.00000  Uiso   1.00
O735   O     0.18935   0.50488   0.88524   0.00000  Uiso   1.00
O736   O     0.31064   0.49512   0.78143   0.00000  Uiso   1.00
O737   O     0.18090   0.49510   0.78143   0.00000  Uiso   1.00
O738   O     0.31910   0.50490   0.88523   0.00000  Uiso   1.00
C739   C     0.16456   0.49993   0.83436   0.00000  Uiso   1.00
C740   C     0.33544   0.50007   0.83231   0.00000  Uiso   1.00
Cu741  Cu    0.25500   0.50579   0.89479   0.00000  Uiso   1.00
Cu742  Cu    0.24499   0.49421   0.77187   0.00000  Uiso   1.00
C743   C     0.40919   0.54661   0.85674   0.00000  Uiso   1.00
C744   C     0.09081   0.45339   0.80993   0.00000  Uiso   1.00
C745   C     0.38350   0.50069   0.83007   0.00000  Uiso   1.00
C746   C     0.11650   0.49931   0.83660   0.00000  Uiso   1.00
C747   C     0.40351   0.45504   0.80324   0.00000  Uiso   1.00
C748   C     0.09649   0.54496   0.86343   0.00000  Uiso   1.00
C749   C     0.45011   0.45429   0.80519   0.00000  Uiso   1.00
C750   C     0.04989   0.54571   0.86147   0.00000  Uiso   1.00
C751   C     0.47655   0.50059   0.83196   0.00000  Uiso   1.00
C752   C     0.02345   0.49941   0.83471   0.00000  Uiso   1.00
C753   C     0.45599   0.54795   0.85600   0.00000  Uiso   1.00
C754   C     0.04400   0.45206   0.81066   0.00000  Uiso   1.00
C755   C     0.47041   0.40751   0.78241   0.00000  Uiso   1.00
C756   C     0.02958   0.59250   0.88425   0.00000  Uiso   1.00
C757   C     0.01716   0.40535   0.78636   0.00000  Uiso   1.00
C758   C     0.48284   0.59466   0.88030   0.00000  Uiso   1.00
H759   H     0.39216   0.58063   0.87860   0.00000  Uiso   1.00
H760   H     0.10784   0.41937   0.78807   0.00000  Uiso   1.00
H761   H     0.38277   0.41970   0.78318   0.00000  Uiso   1.00
H762   H     0.11723   0.58030   0.88349   0.00000  Uiso   1.00
H763   H     0.44971   0.37198   0.76342   0.00000  Uiso   1.00
H764   H     0.05029   0.62803   0.90324   0.00000  Uiso   1.00
C765   C     0.24051   0.34441   0.81149   0.00000  Uiso   1.00
C766   C     0.25949   0.65559   0.85517   0.00000  Uiso   1.00
N767   N     0.23744   0.48547   0.67951   0.00000  Uiso   1.00
N768   N     0.26255   0.51453   0.98716   0.00000  Uiso   1.00
H769   H     0.21523   0.45940   0.98296   0.00000  Uiso   1.00
H770   H     0.28477   0.54060   0.68371   0.00000  Uiso   1.00
N771   N     0.03642   0.35526   0.76818   0.00000  Uiso   1.00
O772   O     0.01654   0.65274   0.72366   0.00000  Uiso   1.00
O773   O     0.06816   0.34170   0.80339   0.00000  Uiso   1.00
N774   N     0.46358   0.64474   0.89847   0.00000  Uiso   1.00
O775   O     0.48347   0.34727   0.94297   0.00000  Uiso   1.00
O776   O     0.43184   0.65829   0.86327   0.00000  Uiso   1.00
O777   O     0.21302   0.64829   0.76251   0.00000  Uiso   1.00
H778   H     0.19899   0.33854   0.73837   0.00000  Uiso   1.00
O779   O     0.28698   0.35171   0.90416   0.00000  Uiso   1.00
H780   H     0.30101   0.66146   0.92830   0.00000  Uiso   1.00
O781   O     0.75325   0.42871   0.87326   0.00000  Uiso   1.00
O782   O     0.74674   0.57129   0.79341   0.00000  Uiso   1.00
O783   O     0.74480   0.41892   0.76945   0.00000  Uiso   1.00
O784   O     0.75520   0.58108   0.89721   0.00000  Uiso   1.00
C785   C     0.74706   0.40012   0.81823   0.00000  Uiso   1.00
C786   C     0.75294   0.59988   0.84844   0.00000  Uiso   1.00
O787   O     0.68935   0.50488   0.88524   0.00000  Uiso   1.00
O788   O     0.81064   0.49512   0.78143   0.00000  Uiso   1.00
O789   O     0.68090   0.49510   0.78143   0.00000  Uiso   1.00
O790   O     0.81910   0.50490   0.88523   0.00000  Uiso   1.00
C791   C     0.66456   0.49993   0.83436   0.00000  Uiso   1.00
C792   C     0.83544   0.50007   0.83231   0.00000  Uiso   1.00
Cu793  Cu    0.75500   0.50579   0.89479   0.00000  Uiso   1.00
Cu794  Cu    0.74499   0.49421   0.77187   0.00000  Uiso   1.00
C795   C     0.90919   0.54661   0.85674   0.00000  Uiso   1.00
C796   C     0.59081   0.45339   0.80993   0.00000  Uiso   1.00
C797   C     0.88350   0.50069   0.83007   0.00000  Uiso   1.00
C798   C     0.61650   0.49931   0.83660   0.00000  Uiso   1.00
C799   C     0.90351   0.45504   0.80324   0.00000  Uiso   1.00
C800   C     0.59649   0.54496   0.86343   0.00000  Uiso   1.00
C801   C     0.95011   0.45429   0.80519   0.00000  Uiso   1.00
C802   C     0.54989   0.54571   0.86147   0.00000  Uiso   1.00
C803   C     0.97655   0.50059   0.83196   0.00000  Uiso   1.00
C804   C     0.52345   0.49941   0.83471   0.00000  Uiso   1.00
C805   C     0.95599   0.54795   0.85600   0.00000  Uiso   1.00
C806   C     0.54400   0.45206   0.81066   0.00000  Uiso   1.00
C807   C     0.97041   0.40751   0.78241   0.00000  Uiso   1.00
C808   C     0.52958   0.59250   0.88425   0.00000  Uiso   1.00
C809   C     0.51716   0.40535   0.78636   0.00000  Uiso   1.00
C810   C     0.98284   0.59466   0.88030   0.00000  Uiso   1.00
H811   H     0.89216   0.58063   0.87860   0.00000  Uiso   1.00
H812   H     0.60784   0.41937   0.78807   0.00000  Uiso   1.00
H813   H     0.88277   0.41970   0.78318   0.00000  Uiso   1.00
H814   H     0.61723   0.58030   0.88349   0.00000  Uiso   1.00
H815   H     0.94971   0.37198   0.76342   0.00000  Uiso   1.00
H816   H     0.55029   0.62803   0.90324   0.00000  Uiso   1.00
C817   C     0.74051   0.34441   0.81149   0.00000  Uiso   1.00
C818   C     0.75949   0.65559   0.85517   0.00000  Uiso   1.00
N819   N     0.73744   0.48547   0.67951   0.00000  Uiso   1.00
N820   N     0.76255   0.51453   0.98716   0.00000  Uiso   1.00
H821   H     0.71523   0.45940   0.98296   0.00000  Uiso   1.00
H822   H     0.78477   0.54060   0.68371   0.00000  Uiso   1.00
N823   N     0.53642   0.35526   0.76818   0.00000  Uiso   1.00
O824   O     0.51654   0.65274   0.72366   0.00000  Uiso   1.00
O825   O     0.56816   0.34170   0.80339   0.00000  Uiso   1.00
N826   N     0.96358   0.64474   0.89847   0.00000  Uiso   1.00
O827   O     0.98347   0.34727   0.94297   0.00000  Uiso   1.00
O828   O     0.93184   0.65829   0.86327   0.00000  Uiso   1.00
O829   O     0.71302   0.64829   0.76251   0.00000  Uiso   1.00
H830   H     0.69899   0.33854   0.73837   0.00000  Uiso   1.00
O831   O     0.78698   0.35171   0.90416   0.00000  Uiso   1.00
H832   H     0.80101   0.66146   0.92830   0.00000  Uiso   1.00
O833   O     0.25325   0.76204   0.87326   0.00000  Uiso   1.00
O834   O     0.24674   0.90462   0.79341   0.00000  Uiso   1.00
O835   O     0.24480   0.75226   0.76945   0.00000  Uiso   1.00
O836   O     0.25520   0.91441   0.89721   0.00000  Uiso   1.00
C837   C     0.24706   0.73345   0.81823   0.00000  Uiso   1.00
C838   C     0.25294   0.93322   0.84844   0.00000  Uiso   1.00
O839   O     0.18935   0.83821   0.88524   0.00000  Uiso   1.00
O840   O     0.31064   0.82845   0.78143   0.00000  Uiso   1.00
O841   O     0.18090   0.82843   0.78143   0.00000  Uiso   1.00
O842   O     0.31910   0.83824   0.88523   0.00000  Uiso   1.00
C843   C     0.16456   0.83326   0.83436   0.00000  Uiso   1.00
C844   C     0.33544   0.83341   0.83231   0.00000  Uiso   1.00
Cu845  Cu    0.25500   0.83913   0.89479   0.00000  Uiso   1.00
Cu846  Cu    0.24499   0.82754   0.77187   0.00000  Uiso   1.00
C847   C     0.40919   0.87995   0.85674   0.00000  Uiso   1.00
C848   C     0.09081   0.78672   0.80993   0.00000  Uiso   1.00
C849   C     0.38350   0.83402   0.83007   0.00000  Uiso   1.00
C850   C     0.11650   0.83265   0.83660   0.00000  Uiso   1.00
C851   C     0.40351   0.78837   0.80324   0.00000  Uiso   1.00
C852   C     0.09649   0.87830   0.86343   0.00000  Uiso   1.00
C853   C     0.45011   0.78763   0.80519   0.00000  Uiso   1.00
C854   C     0.04989   0.87904   0.86147   0.00000  Uiso   1.00
C855   C     0.47655   0.83393   0.83196   0.00000  Uiso   1.00
C856   C     0.02345   0.83274   0.83471   0.00000  Uiso   1.00
C857   C     0.45599   0.88128   0.85600   0.00000  Uiso   1.00
C858   C     0.04400   0.78539   0.81066   0.00000  Uiso   1.00
C859   C     0.47041   0.74084   0.78241   0.00000  Uiso   1.00
C860   C     0.02958   0.92583   0.88425   0.00000  Uiso   1.00
C861   C     0.01716   0.73868   0.78636   0.00000  Uiso   1.00
C862   C     0.48284   0.92799   0.88030   0.00000  Uiso   1.00
H863   H     0.39216   0.91397   0.87860   0.00000  Uiso   1.00
H864   H     0.10784   0.75270   0.78807   0.00000  Uiso   1.00
H865   H     0.38277   0.75303   0.78318   0.00000  Uiso   1.00
H866   H     0.11723   0.91364   0.88349   0.00000  Uiso   1.00
H867   H     0.44971   0.70531   0.76342   0.00000  Uiso   1.00
H868   H     0.05029   0.96136   0.90324   0.00000  Uiso   1.00
C869   C     0.24051   0.67774   0.81149   0.00000  Uiso   1.00
C870   C     0.25949   0.98892   0.85517   0.00000  Uiso   1.00
N871   N     0.23744   0.81881   0.67951   0.00000  Uiso   1.00
N872   N     0.26255   0.84786   0.98716   0.00000  Uiso   1.00
H873   H     0.21523   0.79273   0.98296   0.00000  Uiso   1.00
H874   H     0.28477   0.87393   0.68371   0.00000  Uiso   1.00
N875   N     0.03642   0.68859   0.76818   0.00000  Uiso   1.00
O876   O     0.01654   0.98608   0.72366   0.00000  Uiso   1.00
O877   O     0.06816   0.67504   0.80339   0.00000  Uiso   1.00
N878   N     0.46358   0.97808   0.89847   0.00000  Uiso   1.00
O879   O     0.48347   0.68060   0.94297   0.00000  Uiso   1.00
O880   O     0.43184   0.99162   0.86327   0.00000  Uiso   1.00
O881   O     0.21302   0.98162   0.76251   0.00000  Uiso   1.00
H882   H     0.19899   0.67187   0.73837   0.00000  Uiso   1.00
O883   O     0.28698   0.68505   0.90416   0.00000  Uiso   1.00
H884   H     0.30101   0.99480   0.92830   0.00000  Uiso   1.00
O885   O     0.75325   0.76204   0.87326   0.00000  Uiso   1.00
O886   O     0.74674   0.90462   0.79341   0.00000  Uiso   1.00
O887   O     0.74480   0.75226   0.76945   0.00000  Uiso   1.00
O888   O     0.75520   0.91441   0.89721   0.00000  Uiso   1.00
C889   C     0.74706   0.73345   0.81823   0.00000  Uiso   1.00
C890   C     0.75294   0.93322   0.84844   0.00000  Uiso   1.00
O891   O     0.68935   0.83821   0.88524   0.00000  Uiso   1.00
O892   O     0.81064   0.82845   0.78143   0.00000  Uiso   1.00
O893   O     0.68090   0.82843   0.78143   0.00000  Uiso   1.00
O894   O     0.81910   0.83824   0.88523   0.00000  Uiso   1.00
C895   C     0.66456   0.83326   0.83436   0.00000  Uiso   1.00
C896   C     0.83544   0.83341   0.83231   0.00000  Uiso   1.00
Cu897  Cu    0.75500   0.83913   0.89479   0.00000  Uiso   1.00
Cu898  Cu    0.74499   0.82754   0.77187   0.00000  Uiso   1.00
C899   C     0.90919   0.87995   0.85674   0.00000  Uiso   1.00
C900   C     0.59081   0.78672   0.80993   0.00000  Uiso   1.00
C901   C     0.88350   0.83402   0.83007   0.00000  Uiso   1.00
C902   C     0.61650   0.83265   0.83660   0.00000  Uiso   1.00
C903   C     0.90351   0.78837   0.80324   0.00000  Uiso   1.00
C904   C     0.59649   0.87830   0.86343   0.00000  Uiso   1.00
C905   C     0.95011   0.78763   0.80519   0.00000  Uiso   1.00
C906   C     0.54989   0.87904   0.86147   0.00000  Uiso   1.00
C907   C     0.97655   0.83393   0.83196   0.00000  Uiso   1.00
C908   C     0.52345   0.83274   0.83471   0.00000  Uiso   1.00
C909   C     0.95599   0.88128   0.85600   0.00000  Uiso   1.00
C910   C     0.54400   0.78539   0.81066   0.00000  Uiso   1.00
C911   C     0.97041   0.74084   0.78241   0.00000  Uiso   1.00
C912   C     0.52958   0.92583   0.88425   0.00000  Uiso   1.00
C913   C     0.51716   0.73868   0.78636   0.00000  Uiso   1.00
C914   C     0.98284   0.92799   0.88030   0.00000  Uiso   1.00
H915   H     0.89216   0.91397   0.87860   0.00000  Uiso   1.00
H916   H     0.60784   0.75270   0.78807   0.00000  Uiso   1.00
H917   H     0.88277   0.75303   0.78318   0.00000  Uiso   1.00
H918   H     0.61723   0.91364   0.88349   0.00000  Uiso   1.00
H919   H     0.94971   0.70531   0.76342   0.00000  Uiso   1.00
H920   H     0.55029   0.96136   0.90324   0.00000  Uiso   1.00
C921   C     0.74051   0.67774   0.81149   0.00000  Uiso   1.00
C922   C     0.75949   0.98892   0.85517   0.00000  Uiso   1.00
N923   N     0.73744   0.81881   0.67951   0.00000  Uiso   1.00
N924   N     0.76255   0.84786   0.98716   0.00000  Uiso   1.00
H925   H     0.71523   0.79273   0.98296   0.00000  Uiso   1.00
H926   H     0.78477   0.87393   0.68371   0.00000  Uiso   1.00
N927   N     0.53642   0.68859   0.76818   0.00000  Uiso   1.00
O928   O     0.51654   0.98608   0.72366   0.00000  Uiso   1.00
O929   O     0.56816   0.67504   0.80339   0.00000  Uiso   1.00
N930   N     0.96358   0.97808   0.89847   0.00000  Uiso   1.00
O931   O     0.98347   0.68060   0.94297   0.00000  Uiso   1.00
O932   O     0.93184   0.99162   0.86327   0.00000  Uiso   1.00
O933   O     0.71302   0.98162   0.76251   0.00000  Uiso   1.00
H934   H     0.69899   0.67187   0.73837   0.00000  Uiso   1.00
O935   O     0.78698   0.68505   0.90416   0.00000  Uiso   1.00
H936   H     0.80101   0.99480   0.92830   0.00000  Uiso   1.00
loop_
_geom_bond_atom_site_label_1
_geom_bond_atom_site_label_2
_geom_bond_distance
_geom_bond_site_symmetry_2
_ccdc_geom_bond_type
O1     C5      1.289   .     A
O1     Cu13    1.967   .     S
O2     C6      1.289   .     A
O2     Cu14    1.967   .     S
O3     Cu14    1.958   .     S
O3     C5      1.288   .     A
O4     C6      1.288   .     A
O4     Cu13    1.958   .     S
C5     C37     1.437   .     S
C6     C38     1.437   .     S
O7     C11     1.293   .     A
O7     Cu13    1.959   .     S
O8     C12     1.293   .     A
O8     Cu14    1.959   .     S
O9     Cu14    1.943   .     S
O9     C11     1.291   .     A
O10    C12     1.291   .     A
O10    Cu13    1.943   .     S
C11    C18     1.441   .     S
C12    C17     1.441   .     S
Cu13   Cu14    2.690   .     S
Cu13   N40     2.021   .     S
Cu14   N39     2.021   .     S
C15    H31     1.082   .     S
C15    C25     1.400   .     A
C15    C17     1.394   .     A
C16    H32     1.082   .     S
C16    C18     1.394   .     A
C16    C26     1.400   .     A
C17    C19     1.392   .     A
C18    C20     1.392   .     A
C19    C21     1.392   .     A
C19    H33     1.085   .     S
C20    H34     1.085   .     S
C20    C22     1.392   .     A
C21    C27     1.399   .     A
C21    C23     1.413   .     A
C22    C28     1.399   .     A
C22    C24     1.413   .     A
C23    C25     1.420   .     A
C23    C76     1.402   .     S
C24    C26     1.420   .     A
C24    C75     1.402   1_455 S
C25    C30     1.417   .     A
C26    C29     1.417   .     A
C27    H35     1.084   .     S
C27    C81     1.399   .     S
C28    H36     1.084   .     S
C28    C82     1.399   1_455 S
C29    N43     1.440   .     S
C29    C79     1.399   1_455 S
C30    N46     1.440   .     S
C30    C80     1.399   .     S
C37    C246    1.344   1_545 S
C37    O257    1.389   1_545 S
C38    C141    1.344   .     S
C38    O155    1.389   .     S
N39    N664    1.293   1_554 S
N39    H665    1.029   1_554 S
N40    N351    1.293   .     S
N40    H354    1.029   .     S
H41    N351    1.029   .     S
H42    N664    1.029   1_554 S
N43    O45     1.301   .     A
N43    O252    1.301   1_545 S
O44    N147    1.301   .     S
N46    O48     1.301   .     A
N46    O151    1.301   .     S
O47    N254    1.301   1_545 S
O49    C141    1.389   .     S
O49    H154    0.991   .     S
H50    O257    0.991   1_545 S
O51    C246    1.389   1_545 S
O51    H260    0.991   1_545 S
H52    O155    0.991   .     S
O53    C57     1.289   .     A
O53    Cu65    1.967   .     S
O54    C58     1.289   .     A
O54    Cu66    1.967   .     S
O55    Cu66    1.958   .     S
O55    C57     1.288   .     A
O56    C58     1.288   .     A
O56    Cu65    1.958   .     S
C57    C89     1.437   .     S
C58    C90     1.437   .     S
O59    C63     1.293   .     A
O59    Cu65    1.959   .     S
O60    C64     1.293   .     A
O60    Cu66    1.959   .     S
O61    Cu66    1.943   .     S
O61    C63     1.291   .     A
O62    C64     1.291   .     A
O62    Cu65    1.943   .     S
C63    C70     1.441   .     S
C64    C69     1.441   .     S
Cu65   Cu66    2.690   .     S
Cu65   N92     2.021   .     S
Cu66   N91     2.021   .     S
C67    H83     1.082   .     S
C67    C77     1.400   .     A
C67    C69     1.394   .     A
C68    H84     1.082   .     S
C68    C70     1.394   .     A
C68    C78     1.400   .     A
C69    C71     1.392   .     A
C70    C72     1.392   .     A
C71    C73     1.392   .     A
C71    H85     1.085   .     S
C72    H86     1.085   .     S
C72    C74     1.392   .     A
C73    C79     1.399   .     A
C73    C75     1.413   .     A
C74    C80     1.399   .     A
C74    C76     1.413   .     A
C75    C77     1.420   .     A
C75    C24     1.402   1_655 S
C76    C78     1.420   .     A
C77    C82     1.417   .     A
C78    C81     1.417   .     A
C79    H87     1.084   .     S
C79    C29     1.399   1_655 S
C80    H88     1.084   .     S
C81    N95     1.440   .     S
C82    N98     1.440   .     S
C82    C28     1.399   1_655 S
C89    C298    1.344   1_545 S
C89    O309    1.389   1_545 S
C90    C193    1.344   .     S
C90    O207    1.389   .     S
N91    N716    1.293   1_554 S
N91    H717    1.029   1_554 S
N92    N403    1.293   .     S
N92    H406    1.029   .     S
H93    N403    1.029   .     S
H94    N716    1.029   1_554 S
N95    O97     1.301   .     A
N95    O304    1.301   1_545 S
O96    N199    1.301   .     S
N98    O100    1.301   .     A
N98    O203    1.301   .     S
O99    N306    1.301   1_545 S
O101   C193    1.389   .     S
O101   H206    0.991   .     S
H102   O309    0.991   1_545 S
O103   C298    1.389   1_545 S
O103   H312    0.991   1_545 S
H104   O207    0.991   .     S
O105   C109    1.289   .     A
O105   Cu117   1.967   .     S
O106   C110    1.289   .     A
O106   Cu118   1.967   .     S
O107   Cu118   1.958   .     S
O107   C109    1.288   .     A
O108   C110    1.288   .     A
O108   Cu117   1.958   .     S
C109   C141    1.437   .     S
C110   C142    1.437   .     S
O111   C115    1.293   .     A
O111   Cu117   1.959   .     S
O112   C116    1.293   .     A
O112   Cu118   1.959   .     S
O113   Cu118   1.943   .     S
O113   C115    1.291   .     A
O114   C116    1.291   .     A
O114   Cu117   1.943   .     S
C115   C122    1.441   .     S
C116   C121    1.441   .     S
Cu117  Cu118   2.690   .     S
Cu117  N144    2.021   .     S
Cu118  N143    2.021   .     S
C119   H135    1.082   .     S
C119   C129    1.400   .     A
C119   C121    1.394   .     A
C120   H136    1.082   .     S
C120   C122    1.394   .     A
C120   C130    1.400   .     A
C121   C123    1.392   .     A
C122   C124    1.392   .     A
C123   C125    1.392   .     A
C123   H137    1.085   .     S
C124   H138    1.085   .     S
C124   C126    1.392   .     A
C125   C131    1.399   .     A
C125   C127    1.413   .     A
C126   C132    1.399   .     A
C126   C128    1.413   .     A
C127   C129    1.420   .     A
C127   C180    1.402   .     S
C128   C130    1.420   .     A
C128   C179    1.402   1_455 S
C129   C134    1.417   .     A
C130   C133    1.417   .     A
C131   H139    1.084   .     S
C131   C185    1.399   .     S
C132   H140    1.084   .     S
C132   C186    1.399   1_455 S
C133   N147    1.440   .     S
C133   C183    1.399   1_455 S
C134   N150    1.440   .     S
C134   C184    1.399   .     S
C142   C245    1.344   .     S
C142   O259    1.389   .     S
N143   N768    1.293   1_554 S
N143   H769    1.029   1_554 S
N144   N455    1.293   .     S
N144   H458    1.029   .     S
H145   N455    1.029   .     S
H146   N768    1.029   1_554 S
N147   O149    1.301   .     A
O148   N251    1.301   .     S
N150   O152    1.301   .     A
N150   O255    1.301   .     S
O153   C245    1.389   .     S
O153   H258    0.991   .     S
H156   O259    0.991   .     S
O157   C161    1.289   .     A
O157   Cu169   1.967   .     S
O158   C162    1.289   .     A
O158   Cu170   1.967   .     S
O159   Cu170   1.958   .     S
O159   C161    1.288   .     A
O160   C162    1.288   .     A
O160   Cu169   1.958   .     S
C161   C193    1.437   .     S
C162   C194    1.437   .     S
O163   C167    1.293   .     A
O163   Cu169   1.959   .     S
O164   C168    1.293   .     A
O164   Cu170   1.959   .     S
O165   Cu170   1.943   .     S
O165   C167    1.291   .     A
O166   C168    1.291   .     A
O166   Cu169   1.943   .     S
C167   C174    1.441   .     S
C168   C173    1.441   .     S
Cu169  Cu170   2.690   .     S
Cu169  N196    2.021   .     S
Cu170  N195    2.021   .     S
C171   H187    1.082   .     S
C171   C181    1.400   .     A
C171   C173    1.394   .     A
C172   H188    1.082   .     S
C172   C174    1.394   .     A
C172   C182    1.400   .     A
C173   C175    1.392   .     A
C174   C176    1.392   .     A
C175   C177    1.392   .     A
C175   H189    1.085   .     S
C176   H190    1.085   .     S
C176   C178    1.392   .     A
C177   C183    1.399   .     A
C177   C179    1.413   .     A
C178   C184    1.399   .     A
C178   C180    1.413   .     A
C179   C181    1.420   .     A
C179   C128    1.402   1_655 S
C180   C182    1.420   .     A
C181   C186    1.417   .     A
C182   C185    1.417   .     A
C183   H191    1.084   .     S
C183   C133    1.399   1_655 S
C184   H192    1.084   .     S
C185   N199    1.440   .     S
C186   N202    1.440   .     S
C186   C132    1.399   1_655 S
C194   C297    1.344   .     S
C194   O311    1.389   .     S
N195   N820    1.293   1_554 S
N195   H821    1.029   1_554 S
N196   N507    1.293   .     S
N196   H510    1.029   .     S
H197   N507    1.029   .     S
H198   N820    1.029   1_554 S
N199   O201    1.301   .     A
O200   N303    1.301   .     S
N202   O204    1.301   .     A
N202   O307    1.301   .     S
O205   C297    1.389   .     S
O205   H310    0.991   .     S
H208   O311    0.991   .     S
O209   C213    1.289   .     A
O209   Cu221   1.967   .     S
O210   C214    1.289   .     A
O210   Cu222   1.967   .     S
O211   Cu222   1.958   .     S
O211   C213    1.288   .     A
O212   C214    1.288   .     A
O212   Cu221   1.958   .     S
C213   C245    1.437   .     S
C214   C246    1.437   .     S
O215   C219    1.293   .     A
O215   Cu221   1.959   .     S
O216   C220    1.293   .     A
O216   Cu222   1.959   .     S
O217   Cu222   1.943   .     S
O217   C219    1.291   .     A
O218   C220    1.291   .     A
O218   Cu221   1.943   .     S
C219   C226    1.441   .     S
C220   C225    1.441   .     S
Cu221  Cu222   2.690   .     S
Cu221  N248    2.021   .     S
Cu222  N247    2.021   .     S
C223   H239    1.082   .     S
C223   C233    1.400   .     A
C223   C225    1.394   .     A
C224   H240    1.082   .     S
C224   C226    1.394   .     A
C224   C234    1.400   .     A
C225   C227    1.392   .     A
C226   C228    1.392   .     A
C227   C229    1.392   .     A
C227   H241    1.085   .     S
C228   H242    1.085   .     S
C228   C230    1.392   .     A
C229   C235    1.399   .     A
C229   C231    1.413   .     A
C230   C236    1.399   .     A
C230   C232    1.413   .     A
C231   C233    1.420   .     A
C231   C284    1.402   .     S
C232   C234    1.420   .     A
C232   C283    1.402   1_455 S
C233   C238    1.417   .     A
C234   C237    1.417   .     A
C235   H243    1.084   .     S
C235   C289    1.399   .     S
C236   H244    1.084   .     S
C236   C290    1.399   1_455 S
C237   N251    1.440   .     S
C237   C287    1.399   1_455 S
C238   N254    1.440   .     S
C238   C288    1.399   .     S
C246   C37     1.344   1_565 S
C246   O51     1.389   1_565 S
N247   N872    1.293   1_554 S
N247   H873    1.029   1_554 S
N248   N559    1.293   .     S
N248   H562    1.029   .     S
H249   N559    1.029   .     S
H250   N872    1.029   1_554 S
N251   O253    1.301   .     A
O252   N43     1.301   1_565 S
N254   O256    1.301   .     A
N254   O47     1.301   1_565 S
O257   C37     1.389   1_565 S
O257   H50     0.991   1_565 S
H260   O51     0.991   1_565 S
O261   C265    1.289   .     A
O261   Cu273   1.967   .     S
O262   C266    1.289   .     A
O262   Cu274   1.967   .     S
O263   Cu274   1.958   .     S
O263   C265    1.288   .     A
O264   C266    1.288   .     A
O264   Cu273   1.958   .     S
C265   C297    1.437   .     S
C266   C298    1.437   .     S
O267   C271    1.293   .     A
O267   Cu273   1.959   .     S
O268   C272    1.293   .     A
O268   Cu274   1.959   .     S
O269   Cu274   1.943   .     S
O269   C271    1.291   .     A
O270   C272    1.291   .     A
O270   Cu273   1.943   .     S
C271   C278    1.441   .     S
C272   C277    1.441   .     S
Cu273  Cu274   2.690   .     S
Cu273  N300    2.021   .     S
Cu274  N299    2.021   .     S
C275   H291    1.082   .     S
C275   C285    1.400   .     A
C275   C277    1.394   .     A
C276   H292    1.082   .     S
C276   C278    1.394   .     A
C276   C286    1.400   .     A
C277   C279    1.392   .     A
C278   C280    1.392   .     A
C279   C281    1.392   .     A
C279   H293    1.085   .     S
C280   H294    1.085   .     S
C280   C282    1.392   .     A
C281   C287    1.399   .     A
C281   C283    1.413   .     A
C282   C288    1.399   .     A
C282   C284    1.413   .     A
C283   C285    1.420   .     A
C283   C232    1.402   1_655 S
C284   C286    1.420   .     A
C285   C290    1.417   .     A
C286   C289    1.417   .     A
C287   H295    1.084   .     S
C287   C237    1.399   1_655 S
C288   H296    1.084   .     S
C289   N303    1.440   .     S
C290   N306    1.440   .     S
C290   C236    1.399   1_655 S
C298   C89     1.344   1_565 S
C298   O103    1.389   1_565 S
N299   N924    1.293   1_554 S
N299   H925    1.029   1_554 S
N300   N611    1.293   .     S
N300   H614    1.029   .     S
H301   N611    1.029   .     S
H302   N924    1.029   1_554 S
N303   O305    1.301   .     A
O304   N95     1.301   1_565 S
N306   O308    1.301   .     A
N306   O99     1.301   1_565 S
O309   C89     1.389   1_565 S
O309   H102    0.991   1_565 S
H312   O103    0.991   1_565 S
O313   C317    1.289   .     A
O313   Cu325   1.967   .     S
O314   C318    1.289   .     A
O314   Cu326   1.967   .     S
O315   Cu326   1.958   .     S
O315   C317    1.288   .     A
O316   C318    1.288   .     A
O316   Cu325   1.958   .     S
C317   C349    1.437   .     S
C318   C350    1.437   .     S
O319   C323    1.293   .     A
O319   Cu325   1.959   .     S
O320   C324    1.293   .     A
O320   Cu326   1.959   .     S
O321   Cu326   1.943   .     S
O321   C323    1.291   .     A
O322   C324    1.291   .     A
O322   Cu325   1.943   .     S
C323   C330    1.441   .     S
C324   C329    1.441   .     S
Cu325  Cu326   2.690   .     S
Cu325  N352    2.021   .     S
Cu326  N351    2.021   .     S
C327   H343    1.082   .     S
C327   C337    1.400   .     A
C327   C329    1.394   .     A
C328   H344    1.082   .     S
C328   C330    1.394   .     A
C328   C338    1.400   .     A
C329   C331    1.392   .     A
C330   C332    1.392   .     A
C331   C333    1.392   .     A
C331   H345    1.085   .     S
C332   H346    1.085   .     S
C332   C334    1.392   .     A
C333   C339    1.399   .     A
C333   C335    1.413   .     A
C334   C340    1.399   .     A
C334   C336    1.413   .     A
C335   C337    1.420   .     A
C335   C388    1.402   .     S
C336   C338    1.420   .     A
C336   C387    1.402   1_455 S
C337   C342    1.417   .     A
C338   C341    1.417   .     A
C339   H347    1.084   .     S
C339   C393    1.399   .     S
C340   H348    1.084   .     S
C340   C394    1.399   1_455 S
C341   N355    1.440   .     S
C341   C391    1.399   1_455 S
C342   N358    1.440   .     S
C342   C392    1.399   .     S
C349   C558    1.344   1_545 S
C349   O569    1.389   1_545 S
C350   C453    1.344   .     S
C350   O467    1.389   .     S
N352   N663    1.293   .     S
N352   H666    1.029   .     S
H353   N663    1.029   .     S
N355   O357    1.301   .     A
N355   O564    1.301   1_545 S
O356   N459    1.301   .     S
N358   O360    1.301   .     A
N358   O463    1.301   .     S
O359   N566    1.301   1_545 S
O361   C453    1.389   .     S
O361   H466    0.991   .     S
H362   O569    0.991   1_545 S
O363   C558    1.389   1_545 S
O363   H572    0.991   1_545 S
H364   O467    0.991   .     S
O365   C369    1.289   .     A
O365   Cu377   1.967   .     S
O366   C370    1.289   .     A
O366   Cu378   1.967   .     S
O367   Cu378   1.958   .     S
O367   C369    1.288   .     A
O368   C370    1.288   .     A
O368   Cu377   1.958   .     S
C369   C401    1.437   .     S
C370   C402    1.437   .     S
O371   C375    1.293   .     A
O371   Cu377   1.959   .     S
O372   C376    1.293   .     A
O372   Cu378   1.959   .     S
O373   Cu378   1.943   .     S
O373   C375    1.291   .     A
O374   C376    1.291   .     A
O374   Cu377   1.943   .     S
C375   C382    1.441   .     S
C376   C381    1.441   .     S
Cu377  Cu378   2.690   .     S
Cu377  N404    2.021   .     S
Cu378  N403    2.021   .     S
C379   H395    1.082   .     S
C379   C389    1.400   .     A
C379   C381    1.394   .     A
C380   H396    1.082   .     S
C380   C382    1.394   .     A
C380   C390    1.400   .     A
C381   C383    1.392   .     A
C382   C384    1.392   .     A
C383   C385    1.392   .     A
C383   H397    1.085   .     S
C384   H398    1.085   .     S
C384   C386    1.392   .     A
C385   C391    1.399   .     A
C385   C387    1.413   .     A
C386   C392    1.399   .     A
C386   C388    1.413   .     A
C387   C389    1.420   .     A
C387   C336    1.402   1_655 S
C388   C390    1.420   .     A
C389   C394    1.417   .     A
C390   C393    1.417   .     A
C391   H399    1.084   .     S
C391   C341    1.399   1_655 S
C392   H400    1.084   .     S
C393   N407    1.440   .     S
C394   N410    1.440   .     S
C394   C340    1.399   1_655 S
C401   C610    1.344   1_545 S
C401   O621    1.389   1_545 S
C402   C505    1.344   .     S
C402   O519    1.389   .     S
N404   N715    1.293   .     S
N404   H718    1.029   .     S
H405   N715    1.029   .     S
N407   O409    1.301   .     A
N407   O616    1.301   1_545 S
O408   N511    1.301   .     S
N410   O412    1.301   .     A
N410   O515    1.301   .     S
O411   N618    1.301   1_545 S
O413   C505    1.389   .     S
O413   H518    0.991   .     S
H414   O621    0.991   1_545 S
O415   C610    1.389   1_545 S
O415   H624    0.991   1_545 S
H416   O519    0.991   .     S
O417   C421    1.289   .     A
O417   Cu429   1.967   .     S
O418   C422    1.289   .     A
O418   Cu430   1.967   .     S
O419   Cu430   1.958   .     S
O419   C421    1.288   .     A
O420   C422    1.288   .     A
O420   Cu429   1.958   .     S
C421   C453    1.437   .     S
C422   C454    1.437   .     S
O423   C427    1.293   .     A
O423   Cu429   1.959   .     S
O424   C428    1.293   .     A
O424   Cu430   1.959   .     S
O425   Cu430   1.943   .     S
O425   C427    1.291   .     A
O426   C428    1.291   .     A
O426   Cu429   1.943   .     S
C427   C434    1.441   .     S
C428   C433    1.441   .     S
Cu429  Cu430   2.690   .     S
Cu429  N456    2.021   .     S
Cu430  N455    2.021   .     S
C431   H447    1.082   .     S
C431   C441    1.400   .     A
C431   C433    1.394   .     A
C432   H448    1.082   .     S
C432   C434    1.394   .     A
C432   C442    1.400   .     A
C433   C435    1.392   .     A
C434   C436    1.392   .     A
C435   C437    1.392   .     A
C435   H449    1.085   .     S
C436   H450    1.085   .     S
C436   C438    1.392   .     A
C437   C443    1.399   .     A
C437   C439    1.413   .     A
C438   C444    1.399   .     A
C438   C440    1.413   .     A
C439   C441    1.420   .     A
C439   C492    1.402   .     S
C440   C442    1.420   .     A
C440   C491    1.402   1_455 S
C441   C446    1.417   .     A
C442   C445    1.417   .     A
C443   H451    1.084   .     S
C443   C497    1.399   .     S
C444   H452    1.084   .     S
C444   C498    1.399   1_455 S
C445   N459    1.440   .     S
C445   C495    1.399   1_455 S
C446   N462    1.440   .     S
C446   C496    1.399   .     S
C454   C557    1.344   .     S
C454   O571    1.389   .     S
N456   N767    1.293   .     S
N456   H770    1.029   .     S
H457   N767    1.029   .     S
N459   O461    1.301   .     A
O460   N563    1.301   .     S
N462   O464    1.301   .     A
N462   O567    1.301   .     S
O465   C557    1.389   .     S
O465   H570    0.991   .     S
H468   O571    0.991   .     S
O469   C473    1.289   .     A
O469   Cu481   1.967   .     S
O470   C474    1.289   .     A
O470   Cu482   1.967   .     S
O471   Cu482   1.958   .     S
O471   C473    1.288   .     A
O472   C474    1.288   .     A
O472   Cu481   1.958   .     S
C473   C505    1.437   .     S
C474   C506    1.437   .     S
O475   C479    1.293   .     A
O475   Cu481   1.959   .     S
O476   C480    1.293   .     A
O476   Cu482   1.959   .     S
O477   Cu482   1.943   .     S
O477   C479    1.291   .     A
O478   C480    1.291   .     A
O478   Cu481   1.943   .     S
C479   C486    1.441   .     S
C480   C485    1.441   .     S
Cu481  Cu482   2.690   .     S
Cu481  N508    2.021   .     S
Cu482  N507    2.021   .     S
C483   H499    1.082   .     S
C483   C493    1.400   .     A
C483   C485    1.394   .     A
C484   H500    1.082   .     S
C484   C486    1.394   .     A
C484   C494    1.400   .     A
C485   C487    1.392   .     A
C486   C488    1.392   .     A
C487   C489    1.392   .     A
C487   H501    1.085   .     S
C488   H502    1.085   .     S
C488   C490    1.392   .     A
C489   C495    1.399   .     A
C489   C491    1.413   .     A
C490   C496    1.399   .     A
C490   C492    1.413   .     A
C491   C493    1.420   .     A
C491   C440    1.402   1_655 S
C492   C494    1.420   .     A
C493   C498    1.417   .     A
C494   C497    1.417   .     A
C495   H503    1.084   .     S
C495   C445    1.399   1_655 S
C496   H504    1.084   .     S
C497   N511    1.440   .     S
C498   N514    1.440   .     S
C498   C444    1.399   1_655 S
C506   C609    1.344   .     S
C506   O623    1.389   .     S
N508   N819    1.293   .     S
N508   H822    1.029   .     S
H509   N819    1.029   .     S
N511   O513    1.301   .     A
O512   N615    1.301   .     S
N514   O516    1.301   .     A
N514   O619    1.301   .     S
O517   C609    1.389   .     S
O517   H622    0.991   .     S
H520   O623    0.991   .     S
O521   C525    1.289   .     A
O521   Cu533   1.967   .     S
O522   C526    1.289   .     A
O522   Cu534   1.967   .     S
O523   Cu534   1.958   .     S
O523   C525    1.288   .     A
O524   C526    1.288   .     A
O524   Cu533   1.958   .     S
C525   C557    1.437   .     S
C526   C558    1.437   .     S
O527   C531    1.293   .     A
O527   Cu533   1.959   .     S
O528   C532    1.293   .     A
O528   Cu534   1.959   .     S
O529   Cu534   1.943   .     S
O529   C531    1.291   .     A
O530   C532    1.291   .     A
O530   Cu533   1.943   .     S
C531   C538    1.441   .     S
C532   C537    1.441   .     S
Cu533  Cu534   2.690   .     S
Cu533  N560    2.021   .     S
Cu534  N559    2.021   .     S
C535   H551    1.082   .     S
C535   C545    1.400   .     A
C535   C537    1.394   .     A
C536   H552    1.082   .     S
C536   C538    1.394   .     A
C536   C546    1.400   .     A
C537   C539    1.392   .     A
C538   C540    1.392   .     A
C539   C541    1.392   .     A
C539   H553    1.085   .     S
C540   H554    1.085   .     S
C540   C542    1.392   .     A
C541   C547    1.399   .     A
C541   C543    1.413   .     A
C542   C548    1.399   .     A
C542   C544    1.413   .     A
C543   C545    1.420   .     A
C543   C596    1.402   .     S
C544   C546    1.420   .     A
C544   C595    1.402   1_455 S
C545   C550    1.417   .     A
C546   C549    1.417   .     A
C547   H555    1.084   .     S
C547   C601    1.399   .     S
C548   H556    1.084   .     S
C548   C602    1.399   1_455 S
C549   N563    1.440   .     S
C549   C599    1.399   1_455 S
C550   N566    1.440   .     S
C550   C600    1.399   .     S
C558   C349    1.344   1_565 S
C558   O363    1.389   1_565 S
N560   N871    1.293   .     S
N560   H874    1.029   .     S
H561   N871    1.029   .     S
N563   O565    1.301   .     A
O564   N355    1.301   1_565 S
N566   O568    1.301   .     A
N566   O359    1.301   1_565 S
O569   C349    1.389   1_565 S
O569   H362    0.991   1_565 S
H572   O363    0.991   1_565 S
O573   C577    1.289   .     A
O573   Cu585   1.967   .     S
O574   C578    1.289   .     A
O574   Cu586   1.967   .     S
O575   Cu586   1.958   .     S
O575   C577    1.288   .     A
O576   C578    1.288   .     A
O576   Cu585   1.958   .     S
C577   C609    1.437   .     S
C578   C610    1.437   .     S
O579   C583    1.293   .     A
O579   Cu585   1.959   .     S
O580   C584    1.293   .     A
O580   Cu586   1.959   .     S
O581   Cu586   1.943   .     S
O581   C583    1.291   .     A
O582   C584    1.291   .     A
O582   Cu585   1.943   .     S
C583   C590    1.441   .     S
C584   C589    1.441   .     S
Cu585  Cu586   2.690   .     S
Cu585  N612    2.021   .     S
Cu586  N611    2.021   .     S
C587   H603    1.082   .     S
C587   C597    1.400   .     A
C587   C589    1.394   .     A
C588   H604    1.082   .     S
C588   C590    1.394   .     A
C588   C598    1.400   .     A
C589   C591    1.392   .     A
C590   C592    1.392   .     A
C591   C593    1.392   .     A
C591   H605    1.085   .     S
C592   H606    1.085   .     S
C592   C594    1.392   .     A
C593   C599    1.399   .     A
C593   C595    1.413   .     A
C594   C600    1.399   .     A
C594   C596    1.413   .     A
C595   C597    1.420   .     A
C595   C544    1.402   1_655 S
C596   C598    1.420   .     A
C597   C602    1.417   .     A
C598   C601    1.417   .     A
C599   H607    1.084   .     S
C599   C549    1.399   1_655 S
C600   H608    1.084   .     S
C601   N615    1.440   .     S
C602   N618    1.440   .     S
C602   C548    1.399   1_655 S
C610   C401    1.344   1_565 S
C610   O415    1.389   1_565 S
N612   N923    1.293   .     S
N612   H926    1.029   .     S
H613   N923    1.029   .     S
N615   O617    1.301   .     A
O616   N407    1.301   1_565 S
N618   O620    1.301   .     A
N618   O411    1.301   1_565 S
O621   C401    1.389   1_565 S
O621   H414    0.991   1_565 S
H624   O415    0.991   1_565 S
O625   C629    1.289   .     A
O625   Cu637   1.967   .     S
O626   C630    1.289   .     A
O626   Cu638   1.967   .     S
O627   Cu638   1.958   .     S
O627   C629    1.288   .     A
O628   C630    1.288   .     A
O628   Cu637   1.958   .     S
C629   C661    1.437   .     S
C630   C662    1.437   .     S
O631   C635    1.293   .     A
O631   Cu637   1.959   .     S
O632   C636    1.293   .     A
O632   Cu638   1.959   .     S
O633   Cu638   1.943   .     S
O633   C635    1.291   .     A
O634   C636    1.291   .     A
O634   Cu637   1.943   .     S
C635   C642    1.441   .     S
C636   C641    1.441   .     S
Cu637  Cu638   2.690   .     S
Cu637  N664    2.021   .     S
Cu638  N663    2.021   .     S
C639   H655    1.082   .     S
C639   C649    1.400   .     A
C639   C641    1.394   .     A
C640   H656    1.082   .     S
C640   C642    1.394   .     A
C640   C650    1.400   .     A
C641   C643    1.392   .     A
C642   C644    1.392   .     A
C643   C645    1.392   .     A
C643   H657    1.085   .     S
C644   H658    1.085   .     S
C644   C646    1.392   .     A
C645   C651    1.399   .     A
C645   C647    1.413   .     A
C646   C652    1.399   .     A
C646   C648    1.413   .     A
C647   C649    1.420   .     A
C647   C700    1.402   .     S
C648   C650    1.420   .     A
C648   C699    1.402   1_455 S
C649   C654    1.417   .     A
C650   C653    1.417   .     A
C651   H659    1.084   .     S
C651   C705    1.399   .     S
C652   H660    1.084   .     S
C652   C706    1.399   1_455 S
C653   N667    1.440   .     S
C653   C703    1.399   1_455 S
C654   N670    1.440   .     S
C654   C704    1.399   .     S
C661   C870    1.344   1_545 S
C661   O881    1.389   1_545 S
C662   C765    1.344   .     S
C662   O779    1.389   .     S
N664   N39     1.293   1_556 S
N664   H42     1.029   1_556 S
H665   N39     1.029   1_556 S
N667   O669    1.301   .     A
N667   O876    1.301   1_545 S
O668   N771    1.301   .     S
N670   O672    1.301   .     A
N670   O775    1.301   .     S
O671   N878    1.301   1_545 S
O673   C765    1.389   .     S
O673   H778    0.991   .     S
H674   O881    0.991   1_545 S
O675   C870    1.389   1_545 S
O675   H884    0.991   1_545 S
H676   O779    0.991   .     S
O677   C681    1.289   .     A
O677   Cu689   1.967   .     S
O678   C682    1.289   .     A
O678   Cu690   1.967   .     S
O679   Cu690   1.958   .     S
O679   C681    1.288   .     A
O680   C682    1.288   .     A
O680   Cu689   1.958   .     S
C681   C713    1.437   .     S
C682   C714    1.437   .     S
O683   C687    1.293   .     A
O683   Cu689   1.959   .     S
O684   C688    1.293   .     A
O684   Cu690   1.959   .     S
O685   Cu690   1.943   .     S
O685   C687    1.291   .     A
O686   C688    1.291   .     A
O686   Cu689   1.943   .     S
C687   C694    1.441   .     S
C688   C693    1.441   .     S
Cu689  Cu690   2.690   .     S
Cu689  N716    2.021   .     S
Cu690  N715    2.021   .     S
C691   H707    1.082   .     S
C691   C701    1.400   .     A
C691   C693    1.394   .     A
C692   H708    1.082   .     S
C692   C694    1.394   .     A
C692   C702    1.400   .     A
C693   C695    1.392   .     A
C694   C696    1.392   .     A
C695   C697    1.392   .     A
C695   H709    1.085   .     S
C696   H710    1.085   .     S
C696   C698    1.392   .     A
C697   C703    1.399   .     A
C697   C699    1.413   .     A
C698   C704    1.399   .     A
C698   C700    1.413   .     A
C699   C701    1.420   .     A
C699   C648    1.402   1_655 S
C700   C702    1.420   .     A
C701   C706    1.417   .     A
C702   C705    1.417   .     A
C703   H711    1.084   .     S
C703   C653    1.399   1_655 S
C704   H712    1.084   .     S
C705   N719    1.440   .     S
C706   N722    1.440   .     S
C706   C652    1.399   1_655 S
C713   C922    1.344   1_545 S
C713   O933    1.389   1_545 S
C714   C817    1.344   .     S
C714   O831    1.389   .     S
N716   N91     1.293   1_556 S
N716   H94     1.029   1_556 S
H717   N91     1.029   1_556 S
N719   O721    1.301   .     A
N719   O928    1.301   1_545 S
O720   N823    1.301   .     S
N722   O724    1.301   .     A
N722   O827    1.301   .     S
O723   N930    1.301   1_545 S
O725   C817    1.389   .     S
O725   H830    0.991   .     S
H726   O933    0.991   1_545 S
O727   C922    1.389   1_545 S
O727   H936    0.991   1_545 S
H728   O831    0.991   .     S
O729   C733    1.289   .     A
O729   Cu741   1.967   .     S
O730   C734    1.289   .     A
O730   Cu742   1.967   .     S
O731   Cu742   1.958   .     S
O731   C733    1.288   .     A
O732   C734    1.288   .     A
O732   Cu741   1.958   .     S
C733   C765    1.437   .     S
C734   C766    1.437   .     S
O735   C739    1.293   .     A
O735   Cu741   1.959   .     S
O736   C740    1.293   .     A
O736   Cu742   1.959   .     S
O737   Cu742   1.943   .     S
O737   C739    1.291   .     A
O738   C740    1.291   .     A
O738   Cu741   1.943   .     S
C739   C746    1.441   .     S
C740   C745    1.441   .     S
Cu741  Cu742   2.690   .     S
Cu741  N768    2.021   .     S
Cu742  N767    2.021   .     S
C743   H759    1.082   .     S
C743   C753    1.400   .     A
C743   C745    1.394   .     A
C744   H760    1.082   .     S
C744   C746    1.394   .     A
C744   C754    1.400   .     A
C745   C747    1.392   .     A
C746   C748    1.392   .     A
C747   C749    1.392   .     A
C747   H761    1.085   .     S
C748   H762    1.085   .     S
C748   C750    1.392   .     A
C749   C755    1.399   .     A
C749   C751    1.413   .     A
C750   C756    1.399   .     A
C750   C752    1.413   .     A
C751   C753    1.420   .     A
C751   C804    1.402   .     S
C752   C754    1.420   .     A
C752   C803    1.402   1_455 S
C753   C758    1.417   .     A
C754   C757    1.417   .     A
C755   H763    1.084   .     S
C755   C809    1.399   .     S
C756   H764    1.084   .     S
C756   C810    1.399   1_455 S
C757   N771    1.440   .     S
C757   C807    1.399   1_455 S
C758   N774    1.440   .     S
C758   C808    1.399   .     S
C766   C869    1.344   .     S
C766   O883    1.389   .     S
N768   N143    1.293   1_556 S
N768   H146    1.029   1_556 S
H769   N143    1.029   1_556 S
N771   O773    1.301   .     A
O772   N875    1.301   .     S
N774   O776    1.301   .     A
N774   O879    1.301   .     S
O777   C869    1.389   .     S
O777   H882    0.991   .     S
H780   O883    0.991   .     S
O781   C785    1.289   .     A
O781   Cu793   1.967   .     S
O782   C786    1.289   .     A
O782   Cu794   1.967   .     S
O783   Cu794   1.958   .     S
O783   C785    1.288   .     A
O784   C786    1.288   .     A
O784   Cu793   1.958   .     S
C785   C817    1.437   .     S
C786   C818    1.437   .     S
O787   C791    1.293   .     A
O787   Cu793   1.959   .     S
O788   C792    1.293   .     A
O788   Cu794   1.959   .     S
O789   Cu794   1.943   .     S
O789   C791    1.291   .     A
O790   C792    1.291   .     A
O790   Cu793   1.943   .     S
C791   C798    1.441   .     S
C792   C797    1.441   .     S
Cu793  Cu794   2.690   .     S
Cu793  N820    2.021   .     S
Cu794  N819    2.021   .     S
C795   H811    1.082   .     S
C795   C805    1.400   .     A
C795   C797    1.394   .     A
C796   H812    1.082   .     S
C796   C798    1.394   .     A
C796   C806    1.400   .     A
C797   C799    1.392   .     A
C798   C800    1.392   .     A
C799   C801    1.392   .     A
C799   H813    1.085   .     S
C800   H814    1.085   .     S
C800   C802    1.392   .     A
C801   C807    1.399   .     A
C801   C803    1.413   .     A
C802   C808    1.399   .     A
C802   C804    1.413   .     A
C803   C805    1.420   .     A
C803   C752    1.402   1_655 S
C804   C806    1.420   .     A
C805   C810    1.417   .     A
C806   C809    1.417   .     A
C807   H815    1.084   .     S
C807   C757    1.399   1_655 S
C808   H816    1.084   .     S
C809   N823    1.440   .     S
C810   N826    1.440   .     S
C810   C756    1.399   1_655 S
C818   C921    1.344   .     S
C818   O935    1.389   .     S
N820   N195    1.293   1_556 S
N820   H198    1.029   1_556 S
H821   N195    1.029   1_556 S
N823   O825    1.301   .     A
O824   N927    1.301   .     S
N826   O828    1.301   .     A
N826   O931    1.301   .     S
O829   C921    1.389   .     S
O829   H934    0.991   .     S
H832   O935    0.991   .     S
O833   C837    1.289   .     A
O833   Cu845   1.967   .     S
O834   C838    1.289   .     A
O834   Cu846   1.967   .     S
O835   Cu846   1.958   .     S
O835   C837    1.288   .     A
O836   C838    1.288   .     A
O836   Cu845   1.958   .     S
C837   C869    1.437   .     S
C838   C870    1.437   .     S
O839   C843    1.293   .     A
O839   Cu845   1.959   .     S
O840   C844    1.293   .     A
O840   Cu846   1.959   .     S
O841   Cu846   1.943   .     S
O841   C843    1.291   .     A
O842   C844    1.291   .     A
O842   Cu845   1.943   .     S
C843   C850    1.441   .     S
C844   C849    1.441   .     S
Cu845  Cu846   2.690   .     S
Cu845  N872    2.021   .     S
Cu846  N871    2.021   .     S
C847   H863    1.082   .     S
C847   C857    1.400   .     A
C847   C849    1.394   .     A
C848   H864    1.082   .     S
C848   C850    1.394   .     A
C848   C858    1.400   .     A
C849   C851    1.392   .     A
C850   C852    1.392   .     A
C851   C853    1.392   .     A
C851   H865    1.085   .     S
C852   H866    1.085   .     S
C852   C854    1.392   .     A
C853   C859    1.399   .     A
C853   C855    1.413   .     A
C854   C860    1.399   .     A
C854   C856    1.413   .     A
C855   C857    1.420   .     A
C855   C908    1.402   .     S
C856   C858    1.420   .     A
C856   C907    1.402   1_455 S
C857   C862    1.417   .     A
C858   C861    1.417   .     A
C859   H867    1.084   .     S
C859   C913    1.399   .     S
C860   H868    1.084   .     S
C860   C914    1.399   1_455 S
C861   N875    1.440   .     S
C861   C911    1.399   1_455 S
C862   N878    1.440   .     S
C862   C912    1.399   .     S
C870   C661    1.344   1_565 S
C870   O675    1.389   1_565 S
N872   N247    1.293   1_556 S
N872   H250    1.029   1_556 S
H873   N247    1.029   1_556 S
N875   O877    1.301   .     A
O876   N667    1.301   1_565 S
N878   O880    1.301   .     A
N878   O671    1.301   1_565 S
O881   C661    1.389   1_565 S
O881   H674    0.991   1_565 S
H884   O675    0.991   1_565 S
O885   C889    1.289   .     A
O885   Cu897   1.967   .     S
O886   C890    1.289   .     A
O886   Cu898   1.967   .     S
O887   Cu898   1.958   .     S
O887   C889    1.288   .     A
O888   C890    1.288   .     A
O888   Cu897   1.958   .     S
C889   C921    1.437   .     S
C890   C922    1.437   .     S
O891   C895    1.293   .     A
O891   Cu897   1.959   .     S
O892   C896    1.293   .     A
O892   Cu898   1.959   .     S
O893   Cu898   1.943   .     S
O893   C895    1.291   .     A
O894   C896    1.291   .     A
O894   Cu897   1.943   .     S
C895   C902    1.441   .     S
C896   C901    1.441   .     S
Cu897  Cu898   2.690   .     S
Cu897  N924    2.021   .     S
Cu898  N923    2.021   .     S
C899   H915    1.082   .     S
C899   C909    1.400   .     A
C899   C901    1.394   .     A
C900   H916    1.082   .     S
C900   C902    1.394   .     A
C900   C910    1.400   .     A
C901   C903    1.392   .     A
C902   C904    1.392   .     A
C903   C905    1.392   .     A
C903   H917    1.085   .     S
C904   H918    1.085   .     S
C904   C906    1.392   .     A
C905   C911    1.399   .     A
C905   C907    1.413   .     A
C906   C912    1.399   .     A
C906   C908    1.413   .     A
C907   C909    1.420   .     A
C907   C856    1.402   1_655 S
C908   C910    1.420   .     A
C909   C914    1.417   .     A
C910   C913    1.417   .     A
C911   H919    1.084   .     S
C911   C861    1.399   1_655 S
C912   H920    1.084   .     S
C913   N927    1.440   .     S
C914   N930    1.440   .     S
C914   C860    1.399   1_655 S
C922   C713    1.344   1_565 S
C922   O727    1.389   1_565 S
N924   N299    1.293   1_556 S
N924   H302    1.029   1_556 S
H925   N299    1.029   1_556 S
N927   O929    1.301   .     A
O928   N719    1.301   1_565 S
N930   O932    1.301   .     A
N930   O723    1.301   1_565 S
O933   C713    1.389   1_565 S
O933   H726    0.991   1_565 S
H936   O727    0.991   1_565 S
