data_str_m2_o1_o17_pcu_sym.202
_audit_creation_date              2020-01-03
_audit_creation_method            'Materials Studio'
_symmetry_space_group_name_H-M    'P1'
_symmetry_Int_Tables_number       1
_symmetry_cell_setting            triclinic
loop_
_symmetry_equiv_pos_as_xyz
  x,y,z
_cell_length_a                    32.9282
_cell_length_b                    28.4942
_cell_length_c                    30.0593
_cell_angle_alpha                 90.0752
_cell_angle_beta                  89.5622
_cell_angle_gamma                 90.4784
loop_
_atom_site_label
_atom_site_type_symbol
_atom_site_fract_x
_atom_site_fract_y
_atom_site_fract_z
_atom_site_U_iso_or_equiv
_atom_site_adp_type
_atom_site_occupancy
C1     C     0.08734   0.16644   0.24979   0.00000  Uiso   1.00
C2     C     0.24600   0.16690   0.25102   0.00000  Uiso   1.00
C3     C     0.09293   0.14907   0.02293   0.00000  Uiso   1.00
C4     C     0.24150   0.16229   0.47685   0.00000  Uiso   1.00
C5     C     0.02082   0.12521   0.26277   0.00000  Uiso   1.00
C6     C     0.31268   0.20861   0.24115   0.00000  Uiso   1.00
C7     C     0.31159   0.12588   0.26389   0.00000  Uiso   1.00
C8     C     0.02175   0.20728   0.23805   0.00000  Uiso   1.00
C9     C     0.29070   0.16741   0.25272   0.00000  Uiso   1.00
C10    C     0.04269   0.16611   0.25006   0.00000  Uiso   1.00
C11    C     0.18682   0.02498   0.21757   0.00000  Uiso   1.00
C12    C     0.14665   0.30835   0.28250   0.00000  Uiso   1.00
C13    C     0.14691   0.02463   0.28265   0.00000  Uiso   1.00
C14    C     0.18681   0.30866   0.21757   0.00000  Uiso   1.00
C15    C     0.16687   0.16654   0.16449   0.00000  Uiso   1.00
C16    C     0.16650   0.16678   0.33553   0.00000  Uiso   1.00
C17    C     0.20363   0.17183   0.40645   0.00000  Uiso   1.00
C18    C     0.13048   0.15225   0.09423   0.00000  Uiso   1.00
C19    C     0.16674   0.16677   0.38381   0.00000  Uiso   1.00
C20    C     0.16628   0.16557   0.11625   0.00000  Uiso   1.00
C21    C     0.12993   0.16215   0.40684   0.00000  Uiso   1.00
C22    C     0.20255   0.17302   0.09275   0.00000  Uiso   1.00
C23    C     0.13012   0.15444   0.45304   0.00000  Uiso   1.00
C24    C     0.20377   0.16384   0.04674   0.00000  Uiso   1.00
C25    C     0.16719   0.15889   0.47643   0.00000  Uiso   1.00
C26    C     0.16683   0.15843   0.02346   0.00000  Uiso   1.00
C27    C     0.20452   0.16506   0.45300   0.00000  Uiso   1.00
C28    C     0.12956   0.15362   0.04718   0.00000  Uiso   1.00
C29    C     0.09426   0.14374   0.47687   0.00000  Uiso   1.00
C30    C     0.24059   0.15886   0.02331   0.00000  Uiso   1.00
Cu31   Cu    0.16667   0.21355   0.25000   0.00000  Uiso   1.00
Cu32   Cu    0.16667   0.11978   0.25000   0.00000  Uiso   1.00
H33    H     0.20312   0.04381   0.19172   0.00000  Uiso   1.00
H34    H     0.13053   0.28953   0.30850   0.00000  Uiso   1.00
H35    H     0.13156   0.04313   0.30910   0.00000  Uiso   1.00
H36    H     0.20318   0.29007   0.19177   0.00000  Uiso   1.00
N37    N     0.16667   0.28402   0.25000   0.00000  Uiso   1.00
N38    N     0.16667   0.04931   0.25000   0.00000  Uiso   1.00
O39    O     0.10655   0.20625   0.25000   0.00000  Uiso   1.00
O40    O     0.22679   0.12709   0.25001   0.00000  Uiso   1.00
O41    O     0.22679   0.20625   0.25001   0.00000  Uiso   1.00
O42    O     0.10655   0.12709   0.25000   0.00000  Uiso   1.00
O43    O     0.16666   0.20627   0.18513   0.00000  Uiso   1.00
O44    O     0.16668   0.12707   0.31487   0.00000  Uiso   1.00
O45    O     0.16668   0.20627   0.31487   0.00000  Uiso   1.00
O46    O     0.16666   0.12707   0.18513   0.00000  Uiso   1.00
N47    N     0.23827   0.19014   0.38336   0.00000  Uiso   1.00
H48    H     0.24281   0.17694   0.35181   0.00000  Uiso   1.00
C49    C     0.24151   0.24084   0.38481   0.00000  Uiso   1.00
H50    H     0.27173   0.25197   0.37193   0.00000  Uiso   1.00
H51    H     0.23846   0.25386   0.41952   0.00000  Uiso   1.00
H52    H     0.21760   0.25696   0.36409   0.00000  Uiso   1.00
N53    N     0.09617   0.13613   0.11939   0.00000  Uiso   1.00
H54    H     0.09141   0.15288   0.14935   0.00000  Uiso   1.00
C55    C     0.09273   0.08557   0.12285   0.00000  Uiso   1.00
H56    H     0.06396   0.07619   0.14032   0.00000  Uiso   1.00
H57    H     0.11851   0.07117   0.14194   0.00000  Uiso   1.00
H58    H     0.09230   0.06926   0.08926   0.00000  Uiso   1.00
Br59   Br    0.08162   0.18353   0.37670   0.00000  Uiso   1.00
Br60   Br    0.24778   0.20220   0.12354   0.00000  Uiso   1.00
Br61   Br    0.04951   0.10972   0.45050   0.00000  Uiso   1.00
Br62   Br    0.28696   0.13095   0.05152   0.00000  Uiso   1.00
N63    N     0.05410   0.15601   0.04278   0.00000  Uiso   1.00
H64    H     0.04363   0.13021   0.06392   0.00000  Uiso   1.00
C65    C     0.04578   0.20391   0.05600   0.00000  Uiso   1.00
H66    H     0.06747   0.21596   0.08172   0.00000  Uiso   1.00
H67    H     0.01451   0.20638   0.06972   0.00000  Uiso   1.00
H68    H     0.04842   0.22760   0.02679   0.00000  Uiso   1.00
N69    N     0.27978   0.15765   0.45491   0.00000  Uiso   1.00
H70    H     0.28130   0.13699   0.42678   0.00000  Uiso   1.00
C71    C     0.30695   0.19790   0.45672   0.00000  Uiso   1.00
H72    H     0.00093   0.18866   0.47578   0.00000  Uiso   1.00
H73    H     0.29248   0.22857   0.47317   0.00000  Uiso   1.00
H74    H     0.31667   0.20806   0.42261   0.00000  Uiso   1.00
N75    N     0.04148   0.08293   0.27372   0.00000  Uiso   1.00
H76    H     0.03023   0.05286   0.25908   0.00000  Uiso   1.00
C77    C     0.05139   0.07729   0.32022   0.00000  Uiso   1.00
H78    H     0.02600   0.08832   0.34216   0.00000  Uiso   1.00
H79    H     0.07871   0.09845   0.32816   0.00000  Uiso   1.00
H80    H     0.05823   0.03993   0.32721   0.00000  Uiso   1.00
N81    N     0.29207   0.25082   0.23002   0.00000  Uiso   1.00
H82    H     0.30267   0.26759   0.20182   0.00000  Uiso   1.00
C83    C     0.28558   0.28253   0.26703   0.00000  Uiso   1.00
H84    H     0.31485   0.29692   0.27931   0.00000  Uiso   1.00
H85    H     0.26971   0.26421   0.29468   0.00000  Uiso   1.00
H86    H     0.26623   0.31196   0.25621   0.00000  Uiso   1.00
N87    N     0.28964   0.08441   0.27611   0.00000  Uiso   1.00
H88    H     0.29726   0.05383   0.25996   0.00000  Uiso   1.00
C89    C     0.27797   0.07942   0.32243   0.00000  Uiso   1.00
H90    H     0.29321   0.04848   0.33702   0.00000  Uiso   1.00
H91    H     0.24464   0.07379   0.32480   0.00000  Uiso   1.00
H92    H     0.28622   0.11103   0.34218   0.00000  Uiso   1.00
N93    N     0.04340   0.24708   0.22106   0.00000  Uiso   1.00
H94    H     0.03575   0.27931   0.23404   0.00000  Uiso   1.00
C95    C     0.05106   0.24708   0.17354   0.00000  Uiso   1.00
H96    H     0.03482   0.27659   0.15765   0.00000  Uiso   1.00
H97    H     0.04073   0.21381   0.15773   0.00000  Uiso   1.00
H98    H     0.08412   0.25157   0.16730   0.00000  Uiso   1.00
C99    C     0.42068   0.16644   0.24979   0.00000  Uiso   1.00
C100   C     0.57934   0.16690   0.25102   0.00000  Uiso   1.00
C101   C     0.42626   0.14907   0.02293   0.00000  Uiso   1.00
C102   C     0.57484   0.16229   0.47685   0.00000  Uiso   1.00
C103   C     0.35416   0.12521   0.26277   0.00000  Uiso   1.00
C104   C     0.64601   0.20861   0.24115   0.00000  Uiso   1.00
C105   C     0.64493   0.12588   0.26389   0.00000  Uiso   1.00
C106   C     0.35508   0.20728   0.23805   0.00000  Uiso   1.00
C107   C     0.62403   0.16741   0.25272   0.00000  Uiso   1.00
C108   C     0.37602   0.16611   0.25006   0.00000  Uiso   1.00
C109   C     0.52015   0.02498   0.21757   0.00000  Uiso   1.00
C110   C     0.47998   0.30835   0.28250   0.00000  Uiso   1.00
C111   C     0.48024   0.02463   0.28265   0.00000  Uiso   1.00
C112   C     0.52015   0.30866   0.21757   0.00000  Uiso   1.00
C113   C     0.50020   0.16654   0.16449   0.00000  Uiso   1.00
C114   C     0.49983   0.16678   0.33553   0.00000  Uiso   1.00
C115   C     0.53696   0.17183   0.40645   0.00000  Uiso   1.00
C116   C     0.46381   0.15225   0.09423   0.00000  Uiso   1.00
C117   C     0.50007   0.16677   0.38381   0.00000  Uiso   1.00
C118   C     0.49961   0.16557   0.11625   0.00000  Uiso   1.00
C119   C     0.46327   0.16215   0.40684   0.00000  Uiso   1.00
C120   C     0.53588   0.17302   0.09275   0.00000  Uiso   1.00
C121   C     0.46345   0.15444   0.45304   0.00000  Uiso   1.00
C122   C     0.53710   0.16384   0.04674   0.00000  Uiso   1.00
C123   C     0.50052   0.15889   0.47643   0.00000  Uiso   1.00
C124   C     0.50016   0.15843   0.02346   0.00000  Uiso   1.00
C125   C     0.53785   0.16506   0.45300   0.00000  Uiso   1.00
C126   C     0.46289   0.15362   0.04718   0.00000  Uiso   1.00
C127   C     0.42759   0.14374   0.47687   0.00000  Uiso   1.00
C128   C     0.57392   0.15886   0.02331   0.00000  Uiso   1.00
Cu129  Cu    0.50000   0.21355   0.25000   0.00000  Uiso   1.00
Cu130  Cu    0.50000   0.11978   0.25000   0.00000  Uiso   1.00
H131   H     0.53646   0.04381   0.19172   0.00000  Uiso   1.00
H132   H     0.46387   0.28953   0.30850   0.00000  Uiso   1.00
H133   H     0.46489   0.04313   0.30910   0.00000  Uiso   1.00
H134   H     0.53652   0.29007   0.19177   0.00000  Uiso   1.00
N135   N     0.50000   0.28402   0.25000   0.00000  Uiso   1.00
N136   N     0.50000   0.04931   0.25000   0.00000  Uiso   1.00
O137   O     0.43988   0.20625   0.25000   0.00000  Uiso   1.00
O138   O     0.56012   0.12709   0.25001   0.00000  Uiso   1.00
O139   O     0.56012   0.20625   0.25001   0.00000  Uiso   1.00
O140   O     0.43988   0.12709   0.25000   0.00000  Uiso   1.00
O141   O     0.49999   0.20627   0.18513   0.00000  Uiso   1.00
O142   O     0.50001   0.12707   0.31487   0.00000  Uiso   1.00
O143   O     0.50001   0.20627   0.31487   0.00000  Uiso   1.00
O144   O     0.49999   0.12707   0.18513   0.00000  Uiso   1.00
N145   N     0.57161   0.19014   0.38336   0.00000  Uiso   1.00
H146   H     0.57615   0.17694   0.35181   0.00000  Uiso   1.00
C147   C     0.57485   0.24084   0.38481   0.00000  Uiso   1.00
H148   H     0.60507   0.25197   0.37193   0.00000  Uiso   1.00
H149   H     0.57179   0.25386   0.41952   0.00000  Uiso   1.00
H150   H     0.55093   0.25696   0.36409   0.00000  Uiso   1.00
N151   N     0.42951   0.13613   0.11939   0.00000  Uiso   1.00
H152   H     0.42474   0.15288   0.14935   0.00000  Uiso   1.00
C153   C     0.42606   0.08557   0.12285   0.00000  Uiso   1.00
H154   H     0.39729   0.07619   0.14032   0.00000  Uiso   1.00
H155   H     0.45185   0.07117   0.14194   0.00000  Uiso   1.00
H156   H     0.42563   0.06926   0.08926   0.00000  Uiso   1.00
Br157  Br    0.41496   0.18353   0.37670   0.00000  Uiso   1.00
Br158  Br    0.58111   0.20220   0.12354   0.00000  Uiso   1.00
Br159  Br    0.38284   0.10972   0.45050   0.00000  Uiso   1.00
Br160  Br    0.62029   0.13095   0.05152   0.00000  Uiso   1.00
N161   N     0.38743   0.15601   0.04278   0.00000  Uiso   1.00
H162   H     0.37697   0.13021   0.06392   0.00000  Uiso   1.00
C163   C     0.37912   0.20391   0.05600   0.00000  Uiso   1.00
H164   H     0.40081   0.21596   0.08172   0.00000  Uiso   1.00
H165   H     0.34784   0.20638   0.06972   0.00000  Uiso   1.00
H166   H     0.38175   0.22760   0.02679   0.00000  Uiso   1.00
N167   N     0.61311   0.15765   0.45491   0.00000  Uiso   1.00
H168   H     0.61464   0.13699   0.42678   0.00000  Uiso   1.00
C169   C     0.64028   0.19790   0.45672   0.00000  Uiso   1.00
H170   H     0.33426   0.18866   0.47578   0.00000  Uiso   1.00
H171   H     0.62582   0.22857   0.47317   0.00000  Uiso   1.00
H172   H     0.65000   0.20806   0.42261   0.00000  Uiso   1.00
N173   N     0.37481   0.08293   0.27372   0.00000  Uiso   1.00
H174   H     0.36357   0.05286   0.25908   0.00000  Uiso   1.00
C175   C     0.38473   0.07729   0.32022   0.00000  Uiso   1.00
H176   H     0.35933   0.08832   0.34216   0.00000  Uiso   1.00
H177   H     0.41204   0.09845   0.32816   0.00000  Uiso   1.00
H178   H     0.39156   0.03993   0.32721   0.00000  Uiso   1.00
N179   N     0.62540   0.25082   0.23002   0.00000  Uiso   1.00
H180   H     0.63600   0.26759   0.20182   0.00000  Uiso   1.00
C181   C     0.61892   0.28253   0.26703   0.00000  Uiso   1.00
H182   H     0.64818   0.29692   0.27931   0.00000  Uiso   1.00
H183   H     0.60305   0.26421   0.29468   0.00000  Uiso   1.00
H184   H     0.59956   0.31196   0.25621   0.00000  Uiso   1.00
N185   N     0.62298   0.08441   0.27611   0.00000  Uiso   1.00
H186   H     0.63059   0.05383   0.25996   0.00000  Uiso   1.00
C187   C     0.61130   0.07942   0.32243   0.00000  Uiso   1.00
H188   H     0.62655   0.04848   0.33702   0.00000  Uiso   1.00
H189   H     0.57797   0.07379   0.32480   0.00000  Uiso   1.00
H190   H     0.61956   0.11103   0.34218   0.00000  Uiso   1.00
N191   N     0.37673   0.24708   0.22106   0.00000  Uiso   1.00
H192   H     0.36908   0.27931   0.23404   0.00000  Uiso   1.00
C193   C     0.38439   0.24708   0.17354   0.00000  Uiso   1.00
H194   H     0.36815   0.27659   0.15765   0.00000  Uiso   1.00
H195   H     0.37407   0.21381   0.15773   0.00000  Uiso   1.00
H196   H     0.41746   0.25157   0.16730   0.00000  Uiso   1.00
C197   C     0.75401   0.16644   0.24979   0.00000  Uiso   1.00
C198   C     0.91267   0.16690   0.25102   0.00000  Uiso   1.00
C199   C     0.75960   0.14907   0.02293   0.00000  Uiso   1.00
C200   C     0.90817   0.16229   0.47685   0.00000  Uiso   1.00
C201   C     0.68749   0.12521   0.26277   0.00000  Uiso   1.00
C202   C     0.97935   0.20861   0.24115   0.00000  Uiso   1.00
C203   C     0.97826   0.12588   0.26389   0.00000  Uiso   1.00
C204   C     0.68841   0.20728   0.23805   0.00000  Uiso   1.00
C205   C     0.95736   0.16741   0.25272   0.00000  Uiso   1.00
C206   C     0.70935   0.16611   0.25006   0.00000  Uiso   1.00
C207   C     0.85348   0.02498   0.21757   0.00000  Uiso   1.00
C208   C     0.81332   0.30835   0.28250   0.00000  Uiso   1.00
C209   C     0.81358   0.02463   0.28265   0.00000  Uiso   1.00
C210   C     0.85348   0.30866   0.21757   0.00000  Uiso   1.00
C211   C     0.83354   0.16654   0.16449   0.00000  Uiso   1.00
C212   C     0.83317   0.16678   0.33553   0.00000  Uiso   1.00
C213   C     0.87029   0.17183   0.40645   0.00000  Uiso   1.00
C214   C     0.79714   0.15225   0.09423   0.00000  Uiso   1.00
C215   C     0.83340   0.16677   0.38381   0.00000  Uiso   1.00
C216   C     0.83294   0.16557   0.11625   0.00000  Uiso   1.00
C217   C     0.79660   0.16215   0.40684   0.00000  Uiso   1.00
C218   C     0.86922   0.17302   0.09275   0.00000  Uiso   1.00
C219   C     0.79678   0.15444   0.45304   0.00000  Uiso   1.00
C220   C     0.87044   0.16384   0.04674   0.00000  Uiso   1.00
C221   C     0.83385   0.15889   0.47643   0.00000  Uiso   1.00
C222   C     0.83350   0.15843   0.02346   0.00000  Uiso   1.00
C223   C     0.87119   0.16506   0.45300   0.00000  Uiso   1.00
C224   C     0.79623   0.15362   0.04718   0.00000  Uiso   1.00
C225   C     0.76092   0.14374   0.47687   0.00000  Uiso   1.00
C226   C     0.90725   0.15886   0.02331   0.00000  Uiso   1.00
Cu227  Cu    0.83333   0.21355   0.25000   0.00000  Uiso   1.00
Cu228  Cu    0.83333   0.11978   0.25000   0.00000  Uiso   1.00
H229   H     0.86979   0.04381   0.19172   0.00000  Uiso   1.00
H230   H     0.79720   0.28953   0.30850   0.00000  Uiso   1.00
H231   H     0.79823   0.04313   0.30910   0.00000  Uiso   1.00
H232   H     0.86985   0.29007   0.19177   0.00000  Uiso   1.00
N233   N     0.83333   0.28402   0.25000   0.00000  Uiso   1.00
N234   N     0.83333   0.04931   0.25000   0.00000  Uiso   1.00
O235   O     0.77321   0.20625   0.25000   0.00000  Uiso   1.00
O236   O     0.89345   0.12709   0.25001   0.00000  Uiso   1.00
O237   O     0.89345   0.20625   0.25001   0.00000  Uiso   1.00
O238   O     0.77321   0.12709   0.25000   0.00000  Uiso   1.00
O239   O     0.83332   0.20627   0.18513   0.00000  Uiso   1.00
O240   O     0.83334   0.12707   0.31487   0.00000  Uiso   1.00
O241   O     0.83334   0.20627   0.31487   0.00000  Uiso   1.00
O242   O     0.83332   0.12707   0.18513   0.00000  Uiso   1.00
N243   N     0.90494   0.19014   0.38336   0.00000  Uiso   1.00
H244   H     0.90948   0.17694   0.35181   0.00000  Uiso   1.00
C245   C     0.90818   0.24084   0.38481   0.00000  Uiso   1.00
H246   H     0.93840   0.25197   0.37193   0.00000  Uiso   1.00
H247   H     0.90512   0.25386   0.41952   0.00000  Uiso   1.00
H248   H     0.88426   0.25696   0.36409   0.00000  Uiso   1.00
N249   N     0.76284   0.13613   0.11939   0.00000  Uiso   1.00
H250   H     0.75808   0.15288   0.14935   0.00000  Uiso   1.00
C251   C     0.75939   0.08557   0.12285   0.00000  Uiso   1.00
H252   H     0.73062   0.07619   0.14032   0.00000  Uiso   1.00
H253   H     0.78518   0.07117   0.14194   0.00000  Uiso   1.00
H254   H     0.75897   0.06926   0.08926   0.00000  Uiso   1.00
Br255  Br    0.74829   0.18353   0.37670   0.00000  Uiso   1.00
Br256  Br    0.91444   0.20220   0.12354   0.00000  Uiso   1.00
Br257  Br    0.71618   0.10972   0.45050   0.00000  Uiso   1.00
Br258  Br    0.95362   0.13095   0.05152   0.00000  Uiso   1.00
N259   N     0.72076   0.15601   0.04278   0.00000  Uiso   1.00
H260   H     0.71030   0.13021   0.06392   0.00000  Uiso   1.00
C261   C     0.71245   0.20391   0.05600   0.00000  Uiso   1.00
H262   H     0.73414   0.21596   0.08172   0.00000  Uiso   1.00
H263   H     0.68117   0.20638   0.06972   0.00000  Uiso   1.00
H264   H     0.71509   0.22760   0.02679   0.00000  Uiso   1.00
N265   N     0.94644   0.15765   0.45491   0.00000  Uiso   1.00
H266   H     0.94797   0.13699   0.42678   0.00000  Uiso   1.00
C267   C     0.97361   0.19790   0.45672   0.00000  Uiso   1.00
H268   H     0.66760   0.18866   0.47578   0.00000  Uiso   1.00
H269   H     0.95915   0.22857   0.47317   0.00000  Uiso   1.00
H270   H     0.98334   0.20806   0.42261   0.00000  Uiso   1.00
N271   N     0.70815   0.08293   0.27372   0.00000  Uiso   1.00
H272   H     0.69690   0.05286   0.25908   0.00000  Uiso   1.00
C273   C     0.71806   0.07729   0.32022   0.00000  Uiso   1.00
H274   H     0.69266   0.08832   0.34216   0.00000  Uiso   1.00
H275   H     0.74537   0.09845   0.32816   0.00000  Uiso   1.00
H276   H     0.72489   0.03993   0.32721   0.00000  Uiso   1.00
N277   N     0.95873   0.25082   0.23002   0.00000  Uiso   1.00
H278   H     0.96933   0.26759   0.20182   0.00000  Uiso   1.00
C279   C     0.95225   0.28253   0.26703   0.00000  Uiso   1.00
H280   H     0.98152   0.29692   0.27931   0.00000  Uiso   1.00
H281   H     0.93638   0.26421   0.29468   0.00000  Uiso   1.00
H282   H     0.93290   0.31196   0.25621   0.00000  Uiso   1.00
N283   N     0.95631   0.08441   0.27611   0.00000  Uiso   1.00
H284   H     0.96392   0.05383   0.25996   0.00000  Uiso   1.00
C285   C     0.94463   0.07942   0.32243   0.00000  Uiso   1.00
H286   H     0.95988   0.04848   0.33702   0.00000  Uiso   1.00
H287   H     0.91130   0.07379   0.32480   0.00000  Uiso   1.00
H288   H     0.95289   0.11103   0.34218   0.00000  Uiso   1.00
N289   N     0.71007   0.24708   0.22106   0.00000  Uiso   1.00
H290   H     0.70242   0.27931   0.23404   0.00000  Uiso   1.00
C291   C     0.71773   0.24708   0.17354   0.00000  Uiso   1.00
H292   H     0.70149   0.27659   0.15765   0.00000  Uiso   1.00
H293   H     0.70740   0.21381   0.15773   0.00000  Uiso   1.00
H294   H     0.75079   0.25157   0.16730   0.00000  Uiso   1.00
C295   C     0.08734   0.49977   0.24979   0.00000  Uiso   1.00
C296   C     0.24600   0.50023   0.25102   0.00000  Uiso   1.00
C297   C     0.09293   0.48240   0.02293   0.00000  Uiso   1.00
C298   C     0.24150   0.49563   0.47685   0.00000  Uiso   1.00
C299   C     0.02082   0.45855   0.26277   0.00000  Uiso   1.00
C300   C     0.31268   0.54194   0.24115   0.00000  Uiso   1.00
C301   C     0.31159   0.45922   0.26389   0.00000  Uiso   1.00
C302   C     0.02175   0.54061   0.23805   0.00000  Uiso   1.00
C303   C     0.29070   0.50074   0.25272   0.00000  Uiso   1.00
C304   C     0.04269   0.49945   0.25006   0.00000  Uiso   1.00
C305   C     0.18682   0.35831   0.21757   0.00000  Uiso   1.00
C306   C     0.14665   0.64168   0.28250   0.00000  Uiso   1.00
C307   C     0.14691   0.35796   0.28265   0.00000  Uiso   1.00
C308   C     0.18681   0.64199   0.21757   0.00000  Uiso   1.00
C309   C     0.16687   0.49988   0.16449   0.00000  Uiso   1.00
C310   C     0.16650   0.50011   0.33553   0.00000  Uiso   1.00
C311   C     0.20363   0.50517   0.40645   0.00000  Uiso   1.00
C312   C     0.13048   0.48558   0.09423   0.00000  Uiso   1.00
C313   C     0.16674   0.50010   0.38381   0.00000  Uiso   1.00
C314   C     0.16628   0.49890   0.11625   0.00000  Uiso   1.00
C315   C     0.12993   0.49549   0.40684   0.00000  Uiso   1.00
C316   C     0.20255   0.50636   0.09275   0.00000  Uiso   1.00
C317   C     0.13012   0.48777   0.45304   0.00000  Uiso   1.00
C318   C     0.20377   0.49717   0.04674   0.00000  Uiso   1.00
C319   C     0.16719   0.49223   0.47643   0.00000  Uiso   1.00
C320   C     0.16683   0.49176   0.02346   0.00000  Uiso   1.00
C321   C     0.20452   0.49839   0.45300   0.00000  Uiso   1.00
C322   C     0.12956   0.48695   0.04718   0.00000  Uiso   1.00
C323   C     0.09426   0.47708   0.47687   0.00000  Uiso   1.00
C324   C     0.24059   0.49219   0.02331   0.00000  Uiso   1.00
Cu325  Cu    0.16667   0.54689   0.25000   0.00000  Uiso   1.00
Cu326  Cu    0.16667   0.45311   0.25000   0.00000  Uiso   1.00
H327   H     0.20312   0.37714   0.19172   0.00000  Uiso   1.00
H328   H     0.13053   0.62286   0.30850   0.00000  Uiso   1.00
H329   H     0.13156   0.37646   0.30910   0.00000  Uiso   1.00
H330   H     0.20318   0.62341   0.19177   0.00000  Uiso   1.00
N331   N     0.16667   0.61736   0.25000   0.00000  Uiso   1.00
N332   N     0.16667   0.38264   0.25000   0.00000  Uiso   1.00
O333   O     0.10655   0.53958   0.25000   0.00000  Uiso   1.00
O334   O     0.22679   0.46042   0.25001   0.00000  Uiso   1.00
O335   O     0.22679   0.53958   0.25001   0.00000  Uiso   1.00
O336   O     0.10655   0.46042   0.25000   0.00000  Uiso   1.00
O337   O     0.16666   0.53960   0.18513   0.00000  Uiso   1.00
O338   O     0.16668   0.46040   0.31487   0.00000  Uiso   1.00
O339   O     0.16668   0.53960   0.31487   0.00000  Uiso   1.00
O340   O     0.16666   0.46040   0.18513   0.00000  Uiso   1.00
N341   N     0.23827   0.52348   0.38336   0.00000  Uiso   1.00
H342   H     0.24281   0.51028   0.35181   0.00000  Uiso   1.00
C343   C     0.24151   0.57417   0.38481   0.00000  Uiso   1.00
H344   H     0.27173   0.58530   0.37193   0.00000  Uiso   1.00
H345   H     0.23846   0.58719   0.41952   0.00000  Uiso   1.00
H346   H     0.21760   0.59029   0.36409   0.00000  Uiso   1.00
N347   N     0.09617   0.46947   0.11939   0.00000  Uiso   1.00
H348   H     0.09141   0.48621   0.14935   0.00000  Uiso   1.00
C349   C     0.09273   0.41890   0.12285   0.00000  Uiso   1.00
H350   H     0.06396   0.40952   0.14032   0.00000  Uiso   1.00
H351   H     0.11851   0.40451   0.14194   0.00000  Uiso   1.00
H352   H     0.09230   0.40259   0.08926   0.00000  Uiso   1.00
Br353  Br    0.08162   0.51686   0.37670   0.00000  Uiso   1.00
Br354  Br    0.24778   0.53553   0.12354   0.00000  Uiso   1.00
Br355  Br    0.04951   0.44305   0.45050   0.00000  Uiso   1.00
Br356  Br    0.28696   0.46428   0.05152   0.00000  Uiso   1.00
N357   N     0.05410   0.48934   0.04278   0.00000  Uiso   1.00
H358   H     0.04363   0.46354   0.06392   0.00000  Uiso   1.00
C359   C     0.04578   0.53724   0.05600   0.00000  Uiso   1.00
H360   H     0.06747   0.54929   0.08172   0.00000  Uiso   1.00
H361   H     0.01451   0.53972   0.06972   0.00000  Uiso   1.00
H362   H     0.04842   0.56093   0.02679   0.00000  Uiso   1.00
N363   N     0.27978   0.49098   0.45491   0.00000  Uiso   1.00
H364   H     0.28130   0.47033   0.42678   0.00000  Uiso   1.00
C365   C     0.30695   0.53124   0.45672   0.00000  Uiso   1.00
H366   H     0.00093   0.52199   0.47578   0.00000  Uiso   1.00
H367   H     0.29248   0.56191   0.47317   0.00000  Uiso   1.00
H368   H     0.31667   0.54139   0.42261   0.00000  Uiso   1.00
N369   N     0.04148   0.41627   0.27372   0.00000  Uiso   1.00
H370   H     0.03023   0.38620   0.25908   0.00000  Uiso   1.00
C371   C     0.05139   0.41063   0.32022   0.00000  Uiso   1.00
H372   H     0.02600   0.42166   0.34216   0.00000  Uiso   1.00
H373   H     0.07871   0.43178   0.32816   0.00000  Uiso   1.00
H374   H     0.05823   0.37326   0.32721   0.00000  Uiso   1.00
N375   N     0.29207   0.58415   0.23002   0.00000  Uiso   1.00
H376   H     0.30267   0.60092   0.20182   0.00000  Uiso   1.00
C377   C     0.28558   0.61586   0.26703   0.00000  Uiso   1.00
H378   H     0.31485   0.63025   0.27931   0.00000  Uiso   1.00
H379   H     0.26971   0.59755   0.29468   0.00000  Uiso   1.00
H380   H     0.26623   0.64530   0.25621   0.00000  Uiso   1.00
N381   N     0.28964   0.41774   0.27611   0.00000  Uiso   1.00
H382   H     0.29726   0.38716   0.25996   0.00000  Uiso   1.00
C383   C     0.27797   0.41276   0.32243   0.00000  Uiso   1.00
H384   H     0.29321   0.38181   0.33702   0.00000  Uiso   1.00
H385   H     0.24464   0.40713   0.32480   0.00000  Uiso   1.00
H386   H     0.28622   0.44436   0.34218   0.00000  Uiso   1.00
N387   N     0.04340   0.58041   0.22106   0.00000  Uiso   1.00
H388   H     0.03575   0.61265   0.23404   0.00000  Uiso   1.00
C389   C     0.05106   0.58041   0.17354   0.00000  Uiso   1.00
H390   H     0.03482   0.60993   0.15765   0.00000  Uiso   1.00
H391   H     0.04073   0.54714   0.15773   0.00000  Uiso   1.00
H392   H     0.08412   0.58490   0.16730   0.00000  Uiso   1.00
C393   C     0.42068   0.49977   0.24979   0.00000  Uiso   1.00
C394   C     0.57934   0.50023   0.25102   0.00000  Uiso   1.00
C395   C     0.42626   0.48240   0.02293   0.00000  Uiso   1.00
C396   C     0.57484   0.49563   0.47685   0.00000  Uiso   1.00
C397   C     0.35416   0.45855   0.26277   0.00000  Uiso   1.00
C398   C     0.64601   0.54194   0.24115   0.00000  Uiso   1.00
C399   C     0.64493   0.45922   0.26389   0.00000  Uiso   1.00
C400   C     0.35508   0.54061   0.23805   0.00000  Uiso   1.00
C401   C     0.62403   0.50074   0.25272   0.00000  Uiso   1.00
C402   C     0.37602   0.49945   0.25006   0.00000  Uiso   1.00
C403   C     0.52015   0.35831   0.21757   0.00000  Uiso   1.00
C404   C     0.47998   0.64168   0.28250   0.00000  Uiso   1.00
C405   C     0.48024   0.35796   0.28265   0.00000  Uiso   1.00
C406   C     0.52015   0.64199   0.21757   0.00000  Uiso   1.00
C407   C     0.50020   0.49988   0.16449   0.00000  Uiso   1.00
C408   C     0.49983   0.50011   0.33553   0.00000  Uiso   1.00
C409   C     0.53696   0.50517   0.40645   0.00000  Uiso   1.00
C410   C     0.46381   0.48558   0.09423   0.00000  Uiso   1.00
C411   C     0.50007   0.50010   0.38381   0.00000  Uiso   1.00
C412   C     0.49961   0.49890   0.11625   0.00000  Uiso   1.00
C413   C     0.46327   0.49549   0.40684   0.00000  Uiso   1.00
C414   C     0.53588   0.50636   0.09275   0.00000  Uiso   1.00
C415   C     0.46345   0.48777   0.45304   0.00000  Uiso   1.00
C416   C     0.53710   0.49717   0.04674   0.00000  Uiso   1.00
C417   C     0.50052   0.49223   0.47643   0.00000  Uiso   1.00
C418   C     0.50016   0.49176   0.02346   0.00000  Uiso   1.00
C419   C     0.53785   0.49839   0.45300   0.00000  Uiso   1.00
C420   C     0.46289   0.48695   0.04718   0.00000  Uiso   1.00
C421   C     0.42759   0.47708   0.47687   0.00000  Uiso   1.00
C422   C     0.57392   0.49219   0.02331   0.00000  Uiso   1.00
Cu423  Cu    0.50000   0.54689   0.25000   0.00000  Uiso   1.00
Cu424  Cu    0.50000   0.45311   0.25000   0.00000  Uiso   1.00
H425   H     0.53646   0.37714   0.19172   0.00000  Uiso   1.00
H426   H     0.46387   0.62286   0.30850   0.00000  Uiso   1.00
H427   H     0.46489   0.37646   0.30910   0.00000  Uiso   1.00
H428   H     0.53652   0.62341   0.19177   0.00000  Uiso   1.00
N429   N     0.50000   0.61736   0.25000   0.00000  Uiso   1.00
N430   N     0.50000   0.38264   0.25000   0.00000  Uiso   1.00
O431   O     0.43988   0.53958   0.25000   0.00000  Uiso   1.00
O432   O     0.56012   0.46042   0.25001   0.00000  Uiso   1.00
O433   O     0.56012   0.53958   0.25001   0.00000  Uiso   1.00
O434   O     0.43988   0.46042   0.25000   0.00000  Uiso   1.00
O435   O     0.49999   0.53960   0.18513   0.00000  Uiso   1.00
O436   O     0.50001   0.46040   0.31487   0.00000  Uiso   1.00
O437   O     0.50001   0.53960   0.31487   0.00000  Uiso   1.00
O438   O     0.49999   0.46040   0.18513   0.00000  Uiso   1.00
N439   N     0.57161   0.52348   0.38336   0.00000  Uiso   1.00
H440   H     0.57615   0.51028   0.35181   0.00000  Uiso   1.00
C441   C     0.57485   0.57417   0.38481   0.00000  Uiso   1.00
H442   H     0.60507   0.58530   0.37193   0.00000  Uiso   1.00
H443   H     0.57179   0.58719   0.41952   0.00000  Uiso   1.00
H444   H     0.55093   0.59029   0.36409   0.00000  Uiso   1.00
N445   N     0.42951   0.46947   0.11939   0.00000  Uiso   1.00
H446   H     0.42474   0.48621   0.14935   0.00000  Uiso   1.00
C447   C     0.42606   0.41890   0.12285   0.00000  Uiso   1.00
H448   H     0.39729   0.40952   0.14032   0.00000  Uiso   1.00
H449   H     0.45185   0.40451   0.14194   0.00000  Uiso   1.00
H450   H     0.42563   0.40259   0.08926   0.00000  Uiso   1.00
Br451  Br    0.41496   0.51686   0.37670   0.00000  Uiso   1.00
Br452  Br    0.58111   0.53553   0.12354   0.00000  Uiso   1.00
Br453  Br    0.38284   0.44305   0.45050   0.00000  Uiso   1.00
Br454  Br    0.62029   0.46428   0.05152   0.00000  Uiso   1.00
N455   N     0.38743   0.48934   0.04278   0.00000  Uiso   1.00
H456   H     0.37697   0.46354   0.06392   0.00000  Uiso   1.00
C457   C     0.37912   0.53724   0.05600   0.00000  Uiso   1.00
H458   H     0.40081   0.54929   0.08172   0.00000  Uiso   1.00
H459   H     0.34784   0.53972   0.06972   0.00000  Uiso   1.00
H460   H     0.38175   0.56093   0.02679   0.00000  Uiso   1.00
N461   N     0.61311   0.49098   0.45491   0.00000  Uiso   1.00
H462   H     0.61464   0.47033   0.42678   0.00000  Uiso   1.00
C463   C     0.64028   0.53124   0.45672   0.00000  Uiso   1.00
H464   H     0.33426   0.52199   0.47578   0.00000  Uiso   1.00
H465   H     0.62582   0.56191   0.47317   0.00000  Uiso   1.00
H466   H     0.65000   0.54139   0.42261   0.00000  Uiso   1.00
N467   N     0.37481   0.41627   0.27372   0.00000  Uiso   1.00
H468   H     0.36357   0.38620   0.25908   0.00000  Uiso   1.00
C469   C     0.38473   0.41063   0.32022   0.00000  Uiso   1.00
H470   H     0.35933   0.42166   0.34216   0.00000  Uiso   1.00
H471   H     0.41204   0.43178   0.32816   0.00000  Uiso   1.00
H472   H     0.39156   0.37326   0.32721   0.00000  Uiso   1.00
N473   N     0.62540   0.58415   0.23002   0.00000  Uiso   1.00
H474   H     0.63600   0.60092   0.20182   0.00000  Uiso   1.00
C475   C     0.61892   0.61586   0.26703   0.00000  Uiso   1.00
H476   H     0.64818   0.63025   0.27931   0.00000  Uiso   1.00
H477   H     0.60305   0.59755   0.29468   0.00000  Uiso   1.00
H478   H     0.59956   0.64530   0.25621   0.00000  Uiso   1.00
N479   N     0.62298   0.41774   0.27611   0.00000  Uiso   1.00
H480   H     0.63059   0.38716   0.25996   0.00000  Uiso   1.00
C481   C     0.61130   0.41276   0.32243   0.00000  Uiso   1.00
H482   H     0.62655   0.38181   0.33702   0.00000  Uiso   1.00
H483   H     0.57797   0.40713   0.32480   0.00000  Uiso   1.00
H484   H     0.61956   0.44436   0.34218   0.00000  Uiso   1.00
N485   N     0.37673   0.58041   0.22106   0.00000  Uiso   1.00
H486   H     0.36908   0.61265   0.23404   0.00000  Uiso   1.00
C487   C     0.38439   0.58041   0.17354   0.00000  Uiso   1.00
H488   H     0.36815   0.60993   0.15765   0.00000  Uiso   1.00
H489   H     0.37407   0.54714   0.15773   0.00000  Uiso   1.00
H490   H     0.41746   0.58490   0.16730   0.00000  Uiso   1.00
C491   C     0.75401   0.49977   0.24979   0.00000  Uiso   1.00
C492   C     0.91267   0.50023   0.25102   0.00000  Uiso   1.00
C493   C     0.75960   0.48240   0.02293   0.00000  Uiso   1.00
C494   C     0.90817   0.49563   0.47685   0.00000  Uiso   1.00
C495   C     0.68749   0.45855   0.26277   0.00000  Uiso   1.00
C496   C     0.97935   0.54194   0.24115   0.00000  Uiso   1.00
C497   C     0.97826   0.45922   0.26389   0.00000  Uiso   1.00
C498   C     0.68841   0.54061   0.23805   0.00000  Uiso   1.00
C499   C     0.95736   0.50074   0.25272   0.00000  Uiso   1.00
C500   C     0.70935   0.49945   0.25006   0.00000  Uiso   1.00
C501   C     0.85348   0.35831   0.21757   0.00000  Uiso   1.00
C502   C     0.81332   0.64168   0.28250   0.00000  Uiso   1.00
C503   C     0.81358   0.35796   0.28265   0.00000  Uiso   1.00
C504   C     0.85348   0.64199   0.21757   0.00000  Uiso   1.00
C505   C     0.83354   0.49988   0.16449   0.00000  Uiso   1.00
C506   C     0.83317   0.50011   0.33553   0.00000  Uiso   1.00
C507   C     0.87029   0.50517   0.40645   0.00000  Uiso   1.00
C508   C     0.79714   0.48558   0.09423   0.00000  Uiso   1.00
C509   C     0.83340   0.50010   0.38381   0.00000  Uiso   1.00
C510   C     0.83294   0.49890   0.11625   0.00000  Uiso   1.00
C511   C     0.79660   0.49549   0.40684   0.00000  Uiso   1.00
C512   C     0.86922   0.50636   0.09275   0.00000  Uiso   1.00
C513   C     0.79678   0.48777   0.45304   0.00000  Uiso   1.00
C514   C     0.87044   0.49717   0.04674   0.00000  Uiso   1.00
C515   C     0.83385   0.49223   0.47643   0.00000  Uiso   1.00
C516   C     0.83350   0.49176   0.02346   0.00000  Uiso   1.00
C517   C     0.87119   0.49839   0.45300   0.00000  Uiso   1.00
C518   C     0.79623   0.48695   0.04718   0.00000  Uiso   1.00
C519   C     0.76092   0.47708   0.47687   0.00000  Uiso   1.00
C520   C     0.90725   0.49219   0.02331   0.00000  Uiso   1.00
Cu521  Cu    0.83333   0.54689   0.25000   0.00000  Uiso   1.00
Cu522  Cu    0.83333   0.45311   0.25000   0.00000  Uiso   1.00
H523   H     0.86979   0.37714   0.19172   0.00000  Uiso   1.00
H524   H     0.79720   0.62286   0.30850   0.00000  Uiso   1.00
H525   H     0.79823   0.37646   0.30910   0.00000  Uiso   1.00
H526   H     0.86985   0.62341   0.19177   0.00000  Uiso   1.00
N527   N     0.83333   0.61736   0.25000   0.00000  Uiso   1.00
N528   N     0.83333   0.38264   0.25000   0.00000  Uiso   1.00
O529   O     0.77321   0.53958   0.25000   0.00000  Uiso   1.00
O530   O     0.89345   0.46042   0.25001   0.00000  Uiso   1.00
O531   O     0.89345   0.53958   0.25001   0.00000  Uiso   1.00
O532   O     0.77321   0.46042   0.25000   0.00000  Uiso   1.00
O533   O     0.83332   0.53960   0.18513   0.00000  Uiso   1.00
O534   O     0.83334   0.46040   0.31487   0.00000  Uiso   1.00
O535   O     0.83334   0.53960   0.31487   0.00000  Uiso   1.00
O536   O     0.83332   0.46040   0.18513   0.00000  Uiso   1.00
N537   N     0.90494   0.52348   0.38336   0.00000  Uiso   1.00
H538   H     0.90948   0.51028   0.35181   0.00000  Uiso   1.00
C539   C     0.90818   0.57417   0.38481   0.00000  Uiso   1.00
H540   H     0.93840   0.58530   0.37193   0.00000  Uiso   1.00
H541   H     0.90512   0.58719   0.41952   0.00000  Uiso   1.00
H542   H     0.88426   0.59029   0.36409   0.00000  Uiso   1.00
N543   N     0.76284   0.46947   0.11939   0.00000  Uiso   1.00
H544   H     0.75808   0.48621   0.14935   0.00000  Uiso   1.00
C545   C     0.75939   0.41890   0.12285   0.00000  Uiso   1.00
H546   H     0.73062   0.40952   0.14032   0.00000  Uiso   1.00
H547   H     0.78518   0.40451   0.14194   0.00000  Uiso   1.00
H548   H     0.75897   0.40259   0.08926   0.00000  Uiso   1.00
Br549  Br    0.74829   0.51686   0.37670   0.00000  Uiso   1.00
Br550  Br    0.91444   0.53553   0.12354   0.00000  Uiso   1.00
Br551  Br    0.71618   0.44305   0.45050   0.00000  Uiso   1.00
Br552  Br    0.95362   0.46428   0.05152   0.00000  Uiso   1.00
N553   N     0.72076   0.48934   0.04278   0.00000  Uiso   1.00
H554   H     0.71030   0.46354   0.06392   0.00000  Uiso   1.00
C555   C     0.71245   0.53724   0.05600   0.00000  Uiso   1.00
H556   H     0.73414   0.54929   0.08172   0.00000  Uiso   1.00
H557   H     0.68117   0.53972   0.06972   0.00000  Uiso   1.00
H558   H     0.71509   0.56093   0.02679   0.00000  Uiso   1.00
N559   N     0.94644   0.49098   0.45491   0.00000  Uiso   1.00
H560   H     0.94797   0.47033   0.42678   0.00000  Uiso   1.00
C561   C     0.97361   0.53124   0.45672   0.00000  Uiso   1.00
H562   H     0.66760   0.52199   0.47578   0.00000  Uiso   1.00
H563   H     0.95915   0.56191   0.47317   0.00000  Uiso   1.00
H564   H     0.98334   0.54139   0.42261   0.00000  Uiso   1.00
N565   N     0.70815   0.41627   0.27372   0.00000  Uiso   1.00
H566   H     0.69690   0.38620   0.25908   0.00000  Uiso   1.00
C567   C     0.71806   0.41063   0.32022   0.00000  Uiso   1.00
H568   H     0.69266   0.42166   0.34216   0.00000  Uiso   1.00
H569   H     0.74537   0.43178   0.32816   0.00000  Uiso   1.00
H570   H     0.72489   0.37326   0.32721   0.00000  Uiso   1.00
N571   N     0.95873   0.58415   0.23002   0.00000  Uiso   1.00
H572   H     0.96933   0.60092   0.20182   0.00000  Uiso   1.00
C573   C     0.95225   0.61586   0.26703   0.00000  Uiso   1.00
H574   H     0.98152   0.63025   0.27931   0.00000  Uiso   1.00
H575   H     0.93638   0.59755   0.29468   0.00000  Uiso   1.00
H576   H     0.93290   0.64530   0.25621   0.00000  Uiso   1.00
N577   N     0.95631   0.41774   0.27611   0.00000  Uiso   1.00
H578   H     0.96392   0.38716   0.25996   0.00000  Uiso   1.00
C579   C     0.94463   0.41276   0.32243   0.00000  Uiso   1.00
H580   H     0.95988   0.38181   0.33702   0.00000  Uiso   1.00
H581   H     0.91130   0.40713   0.32480   0.00000  Uiso   1.00
H582   H     0.95289   0.44436   0.34218   0.00000  Uiso   1.00
N583   N     0.71007   0.58041   0.22106   0.00000  Uiso   1.00
H584   H     0.70242   0.61265   0.23404   0.00000  Uiso   1.00
C585   C     0.71773   0.58041   0.17354   0.00000  Uiso   1.00
H586   H     0.70149   0.60993   0.15765   0.00000  Uiso   1.00
H587   H     0.70740   0.54714   0.15773   0.00000  Uiso   1.00
H588   H     0.75079   0.58490   0.16730   0.00000  Uiso   1.00
C589   C     0.08734   0.83311   0.24979   0.00000  Uiso   1.00
C590   C     0.24600   0.83357   0.25102   0.00000  Uiso   1.00
C591   C     0.09293   0.81574   0.02293   0.00000  Uiso   1.00
C592   C     0.24150   0.82896   0.47685   0.00000  Uiso   1.00
C593   C     0.02082   0.79188   0.26277   0.00000  Uiso   1.00
C594   C     0.31268   0.87527   0.24115   0.00000  Uiso   1.00
C595   C     0.31159   0.79255   0.26389   0.00000  Uiso   1.00
C596   C     0.02175   0.87394   0.23805   0.00000  Uiso   1.00
C597   C     0.29070   0.83407   0.25272   0.00000  Uiso   1.00
C598   C     0.04269   0.83278   0.25006   0.00000  Uiso   1.00
C599   C     0.18682   0.69164   0.21757   0.00000  Uiso   1.00
C600   C     0.14665   0.97501   0.28250   0.00000  Uiso   1.00
C601   C     0.14691   0.69129   0.28265   0.00000  Uiso   1.00
C602   C     0.18681   0.97533   0.21757   0.00000  Uiso   1.00
C603   C     0.16687   0.83321   0.16449   0.00000  Uiso   1.00
C604   C     0.16650   0.83345   0.33553   0.00000  Uiso   1.00
C605   C     0.20363   0.83850   0.40645   0.00000  Uiso   1.00
C606   C     0.13048   0.81891   0.09423   0.00000  Uiso   1.00
C607   C     0.16674   0.83343   0.38381   0.00000  Uiso   1.00
C608   C     0.16628   0.83223   0.11625   0.00000  Uiso   1.00
C609   C     0.12993   0.82882   0.40684   0.00000  Uiso   1.00
C610   C     0.20255   0.83969   0.09275   0.00000  Uiso   1.00
C611   C     0.13012   0.82111   0.45304   0.00000  Uiso   1.00
C612   C     0.20377   0.83050   0.04674   0.00000  Uiso   1.00
C613   C     0.16719   0.82556   0.47643   0.00000  Uiso   1.00
C614   C     0.16683   0.82509   0.02346   0.00000  Uiso   1.00
C615   C     0.20452   0.83172   0.45300   0.00000  Uiso   1.00
C616   C     0.12956   0.82028   0.04718   0.00000  Uiso   1.00
C617   C     0.09426   0.81041   0.47687   0.00000  Uiso   1.00
C618   C     0.24059   0.82553   0.02331   0.00000  Uiso   1.00
Cu619  Cu    0.16667   0.88022   0.25000   0.00000  Uiso   1.00
Cu620  Cu    0.16667   0.78645   0.25000   0.00000  Uiso   1.00
H621   H     0.20312   0.71047   0.19172   0.00000  Uiso   1.00
H622   H     0.13053   0.95619   0.30850   0.00000  Uiso   1.00
H623   H     0.13156   0.70980   0.30910   0.00000  Uiso   1.00
H624   H     0.20318   0.95674   0.19177   0.00000  Uiso   1.00
N625   N     0.16667   0.95069   0.25000   0.00000  Uiso   1.00
N626   N     0.16667   0.71598   0.25000   0.00000  Uiso   1.00
O627   O     0.10655   0.87291   0.25000   0.00000  Uiso   1.00
O628   O     0.22679   0.79375   0.25001   0.00000  Uiso   1.00
O629   O     0.22679   0.87291   0.25001   0.00000  Uiso   1.00
O630   O     0.10655   0.79375   0.25000   0.00000  Uiso   1.00
O631   O     0.16666   0.87293   0.18513   0.00000  Uiso   1.00
O632   O     0.16668   0.79373   0.31487   0.00000  Uiso   1.00
O633   O     0.16668   0.87293   0.31487   0.00000  Uiso   1.00
O634   O     0.16666   0.79373   0.18513   0.00000  Uiso   1.00
N635   N     0.23827   0.85681   0.38336   0.00000  Uiso   1.00
H636   H     0.24281   0.84361   0.35181   0.00000  Uiso   1.00
C637   C     0.24151   0.90750   0.38481   0.00000  Uiso   1.00
H638   H     0.27173   0.91863   0.37193   0.00000  Uiso   1.00
H639   H     0.23846   0.92052   0.41952   0.00000  Uiso   1.00
H640   H     0.21760   0.92363   0.36409   0.00000  Uiso   1.00
N641   N     0.09617   0.80280   0.11939   0.00000  Uiso   1.00
H642   H     0.09141   0.81955   0.14935   0.00000  Uiso   1.00
C643   C     0.09273   0.75224   0.12285   0.00000  Uiso   1.00
H644   H     0.06396   0.74285   0.14032   0.00000  Uiso   1.00
H645   H     0.11851   0.73784   0.14194   0.00000  Uiso   1.00
H646   H     0.09230   0.73592   0.08926   0.00000  Uiso   1.00
Br647  Br    0.08162   0.85019   0.37670   0.00000  Uiso   1.00
Br648  Br    0.24778   0.86887   0.12354   0.00000  Uiso   1.00
Br649  Br    0.04951   0.77638   0.45050   0.00000  Uiso   1.00
Br650  Br    0.28696   0.79761   0.05152   0.00000  Uiso   1.00
N651   N     0.05410   0.82267   0.04278   0.00000  Uiso   1.00
H652   H     0.04363   0.79687   0.06392   0.00000  Uiso   1.00
C653   C     0.04578   0.87057   0.05600   0.00000  Uiso   1.00
H654   H     0.06747   0.88263   0.08172   0.00000  Uiso   1.00
H655   H     0.01451   0.87305   0.06972   0.00000  Uiso   1.00
H656   H     0.04842   0.89426   0.02679   0.00000  Uiso   1.00
N657   N     0.27978   0.82432   0.45491   0.00000  Uiso   1.00
H658   H     0.28130   0.80366   0.42678   0.00000  Uiso   1.00
C659   C     0.30695   0.86457   0.45672   0.00000  Uiso   1.00
H660   H     0.00093   0.85532   0.47578   0.00000  Uiso   1.00
H661   H     0.29248   0.89524   0.47317   0.00000  Uiso   1.00
H662   H     0.31667   0.87472   0.42261   0.00000  Uiso   1.00
N663   N     0.04148   0.74960   0.27372   0.00000  Uiso   1.00
H664   H     0.03023   0.71953   0.25908   0.00000  Uiso   1.00
C665   C     0.05139   0.74396   0.32022   0.00000  Uiso   1.00
H666   H     0.02600   0.75499   0.34216   0.00000  Uiso   1.00
H667   H     0.07871   0.76512   0.32816   0.00000  Uiso   1.00
H668   H     0.05823   0.70659   0.32721   0.00000  Uiso   1.00
N669   N     0.29207   0.91749   0.23002   0.00000  Uiso   1.00
H670   H     0.30267   0.93425   0.20182   0.00000  Uiso   1.00
C671   C     0.28558   0.94920   0.26703   0.00000  Uiso   1.00
H672   H     0.31485   0.96358   0.27931   0.00000  Uiso   1.00
H673   H     0.26971   0.93088   0.29468   0.00000  Uiso   1.00
H674   H     0.26623   0.97863   0.25621   0.00000  Uiso   1.00
N675   N     0.28964   0.75108   0.27611   0.00000  Uiso   1.00
H676   H     0.29726   0.72050   0.25996   0.00000  Uiso   1.00
C677   C     0.27797   0.74609   0.32243   0.00000  Uiso   1.00
H678   H     0.29321   0.71514   0.33702   0.00000  Uiso   1.00
H679   H     0.24464   0.74046   0.32480   0.00000  Uiso   1.00
H680   H     0.28622   0.77769   0.34218   0.00000  Uiso   1.00
N681   N     0.04340   0.91375   0.22106   0.00000  Uiso   1.00
H682   H     0.03575   0.94598   0.23404   0.00000  Uiso   1.00
C683   C     0.05106   0.91374   0.17354   0.00000  Uiso   1.00
H684   H     0.03482   0.94326   0.15765   0.00000  Uiso   1.00
H685   H     0.04073   0.88048   0.15773   0.00000  Uiso   1.00
H686   H     0.08412   0.91823   0.16730   0.00000  Uiso   1.00
C687   C     0.42068   0.83311   0.24979   0.00000  Uiso   1.00
C688   C     0.57934   0.83357   0.25102   0.00000  Uiso   1.00
C689   C     0.42626   0.81574   0.02293   0.00000  Uiso   1.00
C690   C     0.57484   0.82896   0.47685   0.00000  Uiso   1.00
C691   C     0.35416   0.79188   0.26277   0.00000  Uiso   1.00
C692   C     0.64601   0.87527   0.24115   0.00000  Uiso   1.00
C693   C     0.64493   0.79255   0.26389   0.00000  Uiso   1.00
C694   C     0.35508   0.87394   0.23805   0.00000  Uiso   1.00
C695   C     0.62403   0.83407   0.25272   0.00000  Uiso   1.00
C696   C     0.37602   0.83278   0.25006   0.00000  Uiso   1.00
C697   C     0.52015   0.69164   0.21757   0.00000  Uiso   1.00
C698   C     0.47998   0.97501   0.28250   0.00000  Uiso   1.00
C699   C     0.48024   0.69129   0.28265   0.00000  Uiso   1.00
C700   C     0.52015   0.97533   0.21757   0.00000  Uiso   1.00
C701   C     0.50020   0.83321   0.16449   0.00000  Uiso   1.00
C702   C     0.49983   0.83345   0.33553   0.00000  Uiso   1.00
C703   C     0.53696   0.83850   0.40645   0.00000  Uiso   1.00
C704   C     0.46381   0.81891   0.09423   0.00000  Uiso   1.00
C705   C     0.50007   0.83343   0.38381   0.00000  Uiso   1.00
C706   C     0.49961   0.83223   0.11625   0.00000  Uiso   1.00
C707   C     0.46327   0.82882   0.40684   0.00000  Uiso   1.00
C708   C     0.53588   0.83969   0.09275   0.00000  Uiso   1.00
C709   C     0.46345   0.82111   0.45304   0.00000  Uiso   1.00
C710   C     0.53710   0.83050   0.04674   0.00000  Uiso   1.00
C711   C     0.50052   0.82556   0.47643   0.00000  Uiso   1.00
C712   C     0.50016   0.82509   0.02346   0.00000  Uiso   1.00
C713   C     0.53785   0.83172   0.45300   0.00000  Uiso   1.00
C714   C     0.46289   0.82028   0.04718   0.00000  Uiso   1.00
C715   C     0.42759   0.81041   0.47687   0.00000  Uiso   1.00
C716   C     0.57392   0.82553   0.02331   0.00000  Uiso   1.00
Cu717  Cu    0.50000   0.88022   0.25000   0.00000  Uiso   1.00
Cu718  Cu    0.50000   0.78645   0.25000   0.00000  Uiso   1.00
H719   H     0.53646   0.71047   0.19172   0.00000  Uiso   1.00
H720   H     0.46387   0.95619   0.30850   0.00000  Uiso   1.00
H721   H     0.46489   0.70980   0.30910   0.00000  Uiso   1.00
H722   H     0.53652   0.95674   0.19177   0.00000  Uiso   1.00
N723   N     0.50000   0.95069   0.25000   0.00000  Uiso   1.00
N724   N     0.50000   0.71598   0.25000   0.00000  Uiso   1.00
O725   O     0.43988   0.87291   0.25000   0.00000  Uiso   1.00
O726   O     0.56012   0.79375   0.25001   0.00000  Uiso   1.00
O727   O     0.56012   0.87291   0.25001   0.00000  Uiso   1.00
O728   O     0.43988   0.79375   0.25000   0.00000  Uiso   1.00
O729   O     0.49999   0.87293   0.18513   0.00000  Uiso   1.00
O730   O     0.50001   0.79373   0.31487   0.00000  Uiso   1.00
O731   O     0.50001   0.87293   0.31487   0.00000  Uiso   1.00
O732   O     0.49999   0.79373   0.18513   0.00000  Uiso   1.00
N733   N     0.57161   0.85681   0.38336   0.00000  Uiso   1.00
H734   H     0.57615   0.84361   0.35181   0.00000  Uiso   1.00
C735   C     0.57485   0.90750   0.38481   0.00000  Uiso   1.00
H736   H     0.60507   0.91863   0.37193   0.00000  Uiso   1.00
H737   H     0.57179   0.92052   0.41952   0.00000  Uiso   1.00
H738   H     0.55093   0.92363   0.36409   0.00000  Uiso   1.00
N739   N     0.42951   0.80280   0.11939   0.00000  Uiso   1.00
H740   H     0.42474   0.81955   0.14935   0.00000  Uiso   1.00
C741   C     0.42606   0.75224   0.12285   0.00000  Uiso   1.00
H742   H     0.39729   0.74285   0.14032   0.00000  Uiso   1.00
H743   H     0.45185   0.73784   0.14194   0.00000  Uiso   1.00
H744   H     0.42563   0.73592   0.08926   0.00000  Uiso   1.00
Br745  Br    0.41496   0.85019   0.37670   0.00000  Uiso   1.00
Br746  Br    0.58111   0.86887   0.12354   0.00000  Uiso   1.00
Br747  Br    0.38284   0.77638   0.45050   0.00000  Uiso   1.00
Br748  Br    0.62029   0.79761   0.05152   0.00000  Uiso   1.00
N749   N     0.38743   0.82267   0.04278   0.00000  Uiso   1.00
H750   H     0.37697   0.79687   0.06392   0.00000  Uiso   1.00
C751   C     0.37912   0.87057   0.05600   0.00000  Uiso   1.00
H752   H     0.40081   0.88263   0.08172   0.00000  Uiso   1.00
H753   H     0.34784   0.87305   0.06972   0.00000  Uiso   1.00
H754   H     0.38175   0.89426   0.02679   0.00000  Uiso   1.00
N755   N     0.61311   0.82432   0.45491   0.00000  Uiso   1.00
H756   H     0.61464   0.80366   0.42678   0.00000  Uiso   1.00
C757   C     0.64028   0.86457   0.45672   0.00000  Uiso   1.00
H758   H     0.33426   0.85532   0.47578   0.00000  Uiso   1.00
H759   H     0.62582   0.89524   0.47317   0.00000  Uiso   1.00
H760   H     0.65000   0.87472   0.42261   0.00000  Uiso   1.00
N761   N     0.37481   0.74960   0.27372   0.00000  Uiso   1.00
H762   H     0.36357   0.71953   0.25908   0.00000  Uiso   1.00
C763   C     0.38473   0.74396   0.32022   0.00000  Uiso   1.00
H764   H     0.35933   0.75499   0.34216   0.00000  Uiso   1.00
H765   H     0.41204   0.76512   0.32816   0.00000  Uiso   1.00
H766   H     0.39156   0.70659   0.32721   0.00000  Uiso   1.00
N767   N     0.62540   0.91749   0.23002   0.00000  Uiso   1.00
H768   H     0.63600   0.93425   0.20182   0.00000  Uiso   1.00
C769   C     0.61892   0.94920   0.26703   0.00000  Uiso   1.00
H770   H     0.64818   0.96358   0.27931   0.00000  Uiso   1.00
H771   H     0.60305   0.93088   0.29468   0.00000  Uiso   1.00
H772   H     0.59956   0.97863   0.25621   0.00000  Uiso   1.00
N773   N     0.62298   0.75108   0.27611   0.00000  Uiso   1.00
H774   H     0.63059   0.72050   0.25996   0.00000  Uiso   1.00
C775   C     0.61130   0.74609   0.32243   0.00000  Uiso   1.00
H776   H     0.62655   0.71514   0.33702   0.00000  Uiso   1.00
H777   H     0.57797   0.74046   0.32480   0.00000  Uiso   1.00
H778   H     0.61956   0.77769   0.34218   0.00000  Uiso   1.00
N779   N     0.37673   0.91375   0.22106   0.00000  Uiso   1.00
H780   H     0.36908   0.94598   0.23404   0.00000  Uiso   1.00
C781   C     0.38439   0.91374   0.17354   0.00000  Uiso   1.00
H782   H     0.36815   0.94326   0.15765   0.00000  Uiso   1.00
H783   H     0.37407   0.88048   0.15773   0.00000  Uiso   1.00
H784   H     0.41746   0.91823   0.16730   0.00000  Uiso   1.00
C785   C     0.75401   0.83311   0.24979   0.00000  Uiso   1.00
C786   C     0.91267   0.83357   0.25102   0.00000  Uiso   1.00
C787   C     0.75960   0.81574   0.02293   0.00000  Uiso   1.00
C788   C     0.90817   0.82896   0.47685   0.00000  Uiso   1.00
C789   C     0.68749   0.79188   0.26277   0.00000  Uiso   1.00
C790   C     0.97935   0.87527   0.24115   0.00000  Uiso   1.00
C791   C     0.97826   0.79255   0.26389   0.00000  Uiso   1.00
C792   C     0.68841   0.87394   0.23805   0.00000  Uiso   1.00
C793   C     0.95736   0.83407   0.25272   0.00000  Uiso   1.00
C794   C     0.70935   0.83278   0.25006   0.00000  Uiso   1.00
C795   C     0.85348   0.69164   0.21757   0.00000  Uiso   1.00
C796   C     0.81332   0.97501   0.28250   0.00000  Uiso   1.00
C797   C     0.81358   0.69129   0.28265   0.00000  Uiso   1.00
C798   C     0.85348   0.97533   0.21757   0.00000  Uiso   1.00
C799   C     0.83354   0.83321   0.16449   0.00000  Uiso   1.00
C800   C     0.83317   0.83345   0.33553   0.00000  Uiso   1.00
C801   C     0.87029   0.83850   0.40645   0.00000  Uiso   1.00
C802   C     0.79714   0.81891   0.09423   0.00000  Uiso   1.00
C803   C     0.83340   0.83343   0.38381   0.00000  Uiso   1.00
C804   C     0.83294   0.83223   0.11625   0.00000  Uiso   1.00
C805   C     0.79660   0.82882   0.40684   0.00000  Uiso   1.00
C806   C     0.86922   0.83969   0.09275   0.00000  Uiso   1.00
C807   C     0.79678   0.82111   0.45304   0.00000  Uiso   1.00
C808   C     0.87044   0.83050   0.04674   0.00000  Uiso   1.00
C809   C     0.83385   0.82556   0.47643   0.00000  Uiso   1.00
C810   C     0.83350   0.82509   0.02346   0.00000  Uiso   1.00
C811   C     0.87119   0.83172   0.45300   0.00000  Uiso   1.00
C812   C     0.79623   0.82028   0.04718   0.00000  Uiso   1.00
C813   C     0.76092   0.81041   0.47687   0.00000  Uiso   1.00
C814   C     0.90725   0.82553   0.02331   0.00000  Uiso   1.00
Cu815  Cu    0.83333   0.88022   0.25000   0.00000  Uiso   1.00
Cu816  Cu    0.83333   0.78645   0.25000   0.00000  Uiso   1.00
H817   H     0.86979   0.71047   0.19172   0.00000  Uiso   1.00
H818   H     0.79720   0.95619   0.30850   0.00000  Uiso   1.00
H819   H     0.79823   0.70980   0.30910   0.00000  Uiso   1.00
H820   H     0.86985   0.95674   0.19177   0.00000  Uiso   1.00
N821   N     0.83333   0.95069   0.25000   0.00000  Uiso   1.00
N822   N     0.83333   0.71598   0.25000   0.00000  Uiso   1.00
O823   O     0.77321   0.87291   0.25000   0.00000  Uiso   1.00
O824   O     0.89345   0.79375   0.25001   0.00000  Uiso   1.00
O825   O     0.89345   0.87291   0.25001   0.00000  Uiso   1.00
O826   O     0.77321   0.79375   0.25000   0.00000  Uiso   1.00
O827   O     0.83332   0.87293   0.18513   0.00000  Uiso   1.00
O828   O     0.83334   0.79373   0.31487   0.00000  Uiso   1.00
O829   O     0.83334   0.87293   0.31487   0.00000  Uiso   1.00
O830   O     0.83332   0.79373   0.18513   0.00000  Uiso   1.00
N831   N     0.90494   0.85681   0.38336   0.00000  Uiso   1.00
H832   H     0.90948   0.84361   0.35181   0.00000  Uiso   1.00
C833   C     0.90818   0.90750   0.38481   0.00000  Uiso   1.00
H834   H     0.93840   0.91863   0.37193   0.00000  Uiso   1.00
H835   H     0.90512   0.92052   0.41952   0.00000  Uiso   1.00
H836   H     0.88426   0.92363   0.36409   0.00000  Uiso   1.00
N837   N     0.76284   0.80280   0.11939   0.00000  Uiso   1.00
H838   H     0.75808   0.81955   0.14935   0.00000  Uiso   1.00
C839   C     0.75939   0.75224   0.12285   0.00000  Uiso   1.00
H840   H     0.73062   0.74285   0.14032   0.00000  Uiso   1.00
H841   H     0.78518   0.73784   0.14194   0.00000  Uiso   1.00
H842   H     0.75897   0.73592   0.08926   0.00000  Uiso   1.00
Br843  Br    0.74829   0.85019   0.37670   0.00000  Uiso   1.00
Br844  Br    0.91444   0.86887   0.12354   0.00000  Uiso   1.00
Br845  Br    0.71618   0.77638   0.45050   0.00000  Uiso   1.00
Br846  Br    0.95362   0.79761   0.05152   0.00000  Uiso   1.00
N847   N     0.72076   0.82267   0.04278   0.00000  Uiso   1.00
H848   H     0.71030   0.79687   0.06392   0.00000  Uiso   1.00
C849   C     0.71245   0.87057   0.05600   0.00000  Uiso   1.00
H850   H     0.73414   0.88263   0.08172   0.00000  Uiso   1.00
H851   H     0.68117   0.87305   0.06972   0.00000  Uiso   1.00
H852   H     0.71509   0.89426   0.02679   0.00000  Uiso   1.00
N853   N     0.94644   0.82432   0.45491   0.00000  Uiso   1.00
H854   H     0.94797   0.80366   0.42678   0.00000  Uiso   1.00
C855   C     0.97361   0.86457   0.45672   0.00000  Uiso   1.00
H856   H     0.66760   0.85532   0.47578   0.00000  Uiso   1.00
H857   H     0.95915   0.89524   0.47317   0.00000  Uiso   1.00
H858   H     0.98334   0.87472   0.42261   0.00000  Uiso   1.00
N859   N     0.70815   0.74960   0.27372   0.00000  Uiso   1.00
H860   H     0.69690   0.71953   0.25908   0.00000  Uiso   1.00
C861   C     0.71806   0.74396   0.32022   0.00000  Uiso   1.00
H862   H     0.69266   0.75499   0.34216   0.00000  Uiso   1.00
H863   H     0.74537   0.76512   0.32816   0.00000  Uiso   1.00
H864   H     0.72489   0.70659   0.32721   0.00000  Uiso   1.00
N865   N     0.95873   0.91749   0.23002   0.00000  Uiso   1.00
H866   H     0.96933   0.93425   0.20182   0.00000  Uiso   1.00
C867   C     0.95225   0.94920   0.26703   0.00000  Uiso   1.00
H868   H     0.98152   0.96358   0.27931   0.00000  Uiso   1.00
H869   H     0.93638   0.93088   0.29468   0.00000  Uiso   1.00
H870   H     0.93290   0.97863   0.25621   0.00000  Uiso   1.00
N871   N     0.95631   0.75108   0.27611   0.00000  Uiso   1.00
H872   H     0.96392   0.72050   0.25996   0.00000  Uiso   1.00
C873   C     0.94463   0.74609   0.32243   0.00000  Uiso   1.00
H874   H     0.95988   0.71514   0.33702   0.00000  Uiso   1.00
H875   H     0.91130   0.74046   0.32480   0.00000  Uiso   1.00
H876   H     0.95289   0.77769   0.34218   0.00000  Uiso   1.00
N877   N     0.71007   0.91375   0.22106   0.00000  Uiso   1.00
H878   H     0.70242   0.94598   0.23404   0.00000  Uiso   1.00
C879   C     0.71773   0.91374   0.17354   0.00000  Uiso   1.00
H880   H     0.70149   0.94326   0.15765   0.00000  Uiso   1.00
H881   H     0.70740   0.88048   0.15773   0.00000  Uiso   1.00
H882   H     0.75079   0.91823   0.16730   0.00000  Uiso   1.00
C883   C     0.08734   0.16644   0.74979   0.00000  Uiso   1.00
C884   C     0.24600   0.16690   0.75102   0.00000  Uiso   1.00
C885   C     0.09293   0.14907   0.52293   0.00000  Uiso   1.00
C886   C     0.24150   0.16229   0.97685   0.00000  Uiso   1.00
C887   C     0.02082   0.12521   0.76277   0.00000  Uiso   1.00
C888   C     0.31268   0.20861   0.74115   0.00000  Uiso   1.00
C889   C     0.31159   0.12588   0.76389   0.00000  Uiso   1.00
C890   C     0.02175   0.20728   0.73805   0.00000  Uiso   1.00
C891   C     0.29070   0.16741   0.75272   0.00000  Uiso   1.00
C892   C     0.04269   0.16611   0.75006   0.00000  Uiso   1.00
C893   C     0.18682   0.02498   0.71757   0.00000  Uiso   1.00
C894   C     0.14665   0.30835   0.78250   0.00000  Uiso   1.00
C895   C     0.14691   0.02463   0.78265   0.00000  Uiso   1.00
C896   C     0.18681   0.30866   0.71757   0.00000  Uiso   1.00
C897   C     0.16687   0.16654   0.66449   0.00000  Uiso   1.00
C898   C     0.16650   0.16678   0.83553   0.00000  Uiso   1.00
C899   C     0.20363   0.17183   0.90645   0.00000  Uiso   1.00
C900   C     0.13048   0.15225   0.59423   0.00000  Uiso   1.00
C901   C     0.16674   0.16677   0.88381   0.00000  Uiso   1.00
C902   C     0.16628   0.16557   0.61625   0.00000  Uiso   1.00
C903   C     0.12993   0.16215   0.90684   0.00000  Uiso   1.00
C904   C     0.20255   0.17302   0.59275   0.00000  Uiso   1.00
C905   C     0.13012   0.15444   0.95304   0.00000  Uiso   1.00
C906   C     0.20377   0.16384   0.54674   0.00000  Uiso   1.00
C907   C     0.16719   0.15889   0.97643   0.00000  Uiso   1.00
C908   C     0.16683   0.15843   0.52346   0.00000  Uiso   1.00
C909   C     0.20452   0.16506   0.95300   0.00000  Uiso   1.00
C910   C     0.12956   0.15362   0.54718   0.00000  Uiso   1.00
C911   C     0.09426   0.14374   0.97687   0.00000  Uiso   1.00
C912   C     0.24059   0.15886   0.52331   0.00000  Uiso   1.00
Cu913  Cu    0.16667   0.21355   0.75000   0.00000  Uiso   1.00
Cu914  Cu    0.16667   0.11978   0.75000   0.00000  Uiso   1.00
H915   H     0.20312   0.04381   0.69172   0.00000  Uiso   1.00
H916   H     0.13053   0.28953   0.80850   0.00000  Uiso   1.00
H917   H     0.13156   0.04313   0.80910   0.00000  Uiso   1.00
H918   H     0.20318   0.29007   0.69177   0.00000  Uiso   1.00
N919   N     0.16667   0.28402   0.75000   0.00000  Uiso   1.00
N920   N     0.16667   0.04931   0.75000   0.00000  Uiso   1.00
O921   O     0.10655   0.20625   0.75000   0.00000  Uiso   1.00
O922   O     0.22679   0.12709   0.75001   0.00000  Uiso   1.00
O923   O     0.22679   0.20625   0.75001   0.00000  Uiso   1.00
O924   O     0.10655   0.12709   0.75000   0.00000  Uiso   1.00
O925   O     0.16666   0.20627   0.68513   0.00000  Uiso   1.00
O926   O     0.16668   0.12707   0.81487   0.00000  Uiso   1.00
O927   O     0.16668   0.20627   0.81487   0.00000  Uiso   1.00
O928   O     0.16666   0.12707   0.68513   0.00000  Uiso   1.00
N929   N     0.23827   0.19014   0.88336   0.00000  Uiso   1.00
H930   H     0.24281   0.17694   0.85181   0.00000  Uiso   1.00
C931   C     0.24151   0.24084   0.88481   0.00000  Uiso   1.00
H932   H     0.27173   0.25197   0.87193   0.00000  Uiso   1.00
H933   H     0.23846   0.25386   0.91952   0.00000  Uiso   1.00
H934   H     0.21760   0.25696   0.86409   0.00000  Uiso   1.00
N935   N     0.09617   0.13613   0.61939   0.00000  Uiso   1.00
H936   H     0.09141   0.15288   0.64935   0.00000  Uiso   1.00
C937   C     0.09273   0.08557   0.62285   0.00000  Uiso   1.00
H938   H     0.06396   0.07619   0.64032   0.00000  Uiso   1.00
H939   H     0.11851   0.07117   0.64194   0.00000  Uiso   1.00
H940   H     0.09230   0.06926   0.58926   0.00000  Uiso   1.00
Br941  Br    0.08162   0.18353   0.87670   0.00000  Uiso   1.00
Br942  Br    0.24778   0.20220   0.62354   0.00000  Uiso   1.00
Br943  Br    0.04951   0.10972   0.95050   0.00000  Uiso   1.00
Br944  Br    0.28696   0.13095   0.55152   0.00000  Uiso   1.00
N945   N     0.05410   0.15601   0.54278   0.00000  Uiso   1.00
H946   H     0.04363   0.13021   0.56392   0.00000  Uiso   1.00
C947   C     0.04578   0.20391   0.55600   0.00000  Uiso   1.00
H948   H     0.06747   0.21596   0.58172   0.00000  Uiso   1.00
H949   H     0.01451   0.20638   0.56972   0.00000  Uiso   1.00
H950   H     0.04842   0.22760   0.52679   0.00000  Uiso   1.00
N951   N     0.27978   0.15765   0.95491   0.00000  Uiso   1.00
H952   H     0.28130   0.13699   0.92678   0.00000  Uiso   1.00
C953   C     0.30695   0.19790   0.95672   0.00000  Uiso   1.00
H954   H     0.00093   0.18866   0.97578   0.00000  Uiso   1.00
H955   H     0.29248   0.22857   0.97317   0.00000  Uiso   1.00
H956   H     0.31667   0.20806   0.92261   0.00000  Uiso   1.00
N957   N     0.04148   0.08293   0.77372   0.00000  Uiso   1.00
H958   H     0.03023   0.05286   0.75908   0.00000  Uiso   1.00
C959   C     0.05139   0.07729   0.82022   0.00000  Uiso   1.00
H960   H     0.02600   0.08832   0.84216   0.00000  Uiso   1.00
H961   H     0.07871   0.09845   0.82816   0.00000  Uiso   1.00
H962   H     0.05823   0.03993   0.82721   0.00000  Uiso   1.00
N963   N     0.29207   0.25082   0.73002   0.00000  Uiso   1.00
H964   H     0.30267   0.26759   0.70182   0.00000  Uiso   1.00
C965   C     0.28558   0.28253   0.76703   0.00000  Uiso   1.00
H966   H     0.31485   0.29692   0.77931   0.00000  Uiso   1.00
H967   H     0.26971   0.26421   0.79468   0.00000  Uiso   1.00
H968   H     0.26623   0.31196   0.75621   0.00000  Uiso   1.00
N969   N     0.28964   0.08441   0.77611   0.00000  Uiso   1.00
H970   H     0.29726   0.05383   0.75996   0.00000  Uiso   1.00
C971   C     0.27797   0.07942   0.82243   0.00000  Uiso   1.00
H972   H     0.29321   0.04848   0.83702   0.00000  Uiso   1.00
H973   H     0.24464   0.07379   0.82480   0.00000  Uiso   1.00
H974   H     0.28622   0.11103   0.84218   0.00000  Uiso   1.00
N975   N     0.04340   0.24708   0.72106   0.00000  Uiso   1.00
H976   H     0.03575   0.27931   0.73404   0.00000  Uiso   1.00
C977   C     0.05106   0.24708   0.67354   0.00000  Uiso   1.00
H978   H     0.03482   0.27659   0.65765   0.00000  Uiso   1.00
H979   H     0.04073   0.21381   0.65773   0.00000  Uiso   1.00
H980   H     0.08412   0.25157   0.66730   0.00000  Uiso   1.00
C981   C     0.42068   0.16644   0.74979   0.00000  Uiso   1.00
C982   C     0.57934   0.16690   0.75102   0.00000  Uiso   1.00
C983   C     0.42626   0.14907   0.52293   0.00000  Uiso   1.00
C984   C     0.57484   0.16229   0.97685   0.00000  Uiso   1.00
C985   C     0.35416   0.12521   0.76277   0.00000  Uiso   1.00
C986   C     0.64601   0.20861   0.74115   0.00000  Uiso   1.00
C987   C     0.64493   0.12588   0.76389   0.00000  Uiso   1.00
C988   C     0.35508   0.20728   0.73805   0.00000  Uiso   1.00
C989   C     0.62403   0.16741   0.75272   0.00000  Uiso   1.00
C990   C     0.37602   0.16611   0.75006   0.00000  Uiso   1.00
C991   C     0.52015   0.02498   0.71757   0.00000  Uiso   1.00
C992   C     0.47998   0.30835   0.78250   0.00000  Uiso   1.00
C993   C     0.48024   0.02463   0.78265   0.00000  Uiso   1.00
C994   C     0.52015   0.30866   0.71757   0.00000  Uiso   1.00
C995   C     0.50020   0.16654   0.66449   0.00000  Uiso   1.00
C996   C     0.49983   0.16678   0.83553   0.00000  Uiso   1.00
C997   C     0.53696   0.17183   0.90645   0.00000  Uiso   1.00
C998   C     0.46381   0.15225   0.59423   0.00000  Uiso   1.00
C999   C     0.50007   0.16677   0.88381   0.00000  Uiso   1.00
C1000  C     0.49961   0.16557   0.61625   0.00000  Uiso   1.00
C1001  C     0.46327   0.16215   0.90684   0.00000  Uiso   1.00
C1002  C     0.53588   0.17302   0.59275   0.00000  Uiso   1.00
C1003  C     0.46345   0.15444   0.95304   0.00000  Uiso   1.00
C1004  C     0.53710   0.16384   0.54674   0.00000  Uiso   1.00
C1005  C     0.50052   0.15889   0.97643   0.00000  Uiso   1.00
C1006  C     0.50016   0.15843   0.52346   0.00000  Uiso   1.00
C1007  C     0.53785   0.16506   0.95300   0.00000  Uiso   1.00
C1008  C     0.46289   0.15362   0.54718   0.00000  Uiso   1.00
C1009  C     0.42759   0.14374   0.97687   0.00000  Uiso   1.00
C1010  C     0.57392   0.15886   0.52331   0.00000  Uiso   1.00
Cu1011 Cu    0.50000   0.21355   0.75000   0.00000  Uiso   1.00
Cu1012 Cu    0.50000   0.11978   0.75000   0.00000  Uiso   1.00
H1013  H     0.53646   0.04381   0.69172   0.00000  Uiso   1.00
H1014  H     0.46387   0.28953   0.80850   0.00000  Uiso   1.00
H1015  H     0.46489   0.04313   0.80910   0.00000  Uiso   1.00
H1016  H     0.53652   0.29007   0.69177   0.00000  Uiso   1.00
N1017  N     0.50000   0.28402   0.75000   0.00000  Uiso   1.00
N1018  N     0.50000   0.04931   0.75000   0.00000  Uiso   1.00
O1019  O     0.43988   0.20625   0.75000   0.00000  Uiso   1.00
O1020  O     0.56012   0.12709   0.75001   0.00000  Uiso   1.00
O1021  O     0.56012   0.20625   0.75001   0.00000  Uiso   1.00
O1022  O     0.43988   0.12709   0.75000   0.00000  Uiso   1.00
O1023  O     0.49999   0.20627   0.68513   0.00000  Uiso   1.00
O1024  O     0.50001   0.12707   0.81487   0.00000  Uiso   1.00
O1025  O     0.50001   0.20627   0.81487   0.00000  Uiso   1.00
O1026  O     0.49999   0.12707   0.68513   0.00000  Uiso   1.00
N1027  N     0.57161   0.19014   0.88336   0.00000  Uiso   1.00
H1028  H     0.57615   0.17694   0.85181   0.00000  Uiso   1.00
C1029  C     0.57485   0.24084   0.88481   0.00000  Uiso   1.00
H1030  H     0.60507   0.25197   0.87193   0.00000  Uiso   1.00
H1031  H     0.57179   0.25386   0.91952   0.00000  Uiso   1.00
H1032  H     0.55093   0.25696   0.86409   0.00000  Uiso   1.00
N1033  N     0.42951   0.13613   0.61939   0.00000  Uiso   1.00
H1034  H     0.42474   0.15288   0.64935   0.00000  Uiso   1.00
C1035  C     0.42606   0.08557   0.62285   0.00000  Uiso   1.00
H1036  H     0.39729   0.07619   0.64032   0.00000  Uiso   1.00
H1037  H     0.45185   0.07117   0.64194   0.00000  Uiso   1.00
H1038  H     0.42563   0.06926   0.58926   0.00000  Uiso   1.00
Br1039 Br    0.41496   0.18353   0.87670   0.00000  Uiso   1.00
Br1040 Br    0.58111   0.20220   0.62354   0.00000  Uiso   1.00
Br1041 Br    0.38284   0.10972   0.95050   0.00000  Uiso   1.00
Br1042 Br    0.62029   0.13095   0.55152   0.00000  Uiso   1.00
N1043  N     0.38743   0.15601   0.54278   0.00000  Uiso   1.00
H1044  H     0.37697   0.13021   0.56392   0.00000  Uiso   1.00
C1045  C     0.37912   0.20391   0.55600   0.00000  Uiso   1.00
H1046  H     0.40081   0.21596   0.58172   0.00000  Uiso   1.00
H1047  H     0.34784   0.20638   0.56972   0.00000  Uiso   1.00
H1048  H     0.38175   0.22760   0.52679   0.00000  Uiso   1.00
N1049  N     0.61311   0.15765   0.95491   0.00000  Uiso   1.00
H1050  H     0.61464   0.13699   0.92678   0.00000  Uiso   1.00
C1051  C     0.64028   0.19790   0.95672   0.00000  Uiso   1.00
H1052  H     0.33426   0.18866   0.97578   0.00000  Uiso   1.00
H1053  H     0.62582   0.22857   0.97317   0.00000  Uiso   1.00
H1054  H     0.65000   0.20806   0.92261   0.00000  Uiso   1.00
N1055  N     0.37481   0.08293   0.77372   0.00000  Uiso   1.00
H1056  H     0.36357   0.05286   0.75908   0.00000  Uiso   1.00
C1057  C     0.38473   0.07729   0.82022   0.00000  Uiso   1.00
H1058  H     0.35933   0.08832   0.84216   0.00000  Uiso   1.00
H1059  H     0.41204   0.09845   0.82816   0.00000  Uiso   1.00
H1060  H     0.39156   0.03993   0.82721   0.00000  Uiso   1.00
N1061  N     0.62540   0.25082   0.73002   0.00000  Uiso   1.00
H1062  H     0.63600   0.26759   0.70182   0.00000  Uiso   1.00
C1063  C     0.61892   0.28253   0.76703   0.00000  Uiso   1.00
H1064  H     0.64818   0.29692   0.77931   0.00000  Uiso   1.00
H1065  H     0.60305   0.26421   0.79468   0.00000  Uiso   1.00
H1066  H     0.59956   0.31196   0.75621   0.00000  Uiso   1.00
N1067  N     0.62298   0.08441   0.77611   0.00000  Uiso   1.00
H1068  H     0.63059   0.05383   0.75996   0.00000  Uiso   1.00
C1069  C     0.61130   0.07942   0.82243   0.00000  Uiso   1.00
H1070  H     0.62655   0.04848   0.83702   0.00000  Uiso   1.00
H1071  H     0.57797   0.07379   0.82480   0.00000  Uiso   1.00
H1072  H     0.61956   0.11103   0.84218   0.00000  Uiso   1.00
N1073  N     0.37673   0.24708   0.72106   0.00000  Uiso   1.00
H1074  H     0.36908   0.27931   0.73404   0.00000  Uiso   1.00
C1075  C     0.38439   0.24708   0.67354   0.00000  Uiso   1.00
H1076  H     0.36815   0.27659   0.65765   0.00000  Uiso   1.00
H1077  H     0.37407   0.21381   0.65773   0.00000  Uiso   1.00
H1078  H     0.41746   0.25157   0.66730   0.00000  Uiso   1.00
C1079  C     0.75401   0.16644   0.74979   0.00000  Uiso   1.00
C1080  C     0.91267   0.16690   0.75102   0.00000  Uiso   1.00
C1081  C     0.75960   0.14907   0.52293   0.00000  Uiso   1.00
C1082  C     0.90817   0.16229   0.97685   0.00000  Uiso   1.00
C1083  C     0.68749   0.12521   0.76277   0.00000  Uiso   1.00
C1084  C     0.97935   0.20861   0.74115   0.00000  Uiso   1.00
C1085  C     0.97826   0.12588   0.76389   0.00000  Uiso   1.00
C1086  C     0.68841   0.20728   0.73805   0.00000  Uiso   1.00
C1087  C     0.95736   0.16741   0.75272   0.00000  Uiso   1.00
C1088  C     0.70935   0.16611   0.75006   0.00000  Uiso   1.00
C1089  C     0.85348   0.02498   0.71757   0.00000  Uiso   1.00
C1090  C     0.81332   0.30835   0.78250   0.00000  Uiso   1.00
C1091  C     0.81358   0.02463   0.78265   0.00000  Uiso   1.00
C1092  C     0.85348   0.30866   0.71757   0.00000  Uiso   1.00
C1093  C     0.83354   0.16654   0.66449   0.00000  Uiso   1.00
C1094  C     0.83317   0.16678   0.83553   0.00000  Uiso   1.00
C1095  C     0.87029   0.17183   0.90645   0.00000  Uiso   1.00
C1096  C     0.79714   0.15225   0.59423   0.00000  Uiso   1.00
C1097  C     0.83340   0.16677   0.88381   0.00000  Uiso   1.00
C1098  C     0.83294   0.16557   0.61625   0.00000  Uiso   1.00
C1099  C     0.79660   0.16215   0.90684   0.00000  Uiso   1.00
C1100  C     0.86922   0.17302   0.59275   0.00000  Uiso   1.00
C1101  C     0.79678   0.15444   0.95304   0.00000  Uiso   1.00
C1102  C     0.87044   0.16384   0.54674   0.00000  Uiso   1.00
C1103  C     0.83385   0.15889   0.97643   0.00000  Uiso   1.00
C1104  C     0.83350   0.15843   0.52346   0.00000  Uiso   1.00
C1105  C     0.87119   0.16506   0.95300   0.00000  Uiso   1.00
C1106  C     0.79623   0.15362   0.54718   0.00000  Uiso   1.00
C1107  C     0.76092   0.14374   0.97687   0.00000  Uiso   1.00
C1108  C     0.90725   0.15886   0.52331   0.00000  Uiso   1.00
Cu1109 Cu    0.83333   0.21355   0.75000   0.00000  Uiso   1.00
Cu1110 Cu    0.83333   0.11978   0.75000   0.00000  Uiso   1.00
H1111  H     0.86979   0.04381   0.69172   0.00000  Uiso   1.00
H1112  H     0.79720   0.28953   0.80850   0.00000  Uiso   1.00
H1113  H     0.79823   0.04313   0.80910   0.00000  Uiso   1.00
H1114  H     0.86985   0.29007   0.69177   0.00000  Uiso   1.00
N1115  N     0.83333   0.28402   0.75000   0.00000  Uiso   1.00
N1116  N     0.83333   0.04931   0.75000   0.00000  Uiso   1.00
O1117  O     0.77321   0.20625   0.75000   0.00000  Uiso   1.00
O1118  O     0.89345   0.12709   0.75001   0.00000  Uiso   1.00
O1119  O     0.89345   0.20625   0.75001   0.00000  Uiso   1.00
O1120  O     0.77321   0.12709   0.75000   0.00000  Uiso   1.00
O1121  O     0.83332   0.20627   0.68513   0.00000  Uiso   1.00
O1122  O     0.83334   0.12707   0.81487   0.00000  Uiso   1.00
O1123  O     0.83334   0.20627   0.81487   0.00000  Uiso   1.00
O1124  O     0.83332   0.12707   0.68513   0.00000  Uiso   1.00
N1125  N     0.90494   0.19014   0.88336   0.00000  Uiso   1.00
H1126  H     0.90948   0.17694   0.85181   0.00000  Uiso   1.00
C1127  C     0.90818   0.24084   0.88481   0.00000  Uiso   1.00
H1128  H     0.93840   0.25197   0.87193   0.00000  Uiso   1.00
H1129  H     0.90512   0.25386   0.91952   0.00000  Uiso   1.00
H1130  H     0.88426   0.25696   0.86409   0.00000  Uiso   1.00
N1131  N     0.76284   0.13613   0.61939   0.00000  Uiso   1.00
H1132  H     0.75808   0.15288   0.64935   0.00000  Uiso   1.00
C1133  C     0.75939   0.08557   0.62285   0.00000  Uiso   1.00
H1134  H     0.73062   0.07619   0.64032   0.00000  Uiso   1.00
H1135  H     0.78518   0.07117   0.64194   0.00000  Uiso   1.00
H1136  H     0.75897   0.06926   0.58926   0.00000  Uiso   1.00
Br1137 Br    0.74829   0.18353   0.87670   0.00000  Uiso   1.00
Br1138 Br    0.91444   0.20220   0.62354   0.00000  Uiso   1.00
Br1139 Br    0.71618   0.10972   0.95050   0.00000  Uiso   1.00
Br1140 Br    0.95362   0.13095   0.55152   0.00000  Uiso   1.00
N1141  N     0.72076   0.15601   0.54278   0.00000  Uiso   1.00
H1142  H     0.71030   0.13021   0.56392   0.00000  Uiso   1.00
C1143  C     0.71245   0.20391   0.55600   0.00000  Uiso   1.00
H1144  H     0.73414   0.21596   0.58172   0.00000  Uiso   1.00
H1145  H     0.68117   0.20638   0.56972   0.00000  Uiso   1.00
H1146  H     0.71509   0.22760   0.52679   0.00000  Uiso   1.00
N1147  N     0.94644   0.15765   0.95491   0.00000  Uiso   1.00
H1148  H     0.94797   0.13699   0.92678   0.00000  Uiso   1.00
C1149  C     0.97361   0.19790   0.95672   0.00000  Uiso   1.00
H1150  H     0.66760   0.18866   0.97578   0.00000  Uiso   1.00
H1151  H     0.95915   0.22857   0.97317   0.00000  Uiso   1.00
H1152  H     0.98334   0.20806   0.92261   0.00000  Uiso   1.00
N1153  N     0.70815   0.08293   0.77372   0.00000  Uiso   1.00
H1154  H     0.69690   0.05286   0.75908   0.00000  Uiso   1.00
C1155  C     0.71806   0.07729   0.82022   0.00000  Uiso   1.00
H1156  H     0.69266   0.08832   0.84216   0.00000  Uiso   1.00
H1157  H     0.74537   0.09845   0.82816   0.00000  Uiso   1.00
H1158  H     0.72489   0.03993   0.82721   0.00000  Uiso   1.00
N1159  N     0.95873   0.25082   0.73002   0.00000  Uiso   1.00
H1160  H     0.96933   0.26759   0.70182   0.00000  Uiso   1.00
C1161  C     0.95225   0.28253   0.76703   0.00000  Uiso   1.00
H1162  H     0.98152   0.29692   0.77931   0.00000  Uiso   1.00
H1163  H     0.93638   0.26421   0.79468   0.00000  Uiso   1.00
H1164  H     0.93290   0.31196   0.75621   0.00000  Uiso   1.00
N1165  N     0.95631   0.08441   0.77611   0.00000  Uiso   1.00
H1166  H     0.96392   0.05383   0.75996   0.00000  Uiso   1.00
C1167  C     0.94463   0.07942   0.82243   0.00000  Uiso   1.00
H1168  H     0.95988   0.04848   0.83702   0.00000  Uiso   1.00
H1169  H     0.91130   0.07379   0.82480   0.00000  Uiso   1.00
H1170  H     0.95289   0.11103   0.84218   0.00000  Uiso   1.00
N1171  N     0.71007   0.24708   0.72106   0.00000  Uiso   1.00
H1172  H     0.70242   0.27931   0.73404   0.00000  Uiso   1.00
C1173  C     0.71773   0.24708   0.67354   0.00000  Uiso   1.00
H1174  H     0.70149   0.27659   0.65765   0.00000  Uiso   1.00
H1175  H     0.70740   0.21381   0.65773   0.00000  Uiso   1.00
H1176  H     0.75079   0.25157   0.66730   0.00000  Uiso   1.00
C1177  C     0.08734   0.49977   0.74979   0.00000  Uiso   1.00
C1178  C     0.24600   0.50023   0.75102   0.00000  Uiso   1.00
C1179  C     0.09293   0.48240   0.52293   0.00000  Uiso   1.00
C1180  C     0.24150   0.49563   0.97685   0.00000  Uiso   1.00
C1181  C     0.02082   0.45855   0.76277   0.00000  Uiso   1.00
C1182  C     0.31268   0.54194   0.74115   0.00000  Uiso   1.00
C1183  C     0.31159   0.45922   0.76389   0.00000  Uiso   1.00
C1184  C     0.02175   0.54061   0.73805   0.00000  Uiso   1.00
C1185  C     0.29070   0.50074   0.75272   0.00000  Uiso   1.00
C1186  C     0.04269   0.49945   0.75006   0.00000  Uiso   1.00
C1187  C     0.18682   0.35831   0.71757   0.00000  Uiso   1.00
C1188  C     0.14665   0.64168   0.78250   0.00000  Uiso   1.00
C1189  C     0.14691   0.35796   0.78265   0.00000  Uiso   1.00
C1190  C     0.18681   0.64199   0.71757   0.00000  Uiso   1.00
C1191  C     0.16687   0.49988   0.66449   0.00000  Uiso   1.00
C1192  C     0.16650   0.50011   0.83553   0.00000  Uiso   1.00
C1193  C     0.20363   0.50517   0.90645   0.00000  Uiso   1.00
C1194  C     0.13048   0.48558   0.59423   0.00000  Uiso   1.00
C1195  C     0.16674   0.50010   0.88381   0.00000  Uiso   1.00
C1196  C     0.16628   0.49890   0.61625   0.00000  Uiso   1.00
C1197  C     0.12993   0.49549   0.90684   0.00000  Uiso   1.00
C1198  C     0.20255   0.50636   0.59275   0.00000  Uiso   1.00
C1199  C     0.13012   0.48777   0.95304   0.00000  Uiso   1.00
C1200  C     0.20377   0.49717   0.54674   0.00000  Uiso   1.00
C1201  C     0.16719   0.49223   0.97643   0.00000  Uiso   1.00
C1202  C     0.16683   0.49176   0.52346   0.00000  Uiso   1.00
C1203  C     0.20452   0.49839   0.95300   0.00000  Uiso   1.00
C1204  C     0.12956   0.48695   0.54718   0.00000  Uiso   1.00
C1205  C     0.09426   0.47708   0.97687   0.00000  Uiso   1.00
C1206  C     0.24059   0.49219   0.52331   0.00000  Uiso   1.00
Cu1207 Cu    0.16667   0.54689   0.75000   0.00000  Uiso   1.00
Cu1208 Cu    0.16667   0.45311   0.75000   0.00000  Uiso   1.00
H1209  H     0.20312   0.37714   0.69172   0.00000  Uiso   1.00
H1210  H     0.13053   0.62286   0.80850   0.00000  Uiso   1.00
H1211  H     0.13156   0.37646   0.80910   0.00000  Uiso   1.00
H1212  H     0.20318   0.62341   0.69177   0.00000  Uiso   1.00
N1213  N     0.16667   0.61736   0.75000   0.00000  Uiso   1.00
N1214  N     0.16667   0.38264   0.75000   0.00000  Uiso   1.00
O1215  O     0.10655   0.53958   0.75000   0.00000  Uiso   1.00
O1216  O     0.22679   0.46042   0.75001   0.00000  Uiso   1.00
O1217  O     0.22679   0.53958   0.75001   0.00000  Uiso   1.00
O1218  O     0.10655   0.46042   0.75000   0.00000  Uiso   1.00
O1219  O     0.16666   0.53960   0.68513   0.00000  Uiso   1.00
O1220  O     0.16668   0.46040   0.81487   0.00000  Uiso   1.00
O1221  O     0.16668   0.53960   0.81487   0.00000  Uiso   1.00
O1222  O     0.16666   0.46040   0.68513   0.00000  Uiso   1.00
N1223  N     0.23827   0.52348   0.88336   0.00000  Uiso   1.00
H1224  H     0.24281   0.51028   0.85181   0.00000  Uiso   1.00
C1225  C     0.24151   0.57417   0.88481   0.00000  Uiso   1.00
H1226  H     0.27173   0.58530   0.87193   0.00000  Uiso   1.00
H1227  H     0.23846   0.58719   0.91952   0.00000  Uiso   1.00
H1228  H     0.21760   0.59029   0.86409   0.00000  Uiso   1.00
N1229  N     0.09617   0.46947   0.61939   0.00000  Uiso   1.00
H1230  H     0.09141   0.48621   0.64935   0.00000  Uiso   1.00
C1231  C     0.09273   0.41890   0.62285   0.00000  Uiso   1.00
H1232  H     0.06396   0.40952   0.64032   0.00000  Uiso   1.00
H1233  H     0.11851   0.40451   0.64194   0.00000  Uiso   1.00
H1234  H     0.09230   0.40259   0.58926   0.00000  Uiso   1.00
Br1235 Br    0.08162   0.51686   0.87670   0.00000  Uiso   1.00
Br1236 Br    0.24778   0.53553   0.62354   0.00000  Uiso   1.00
Br1237 Br    0.04951   0.44305   0.95050   0.00000  Uiso   1.00
Br1238 Br    0.28696   0.46428   0.55152   0.00000  Uiso   1.00
N1239  N     0.05410   0.48934   0.54278   0.00000  Uiso   1.00
H1240  H     0.04363   0.46354   0.56392   0.00000  Uiso   1.00
C1241  C     0.04578   0.53724   0.55600   0.00000  Uiso   1.00
H1242  H     0.06747   0.54929   0.58172   0.00000  Uiso   1.00
H1243  H     0.01451   0.53972   0.56972   0.00000  Uiso   1.00
H1244  H     0.04842   0.56093   0.52679   0.00000  Uiso   1.00
N1245  N     0.27978   0.49098   0.95491   0.00000  Uiso   1.00
H1246  H     0.28130   0.47033   0.92678   0.00000  Uiso   1.00
C1247  C     0.30695   0.53124   0.95672   0.00000  Uiso   1.00
H1248  H     0.00093   0.52199   0.97578   0.00000  Uiso   1.00
H1249  H     0.29248   0.56191   0.97317   0.00000  Uiso   1.00
H1250  H     0.31667   0.54139   0.92261   0.00000  Uiso   1.00
N1251  N     0.04148   0.41627   0.77372   0.00000  Uiso   1.00
H1252  H     0.03023   0.38620   0.75908   0.00000  Uiso   1.00
C1253  C     0.05139   0.41063   0.82022   0.00000  Uiso   1.00
H1254  H     0.02600   0.42166   0.84216   0.00000  Uiso   1.00
H1255  H     0.07871   0.43178   0.82816   0.00000  Uiso   1.00
H1256  H     0.05823   0.37326   0.82721   0.00000  Uiso   1.00
N1257  N     0.29207   0.58415   0.73002   0.00000  Uiso   1.00
H1258  H     0.30267   0.60092   0.70182   0.00000  Uiso   1.00
C1259  C     0.28558   0.61586   0.76703   0.00000  Uiso   1.00
H1260  H     0.31485   0.63025   0.77931   0.00000  Uiso   1.00
H1261  H     0.26971   0.59755   0.79468   0.00000  Uiso   1.00
H1262  H     0.26623   0.64530   0.75621   0.00000  Uiso   1.00
N1263  N     0.28964   0.41774   0.77611   0.00000  Uiso   1.00
H1264  H     0.29726   0.38716   0.75996   0.00000  Uiso   1.00
C1265  C     0.27797   0.41276   0.82243   0.00000  Uiso   1.00
H1266  H     0.29321   0.38181   0.83702   0.00000  Uiso   1.00
H1267  H     0.24464   0.40713   0.82480   0.00000  Uiso   1.00
H1268  H     0.28622   0.44436   0.84218   0.00000  Uiso   1.00
N1269  N     0.04340   0.58041   0.72106   0.00000  Uiso   1.00
H1270  H     0.03575   0.61265   0.73404   0.00000  Uiso   1.00
C1271  C     0.05106   0.58041   0.67354   0.00000  Uiso   1.00
H1272  H     0.03482   0.60993   0.65765   0.00000  Uiso   1.00
H1273  H     0.04073   0.54714   0.65773   0.00000  Uiso   1.00
H1274  H     0.08412   0.58490   0.66730   0.00000  Uiso   1.00
C1275  C     0.42068   0.49977   0.74979   0.00000  Uiso   1.00
C1276  C     0.57934   0.50023   0.75102   0.00000  Uiso   1.00
C1277  C     0.42626   0.48240   0.52293   0.00000  Uiso   1.00
C1278  C     0.57484   0.49563   0.97685   0.00000  Uiso   1.00
C1279  C     0.35416   0.45855   0.76277   0.00000  Uiso   1.00
C1280  C     0.64601   0.54194   0.74115   0.00000  Uiso   1.00
C1281  C     0.64493   0.45922   0.76389   0.00000  Uiso   1.00
C1282  C     0.35508   0.54061   0.73805   0.00000  Uiso   1.00
C1283  C     0.62403   0.50074   0.75272   0.00000  Uiso   1.00
C1284  C     0.37602   0.49945   0.75006   0.00000  Uiso   1.00
C1285  C     0.52015   0.35831   0.71757   0.00000  Uiso   1.00
C1286  C     0.47998   0.64168   0.78250   0.00000  Uiso   1.00
C1287  C     0.48024   0.35796   0.78265   0.00000  Uiso   1.00
C1288  C     0.52015   0.64199   0.71757   0.00000  Uiso   1.00
C1289  C     0.50020   0.49988   0.66449   0.00000  Uiso   1.00
C1290  C     0.49983   0.50011   0.83553   0.00000  Uiso   1.00
C1291  C     0.53696   0.50517   0.90645   0.00000  Uiso   1.00
C1292  C     0.46381   0.48558   0.59423   0.00000  Uiso   1.00
C1293  C     0.50007   0.50010   0.88381   0.00000  Uiso   1.00
C1294  C     0.49961   0.49890   0.61625   0.00000  Uiso   1.00
C1295  C     0.46327   0.49549   0.90684   0.00000  Uiso   1.00
C1296  C     0.53588   0.50636   0.59275   0.00000  Uiso   1.00
C1297  C     0.46345   0.48777   0.95304   0.00000  Uiso   1.00
C1298  C     0.53710   0.49717   0.54674   0.00000  Uiso   1.00
C1299  C     0.50052   0.49223   0.97643   0.00000  Uiso   1.00
C1300  C     0.50016   0.49176   0.52346   0.00000  Uiso   1.00
C1301  C     0.53785   0.49839   0.95300   0.00000  Uiso   1.00
C1302  C     0.46289   0.48695   0.54718   0.00000  Uiso   1.00
C1303  C     0.42759   0.47708   0.97687   0.00000  Uiso   1.00
C1304  C     0.57392   0.49219   0.52331   0.00000  Uiso   1.00
Cu1305 Cu    0.50000   0.54689   0.75000   0.00000  Uiso   1.00
Cu1306 Cu    0.50000   0.45311   0.75000   0.00000  Uiso   1.00
H1307  H     0.53646   0.37714   0.69172   0.00000  Uiso   1.00
H1308  H     0.46387   0.62286   0.80850   0.00000  Uiso   1.00
H1309  H     0.46489   0.37646   0.80910   0.00000  Uiso   1.00
H1310  H     0.53652   0.62341   0.69177   0.00000  Uiso   1.00
N1311  N     0.50000   0.61736   0.75000   0.00000  Uiso   1.00
N1312  N     0.50000   0.38264   0.75000   0.00000  Uiso   1.00
O1313  O     0.43988   0.53958   0.75000   0.00000  Uiso   1.00
O1314  O     0.56012   0.46042   0.75001   0.00000  Uiso   1.00
O1315  O     0.56012   0.53958   0.75001   0.00000  Uiso   1.00
O1316  O     0.43988   0.46042   0.75000   0.00000  Uiso   1.00
O1317  O     0.49999   0.53960   0.68513   0.00000  Uiso   1.00
O1318  O     0.50001   0.46040   0.81487   0.00000  Uiso   1.00
O1319  O     0.50001   0.53960   0.81487   0.00000  Uiso   1.00
O1320  O     0.49999   0.46040   0.68513   0.00000  Uiso   1.00
N1321  N     0.57161   0.52348   0.88336   0.00000  Uiso   1.00
H1322  H     0.57615   0.51028   0.85181   0.00000  Uiso   1.00
C1323  C     0.57485   0.57417   0.88481   0.00000  Uiso   1.00
H1324  H     0.60507   0.58530   0.87193   0.00000  Uiso   1.00
H1325  H     0.57179   0.58719   0.91952   0.00000  Uiso   1.00
H1326  H     0.55093   0.59029   0.86409   0.00000  Uiso   1.00
N1327  N     0.42951   0.46947   0.61939   0.00000  Uiso   1.00
H1328  H     0.42474   0.48621   0.64935   0.00000  Uiso   1.00
C1329  C     0.42606   0.41890   0.62285   0.00000  Uiso   1.00
H1330  H     0.39729   0.40952   0.64032   0.00000  Uiso   1.00
H1331  H     0.45185   0.40451   0.64194   0.00000  Uiso   1.00
H1332  H     0.42563   0.40259   0.58926   0.00000  Uiso   1.00
Br1333 Br    0.41496   0.51686   0.87670   0.00000  Uiso   1.00
Br1334 Br    0.58111   0.53553   0.62354   0.00000  Uiso   1.00
Br1335 Br    0.38284   0.44305   0.95050   0.00000  Uiso   1.00
Br1336 Br    0.62029   0.46428   0.55152   0.00000  Uiso   1.00
N1337  N     0.38743   0.48934   0.54278   0.00000  Uiso   1.00
H1338  H     0.37697   0.46354   0.56392   0.00000  Uiso   1.00
C1339  C     0.37912   0.53724   0.55600   0.00000  Uiso   1.00
H1340  H     0.40081   0.54929   0.58172   0.00000  Uiso   1.00
H1341  H     0.34784   0.53972   0.56972   0.00000  Uiso   1.00
H1342  H     0.38175   0.56093   0.52679   0.00000  Uiso   1.00
N1343  N     0.61311   0.49098   0.95491   0.00000  Uiso   1.00
H1344  H     0.61464   0.47033   0.92678   0.00000  Uiso   1.00
C1345  C     0.64028   0.53124   0.95672   0.00000  Uiso   1.00
H1346  H     0.33426   0.52199   0.97578   0.00000  Uiso   1.00
H1347  H     0.62582   0.56191   0.97317   0.00000  Uiso   1.00
H1348  H     0.65000   0.54139   0.92261   0.00000  Uiso   1.00
N1349  N     0.37481   0.41627   0.77372   0.00000  Uiso   1.00
H1350  H     0.36357   0.38620   0.75908   0.00000  Uiso   1.00
C1351  C     0.38473   0.41063   0.82022   0.00000  Uiso   1.00
H1352  H     0.35933   0.42166   0.84216   0.00000  Uiso   1.00
H1353  H     0.41204   0.43178   0.82816   0.00000  Uiso   1.00
H1354  H     0.39156   0.37326   0.82721   0.00000  Uiso   1.00
N1355  N     0.62540   0.58415   0.73002   0.00000  Uiso   1.00
H1356  H     0.63600   0.60092   0.70182   0.00000  Uiso   1.00
C1357  C     0.61892   0.61586   0.76703   0.00000  Uiso   1.00
H1358  H     0.64818   0.63025   0.77931   0.00000  Uiso   1.00
H1359  H     0.60305   0.59755   0.79468   0.00000  Uiso   1.00
H1360  H     0.59956   0.64530   0.75621   0.00000  Uiso   1.00
N1361  N     0.62298   0.41774   0.77611   0.00000  Uiso   1.00
H1362  H     0.63059   0.38716   0.75996   0.00000  Uiso   1.00
C1363  C     0.61130   0.41276   0.82243   0.00000  Uiso   1.00
H1364  H     0.62655   0.38181   0.83702   0.00000  Uiso   1.00
H1365  H     0.57797   0.40713   0.82480   0.00000  Uiso   1.00
H1366  H     0.61956   0.44436   0.84218   0.00000  Uiso   1.00
N1367  N     0.37673   0.58041   0.72106   0.00000  Uiso   1.00
H1368  H     0.36908   0.61265   0.73404   0.00000  Uiso   1.00
C1369  C     0.38439   0.58041   0.67354   0.00000  Uiso   1.00
H1370  H     0.36815   0.60993   0.65765   0.00000  Uiso   1.00
H1371  H     0.37407   0.54714   0.65773   0.00000  Uiso   1.00
H1372  H     0.41746   0.58490   0.66730   0.00000  Uiso   1.00
C1373  C     0.75401   0.49977   0.74979   0.00000  Uiso   1.00
C1374  C     0.91267   0.50023   0.75102   0.00000  Uiso   1.00
C1375  C     0.75960   0.48240   0.52293   0.00000  Uiso   1.00
C1376  C     0.90817   0.49563   0.97685   0.00000  Uiso   1.00
C1377  C     0.68749   0.45855   0.76277   0.00000  Uiso   1.00
C1378  C     0.97935   0.54194   0.74115   0.00000  Uiso   1.00
C1379  C     0.97826   0.45922   0.76389   0.00000  Uiso   1.00
C1380  C     0.68841   0.54061   0.73805   0.00000  Uiso   1.00
C1381  C     0.95736   0.50074   0.75272   0.00000  Uiso   1.00
C1382  C     0.70935   0.49945   0.75006   0.00000  Uiso   1.00
C1383  C     0.85348   0.35831   0.71757   0.00000  Uiso   1.00
C1384  C     0.81332   0.64168   0.78250   0.00000  Uiso   1.00
C1385  C     0.81358   0.35796   0.78265   0.00000  Uiso   1.00
C1386  C     0.85348   0.64199   0.71757   0.00000  Uiso   1.00
C1387  C     0.83354   0.49988   0.66449   0.00000  Uiso   1.00
C1388  C     0.83317   0.50011   0.83553   0.00000  Uiso   1.00
C1389  C     0.87029   0.50517   0.90645   0.00000  Uiso   1.00
C1390  C     0.79714   0.48558   0.59423   0.00000  Uiso   1.00
C1391  C     0.83340   0.50010   0.88381   0.00000  Uiso   1.00
C1392  C     0.83294   0.49890   0.61625   0.00000  Uiso   1.00
C1393  C     0.79660   0.49549   0.90684   0.00000  Uiso   1.00
C1394  C     0.86922   0.50636   0.59275   0.00000  Uiso   1.00
C1395  C     0.79678   0.48777   0.95304   0.00000  Uiso   1.00
C1396  C     0.87044   0.49717   0.54674   0.00000  Uiso   1.00
C1397  C     0.83385   0.49223   0.97643   0.00000  Uiso   1.00
C1398  C     0.83350   0.49176   0.52346   0.00000  Uiso   1.00
C1399  C     0.87119   0.49839   0.95300   0.00000  Uiso   1.00
C1400  C     0.79623   0.48695   0.54718   0.00000  Uiso   1.00
C1401  C     0.76092   0.47708   0.97687   0.00000  Uiso   1.00
C1402  C     0.90725   0.49219   0.52331   0.00000  Uiso   1.00
Cu1403 Cu    0.83333   0.54689   0.75000   0.00000  Uiso   1.00
Cu1404 Cu    0.83333   0.45311   0.75000   0.00000  Uiso   1.00
H1405  H     0.86979   0.37714   0.69172   0.00000  Uiso   1.00
H1406  H     0.79720   0.62286   0.80850   0.00000  Uiso   1.00
H1407  H     0.79823   0.37646   0.80910   0.00000  Uiso   1.00
H1408  H     0.86985   0.62341   0.69177   0.00000  Uiso   1.00
N1409  N     0.83333   0.61736   0.75000   0.00000  Uiso   1.00
N1410  N     0.83333   0.38264   0.75000   0.00000  Uiso   1.00
O1411  O     0.77321   0.53958   0.75000   0.00000  Uiso   1.00
O1412  O     0.89345   0.46042   0.75001   0.00000  Uiso   1.00
O1413  O     0.89345   0.53958   0.75001   0.00000  Uiso   1.00
O1414  O     0.77321   0.46042   0.75000   0.00000  Uiso   1.00
O1415  O     0.83332   0.53960   0.68513   0.00000  Uiso   1.00
O1416  O     0.83334   0.46040   0.81487   0.00000  Uiso   1.00
O1417  O     0.83334   0.53960   0.81487   0.00000  Uiso   1.00
O1418  O     0.83332   0.46040   0.68513   0.00000  Uiso   1.00
N1419  N     0.90494   0.52348   0.88336   0.00000  Uiso   1.00
H1420  H     0.90948   0.51028   0.85181   0.00000  Uiso   1.00
C1421  C     0.90818   0.57417   0.88481   0.00000  Uiso   1.00
H1422  H     0.93840   0.58530   0.87193   0.00000  Uiso   1.00
H1423  H     0.90512   0.58719   0.91952   0.00000  Uiso   1.00
H1424  H     0.88426   0.59029   0.86409   0.00000  Uiso   1.00
N1425  N     0.76284   0.46947   0.61939   0.00000  Uiso   1.00
H1426  H     0.75808   0.48621   0.64935   0.00000  Uiso   1.00
C1427  C     0.75939   0.41890   0.62285   0.00000  Uiso   1.00
H1428  H     0.73062   0.40952   0.64032   0.00000  Uiso   1.00
H1429  H     0.78518   0.40451   0.64194   0.00000  Uiso   1.00
H1430  H     0.75897   0.40259   0.58926   0.00000  Uiso   1.00
Br1431 Br    0.74829   0.51686   0.87670   0.00000  Uiso   1.00
Br1432 Br    0.91444   0.53553   0.62354   0.00000  Uiso   1.00
Br1433 Br    0.71618   0.44305   0.95050   0.00000  Uiso   1.00
Br1434 Br    0.95362   0.46428   0.55152   0.00000  Uiso   1.00
N1435  N     0.72076   0.48934   0.54278   0.00000  Uiso   1.00
H1436  H     0.71030   0.46354   0.56392   0.00000  Uiso   1.00
C1437  C     0.71245   0.53724   0.55600   0.00000  Uiso   1.00
H1438  H     0.73414   0.54929   0.58172   0.00000  Uiso   1.00
H1439  H     0.68117   0.53972   0.56972   0.00000  Uiso   1.00
H1440  H     0.71509   0.56093   0.52679   0.00000  Uiso   1.00
N1441  N     0.94644   0.49098   0.95491   0.00000  Uiso   1.00
H1442  H     0.94797   0.47033   0.92678   0.00000  Uiso   1.00
C1443  C     0.97361   0.53124   0.95672   0.00000  Uiso   1.00
H1444  H     0.66760   0.52199   0.97578   0.00000  Uiso   1.00
H1445  H     0.95915   0.56191   0.97317   0.00000  Uiso   1.00
H1446  H     0.98334   0.54139   0.92261   0.00000  Uiso   1.00
N1447  N     0.70815   0.41627   0.77372   0.00000  Uiso   1.00
H1448  H     0.69690   0.38620   0.75908   0.00000  Uiso   1.00
C1449  C     0.71806   0.41063   0.82022   0.00000  Uiso   1.00
H1450  H     0.69266   0.42166   0.84216   0.00000  Uiso   1.00
H1451  H     0.74537   0.43178   0.82816   0.00000  Uiso   1.00
H1452  H     0.72489   0.37326   0.82721   0.00000  Uiso   1.00
N1453  N     0.95873   0.58415   0.73002   0.00000  Uiso   1.00
H1454  H     0.96933   0.60092   0.70182   0.00000  Uiso   1.00
C1455  C     0.95225   0.61586   0.76703   0.00000  Uiso   1.00
H1456  H     0.98152   0.63025   0.77931   0.00000  Uiso   1.00
H1457  H     0.93638   0.59755   0.79468   0.00000  Uiso   1.00
H1458  H     0.93290   0.64530   0.75621   0.00000  Uiso   1.00
N1459  N     0.95631   0.41774   0.77611   0.00000  Uiso   1.00
H1460  H     0.96392   0.38716   0.75996   0.00000  Uiso   1.00
C1461  C     0.94463   0.41276   0.82243   0.00000  Uiso   1.00
H1462  H     0.95988   0.38181   0.83702   0.00000  Uiso   1.00
H1463  H     0.91130   0.40713   0.82480   0.00000  Uiso   1.00
H1464  H     0.95289   0.44436   0.84218   0.00000  Uiso   1.00
N1465  N     0.71007   0.58041   0.72106   0.00000  Uiso   1.00
H1466  H     0.70242   0.61265   0.73404   0.00000  Uiso   1.00
C1467  C     0.71773   0.58041   0.67354   0.00000  Uiso   1.00
H1468  H     0.70149   0.60993   0.65765   0.00000  Uiso   1.00
H1469  H     0.70740   0.54714   0.65773   0.00000  Uiso   1.00
H1470  H     0.75079   0.58490   0.66730   0.00000  Uiso   1.00
C1471  C     0.08734   0.83311   0.74979   0.00000  Uiso   1.00
C1472  C     0.24600   0.83357   0.75102   0.00000  Uiso   1.00
C1473  C     0.09293   0.81574   0.52293   0.00000  Uiso   1.00
C1474  C     0.24150   0.82896   0.97685   0.00000  Uiso   1.00
C1475  C     0.02082   0.79188   0.76277   0.00000  Uiso   1.00
C1476  C     0.31268   0.87527   0.74115   0.00000  Uiso   1.00
C1477  C     0.31159   0.79255   0.76389   0.00000  Uiso   1.00
C1478  C     0.02175   0.87394   0.73805   0.00000  Uiso   1.00
C1479  C     0.29070   0.83407   0.75272   0.00000  Uiso   1.00
C1480  C     0.04269   0.83278   0.75006   0.00000  Uiso   1.00
C1481  C     0.18682   0.69164   0.71757   0.00000  Uiso   1.00
C1482  C     0.14665   0.97501   0.78250   0.00000  Uiso   1.00
C1483  C     0.14691   0.69129   0.78265   0.00000  Uiso   1.00
C1484  C     0.18681   0.97533   0.71757   0.00000  Uiso   1.00
C1485  C     0.16687   0.83321   0.66449   0.00000  Uiso   1.00
C1486  C     0.16650   0.83345   0.83553   0.00000  Uiso   1.00
C1487  C     0.20363   0.83850   0.90645   0.00000  Uiso   1.00
C1488  C     0.13048   0.81891   0.59423   0.00000  Uiso   1.00
C1489  C     0.16674   0.83343   0.88381   0.00000  Uiso   1.00
C1490  C     0.16628   0.83223   0.61625   0.00000  Uiso   1.00
C1491  C     0.12993   0.82882   0.90684   0.00000  Uiso   1.00
C1492  C     0.20255   0.83969   0.59275   0.00000  Uiso   1.00
C1493  C     0.13012   0.82111   0.95304   0.00000  Uiso   1.00
C1494  C     0.20377   0.83050   0.54674   0.00000  Uiso   1.00
C1495  C     0.16719   0.82556   0.97643   0.00000  Uiso   1.00
C1496  C     0.16683   0.82509   0.52346   0.00000  Uiso   1.00
C1497  C     0.20452   0.83172   0.95300   0.00000  Uiso   1.00
C1498  C     0.12956   0.82028   0.54718   0.00000  Uiso   1.00
C1499  C     0.09426   0.81041   0.97687   0.00000  Uiso   1.00
C1500  C     0.24059   0.82553   0.52331   0.00000  Uiso   1.00
Cu1501 Cu    0.16667   0.88022   0.75000   0.00000  Uiso   1.00
Cu1502 Cu    0.16667   0.78645   0.75000   0.00000  Uiso   1.00
H1503  H     0.20312   0.71047   0.69172   0.00000  Uiso   1.00
H1504  H     0.13053   0.95619   0.80850   0.00000  Uiso   1.00
H1505  H     0.13156   0.70980   0.80910   0.00000  Uiso   1.00
H1506  H     0.20318   0.95674   0.69177   0.00000  Uiso   1.00
N1507  N     0.16667   0.95069   0.75000   0.00000  Uiso   1.00
N1508  N     0.16667   0.71598   0.75000   0.00000  Uiso   1.00
O1509  O     0.10655   0.87291   0.75000   0.00000  Uiso   1.00
O1510  O     0.22679   0.79375   0.75001   0.00000  Uiso   1.00
O1511  O     0.22679   0.87291   0.75001   0.00000  Uiso   1.00
O1512  O     0.10655   0.79375   0.75000   0.00000  Uiso   1.00
O1513  O     0.16666   0.87293   0.68513   0.00000  Uiso   1.00
O1514  O     0.16668   0.79373   0.81487   0.00000  Uiso   1.00
O1515  O     0.16668   0.87293   0.81487   0.00000  Uiso   1.00
O1516  O     0.16666   0.79373   0.68513   0.00000  Uiso   1.00
N1517  N     0.23827   0.85681   0.88336   0.00000  Uiso   1.00
H1518  H     0.24281   0.84361   0.85181   0.00000  Uiso   1.00
C1519  C     0.24151   0.90750   0.88481   0.00000  Uiso   1.00
H1520  H     0.27173   0.91863   0.87193   0.00000  Uiso   1.00
H1521  H     0.23846   0.92052   0.91952   0.00000  Uiso   1.00
H1522  H     0.21760   0.92363   0.86409   0.00000  Uiso   1.00
N1523  N     0.09617   0.80280   0.61939   0.00000  Uiso   1.00
H1524  H     0.09141   0.81955   0.64935   0.00000  Uiso   1.00
C1525  C     0.09273   0.75224   0.62285   0.00000  Uiso   1.00
H1526  H     0.06396   0.74285   0.64032   0.00000  Uiso   1.00
H1527  H     0.11851   0.73784   0.64194   0.00000  Uiso   1.00
H1528  H     0.09230   0.73592   0.58926   0.00000  Uiso   1.00
Br1529 Br    0.08162   0.85019   0.87670   0.00000  Uiso   1.00
Br1530 Br    0.24778   0.86887   0.62354   0.00000  Uiso   1.00
Br1531 Br    0.04951   0.77638   0.95050   0.00000  Uiso   1.00
Br1532 Br    0.28696   0.79761   0.55152   0.00000  Uiso   1.00
N1533  N     0.05410   0.82267   0.54278   0.00000  Uiso   1.00
H1534  H     0.04363   0.79687   0.56392   0.00000  Uiso   1.00
C1535  C     0.04578   0.87057   0.55600   0.00000  Uiso   1.00
H1536  H     0.06747   0.88263   0.58172   0.00000  Uiso   1.00
H1537  H     0.01451   0.87305   0.56972   0.00000  Uiso   1.00
H1538  H     0.04842   0.89426   0.52679   0.00000  Uiso   1.00
N1539  N     0.27978   0.82432   0.95491   0.00000  Uiso   1.00
H1540  H     0.28130   0.80366   0.92678   0.00000  Uiso   1.00
C1541  C     0.30695   0.86457   0.95672   0.00000  Uiso   1.00
H1542  H     0.00093   0.85532   0.97578   0.00000  Uiso   1.00
H1543  H     0.29248   0.89524   0.97317   0.00000  Uiso   1.00
H1544  H     0.31667   0.87472   0.92261   0.00000  Uiso   1.00
N1545  N     0.04148   0.74960   0.77372   0.00000  Uiso   1.00
H1546  H     0.03023   0.71953   0.75908   0.00000  Uiso   1.00
C1547  C     0.05139   0.74396   0.82022   0.00000  Uiso   1.00
H1548  H     0.02600   0.75499   0.84216   0.00000  Uiso   1.00
H1549  H     0.07871   0.76512   0.82816   0.00000  Uiso   1.00
H1550  H     0.05823   0.70659   0.82721   0.00000  Uiso   1.00
N1551  N     0.29207   0.91749   0.73002   0.00000  Uiso   1.00
H1552  H     0.30267   0.93425   0.70182   0.00000  Uiso   1.00
C1553  C     0.28558   0.94920   0.76703   0.00000  Uiso   1.00
H1554  H     0.31485   0.96358   0.77931   0.00000  Uiso   1.00
H1555  H     0.26971   0.93088   0.79468   0.00000  Uiso   1.00
H1556  H     0.26623   0.97863   0.75621   0.00000  Uiso   1.00
N1557  N     0.28964   0.75108   0.77611   0.00000  Uiso   1.00
H1558  H     0.29726   0.72050   0.75996   0.00000  Uiso   1.00
C1559  C     0.27797   0.74609   0.82243   0.00000  Uiso   1.00
H1560  H     0.29321   0.71514   0.83702   0.00000  Uiso   1.00
H1561  H     0.24464   0.74046   0.82480   0.00000  Uiso   1.00
H1562  H     0.28622   0.77769   0.84218   0.00000  Uiso   1.00
N1563  N     0.04340   0.91375   0.72106   0.00000  Uiso   1.00
H1564  H     0.03575   0.94598   0.73404   0.00000  Uiso   1.00
C1565  C     0.05106   0.91374   0.67354   0.00000  Uiso   1.00
H1566  H     0.03482   0.94326   0.65765   0.00000  Uiso   1.00
H1567  H     0.04073   0.88048   0.65773   0.00000  Uiso   1.00
H1568  H     0.08412   0.91823   0.66730   0.00000  Uiso   1.00
C1569  C     0.42068   0.83311   0.74979   0.00000  Uiso   1.00
C1570  C     0.57934   0.83357   0.75102   0.00000  Uiso   1.00
C1571  C     0.42626   0.81574   0.52293   0.00000  Uiso   1.00
C1572  C     0.57484   0.82896   0.97685   0.00000  Uiso   1.00
C1573  C     0.35416   0.79188   0.76277   0.00000  Uiso   1.00
C1574  C     0.64601   0.87527   0.74115   0.00000  Uiso   1.00
C1575  C     0.64493   0.79255   0.76389   0.00000  Uiso   1.00
C1576  C     0.35508   0.87394   0.73805   0.00000  Uiso   1.00
C1577  C     0.62403   0.83407   0.75272   0.00000  Uiso   1.00
C1578  C     0.37602   0.83278   0.75006   0.00000  Uiso   1.00
C1579  C     0.52015   0.69164   0.71757   0.00000  Uiso   1.00
C1580  C     0.47998   0.97501   0.78250   0.00000  Uiso   1.00
C1581  C     0.48024   0.69129   0.78265   0.00000  Uiso   1.00
C1582  C     0.52015   0.97533   0.71757   0.00000  Uiso   1.00
C1583  C     0.50020   0.83321   0.66449   0.00000  Uiso   1.00
C1584  C     0.49983   0.83345   0.83553   0.00000  Uiso   1.00
C1585  C     0.53696   0.83850   0.90645   0.00000  Uiso   1.00
C1586  C     0.46381   0.81891   0.59423   0.00000  Uiso   1.00
C1587  C     0.50007   0.83343   0.88381   0.00000  Uiso   1.00
C1588  C     0.49961   0.83223   0.61625   0.00000  Uiso   1.00
C1589  C     0.46327   0.82882   0.90684   0.00000  Uiso   1.00
C1590  C     0.53588   0.83969   0.59275   0.00000  Uiso   1.00
C1591  C     0.46345   0.82111   0.95304   0.00000  Uiso   1.00
C1592  C     0.53710   0.83050   0.54674   0.00000  Uiso   1.00
C1593  C     0.50052   0.82556   0.97643   0.00000  Uiso   1.00
C1594  C     0.50016   0.82509   0.52346   0.00000  Uiso   1.00
C1595  C     0.53785   0.83172   0.95300   0.00000  Uiso   1.00
C1596  C     0.46289   0.82028   0.54718   0.00000  Uiso   1.00
C1597  C     0.42759   0.81041   0.97687   0.00000  Uiso   1.00
C1598  C     0.57392   0.82553   0.52331   0.00000  Uiso   1.00
Cu1599 Cu    0.50000   0.88022   0.75000   0.00000  Uiso   1.00
Cu1600 Cu    0.50000   0.78645   0.75000   0.00000  Uiso   1.00
H1601  H     0.53646   0.71047   0.69172   0.00000  Uiso   1.00
H1602  H     0.46387   0.95619   0.80850   0.00000  Uiso   1.00
H1603  H     0.46489   0.70980   0.80910   0.00000  Uiso   1.00
H1604  H     0.53652   0.95674   0.69177   0.00000  Uiso   1.00
N1605  N     0.50000   0.95069   0.75000   0.00000  Uiso   1.00
N1606  N     0.50000   0.71598   0.75000   0.00000  Uiso   1.00
O1607  O     0.43988   0.87291   0.75000   0.00000  Uiso   1.00
O1608  O     0.56012   0.79375   0.75001   0.00000  Uiso   1.00
O1609  O     0.56012   0.87291   0.75001   0.00000  Uiso   1.00
O1610  O     0.43988   0.79375   0.75000   0.00000  Uiso   1.00
O1611  O     0.49999   0.87293   0.68513   0.00000  Uiso   1.00
O1612  O     0.50001   0.79373   0.81487   0.00000  Uiso   1.00
O1613  O     0.50001   0.87293   0.81487   0.00000  Uiso   1.00
O1614  O     0.49999   0.79373   0.68513   0.00000  Uiso   1.00
N1615  N     0.57161   0.85681   0.88336   0.00000  Uiso   1.00
H1616  H     0.57615   0.84361   0.85181   0.00000  Uiso   1.00
C1617  C     0.57485   0.90750   0.88481   0.00000  Uiso   1.00
H1618  H     0.60507   0.91863   0.87193   0.00000  Uiso   1.00
H1619  H     0.57179   0.92052   0.91952   0.00000  Uiso   1.00
H1620  H     0.55093   0.92363   0.86409   0.00000  Uiso   1.00
N1621  N     0.42951   0.80280   0.61939   0.00000  Uiso   1.00
H1622  H     0.42474   0.81955   0.64935   0.00000  Uiso   1.00
C1623  C     0.42606   0.75224   0.62285   0.00000  Uiso   1.00
H1624  H     0.39729   0.74285   0.64032   0.00000  Uiso   1.00
H1625  H     0.45185   0.73784   0.64194   0.00000  Uiso   1.00
H1626  H     0.42563   0.73592   0.58926   0.00000  Uiso   1.00
Br1627 Br    0.41496   0.85019   0.87670   0.00000  Uiso   1.00
Br1628 Br    0.58111   0.86887   0.62354   0.00000  Uiso   1.00
Br1629 Br    0.38284   0.77638   0.95050   0.00000  Uiso   1.00
Br1630 Br    0.62029   0.79761   0.55152   0.00000  Uiso   1.00
N1631  N     0.38743   0.82267   0.54278   0.00000  Uiso   1.00
H1632  H     0.37697   0.79687   0.56392   0.00000  Uiso   1.00
C1633  C     0.37912   0.87057   0.55600   0.00000  Uiso   1.00
H1634  H     0.40081   0.88263   0.58172   0.00000  Uiso   1.00
H1635  H     0.34784   0.87305   0.56972   0.00000  Uiso   1.00
H1636  H     0.38175   0.89426   0.52679   0.00000  Uiso   1.00
N1637  N     0.61311   0.82432   0.95491   0.00000  Uiso   1.00
H1638  H     0.61464   0.80366   0.92678   0.00000  Uiso   1.00
C1639  C     0.64028   0.86457   0.95672   0.00000  Uiso   1.00
H1640  H     0.33426   0.85532   0.97578   0.00000  Uiso   1.00
H1641  H     0.62582   0.89524   0.97317   0.00000  Uiso   1.00
H1642  H     0.65000   0.87472   0.92261   0.00000  Uiso   1.00
N1643  N     0.37481   0.74960   0.77372   0.00000  Uiso   1.00
H1644  H     0.36357   0.71953   0.75908   0.00000  Uiso   1.00
C1645  C     0.38473   0.74396   0.82022   0.00000  Uiso   1.00
H1646  H     0.35933   0.75499   0.84216   0.00000  Uiso   1.00
H1647  H     0.41204   0.76512   0.82816   0.00000  Uiso   1.00
H1648  H     0.39156   0.70659   0.82721   0.00000  Uiso   1.00
N1649  N     0.62540   0.91749   0.73002   0.00000  Uiso   1.00
H1650  H     0.63600   0.93425   0.70182   0.00000  Uiso   1.00
C1651  C     0.61892   0.94920   0.76703   0.00000  Uiso   1.00
H1652  H     0.64818   0.96358   0.77931   0.00000  Uiso   1.00
H1653  H     0.60305   0.93088   0.79468   0.00000  Uiso   1.00
H1654  H     0.59956   0.97863   0.75621   0.00000  Uiso   1.00
N1655  N     0.62298   0.75108   0.77611   0.00000  Uiso   1.00
H1656  H     0.63059   0.72050   0.75996   0.00000  Uiso   1.00
C1657  C     0.61130   0.74609   0.82243   0.00000  Uiso   1.00
H1658  H     0.62655   0.71514   0.83702   0.00000  Uiso   1.00
H1659  H     0.57797   0.74046   0.82480   0.00000  Uiso   1.00
H1660  H     0.61956   0.77769   0.84218   0.00000  Uiso   1.00
N1661  N     0.37673   0.91375   0.72106   0.00000  Uiso   1.00
H1662  H     0.36908   0.94598   0.73404   0.00000  Uiso   1.00
C1663  C     0.38439   0.91374   0.67354   0.00000  Uiso   1.00
H1664  H     0.36815   0.94326   0.65765   0.00000  Uiso   1.00
H1665  H     0.37407   0.88048   0.65773   0.00000  Uiso   1.00
H1666  H     0.41746   0.91823   0.66730   0.00000  Uiso   1.00
C1667  C     0.75401   0.83311   0.74979   0.00000  Uiso   1.00
C1668  C     0.91267   0.83357   0.75102   0.00000  Uiso   1.00
C1669  C     0.75960   0.81574   0.52293   0.00000  Uiso   1.00
C1670  C     0.90817   0.82896   0.97685   0.00000  Uiso   1.00
C1671  C     0.68749   0.79188   0.76277   0.00000  Uiso   1.00
C1672  C     0.97935   0.87527   0.74115   0.00000  Uiso   1.00
C1673  C     0.97826   0.79255   0.76389   0.00000  Uiso   1.00
C1674  C     0.68841   0.87394   0.73805   0.00000  Uiso   1.00
C1675  C     0.95736   0.83407   0.75272   0.00000  Uiso   1.00
C1676  C     0.70935   0.83278   0.75006   0.00000  Uiso   1.00
C1677  C     0.85348   0.69164   0.71757   0.00000  Uiso   1.00
C1678  C     0.81332   0.97501   0.78250   0.00000  Uiso   1.00
C1679  C     0.81358   0.69129   0.78265   0.00000  Uiso   1.00
C1680  C     0.85348   0.97533   0.71757   0.00000  Uiso   1.00
C1681  C     0.83354   0.83321   0.66449   0.00000  Uiso   1.00
C1682  C     0.83317   0.83345   0.83553   0.00000  Uiso   1.00
C1683  C     0.87029   0.83850   0.90645   0.00000  Uiso   1.00
C1684  C     0.79714   0.81891   0.59423   0.00000  Uiso   1.00
C1685  C     0.83340   0.83343   0.88381   0.00000  Uiso   1.00
C1686  C     0.83294   0.83223   0.61625   0.00000  Uiso   1.00
C1687  C     0.79660   0.82882   0.90684   0.00000  Uiso   1.00
C1688  C     0.86922   0.83969   0.59275   0.00000  Uiso   1.00
C1689  C     0.79678   0.82111   0.95304   0.00000  Uiso   1.00
C1690  C     0.87044   0.83050   0.54674   0.00000  Uiso   1.00
C1691  C     0.83385   0.82556   0.97643   0.00000  Uiso   1.00
C1692  C     0.83350   0.82509   0.52346   0.00000  Uiso   1.00
C1693  C     0.87119   0.83172   0.95300   0.00000  Uiso   1.00
C1694  C     0.79623   0.82028   0.54718   0.00000  Uiso   1.00
C1695  C     0.76092   0.81041   0.97687   0.00000  Uiso   1.00
C1696  C     0.90725   0.82553   0.52331   0.00000  Uiso   1.00
Cu1697 Cu    0.83333   0.88022   0.75000   0.00000  Uiso   1.00
Cu1698 Cu    0.83333   0.78645   0.75000   0.00000  Uiso   1.00
H1699  H     0.86979   0.71047   0.69172   0.00000  Uiso   1.00
H1700  H     0.79720   0.95619   0.80850   0.00000  Uiso   1.00
H1701  H     0.79823   0.70980   0.80910   0.00000  Uiso   1.00
H1702  H     0.86985   0.95674   0.69177   0.00000  Uiso   1.00
N1703  N     0.83333   0.95069   0.75000   0.00000  Uiso   1.00
N1704  N     0.83333   0.71598   0.75000   0.00000  Uiso   1.00
O1705  O     0.77321   0.87291   0.75000   0.00000  Uiso   1.00
O1706  O     0.89345   0.79375   0.75001   0.00000  Uiso   1.00
O1707  O     0.89345   0.87291   0.75001   0.00000  Uiso   1.00
O1708  O     0.77321   0.79375   0.75000   0.00000  Uiso   1.00
O1709  O     0.83332   0.87293   0.68513   0.00000  Uiso   1.00
O1710  O     0.83334   0.79373   0.81487   0.00000  Uiso   1.00
O1711  O     0.83334   0.87293   0.81487   0.00000  Uiso   1.00
O1712  O     0.83332   0.79373   0.68513   0.00000  Uiso   1.00
N1713  N     0.90494   0.85681   0.88336   0.00000  Uiso   1.00
H1714  H     0.90948   0.84361   0.85181   0.00000  Uiso   1.00
C1715  C     0.90818   0.90750   0.88481   0.00000  Uiso   1.00
H1716  H     0.93840   0.91863   0.87193   0.00000  Uiso   1.00
H1717  H     0.90512   0.92052   0.91952   0.00000  Uiso   1.00
H1718  H     0.88426   0.92363   0.86409   0.00000  Uiso   1.00
N1719  N     0.76284   0.80280   0.61939   0.00000  Uiso   1.00
H1720  H     0.75808   0.81955   0.64935   0.00000  Uiso   1.00
C1721  C     0.75939   0.75224   0.62285   0.00000  Uiso   1.00
H1722  H     0.73062   0.74285   0.64032   0.00000  Uiso   1.00
H1723  H     0.78518   0.73784   0.64194   0.00000  Uiso   1.00
H1724  H     0.75897   0.73592   0.58926   0.00000  Uiso   1.00
Br1725 Br    0.74829   0.85019   0.87670   0.00000  Uiso   1.00
Br1726 Br    0.91444   0.86887   0.62354   0.00000  Uiso   1.00
Br1727 Br    0.71618   0.77638   0.95050   0.00000  Uiso   1.00
Br1728 Br    0.95362   0.79761   0.55152   0.00000  Uiso   1.00
N1729  N     0.72076   0.82267   0.54278   0.00000  Uiso   1.00
H1730  H     0.71030   0.79687   0.56392   0.00000  Uiso   1.00
C1731  C     0.71245   0.87057   0.55600   0.00000  Uiso   1.00
H1732  H     0.73414   0.88263   0.58172   0.00000  Uiso   1.00
H1733  H     0.68117   0.87305   0.56972   0.00000  Uiso   1.00
H1734  H     0.71509   0.89426   0.52679   0.00000  Uiso   1.00
N1735  N     0.94644   0.82432   0.95491   0.00000  Uiso   1.00
H1736  H     0.94797   0.80366   0.92678   0.00000  Uiso   1.00
C1737  C     0.97361   0.86457   0.95672   0.00000  Uiso   1.00
H1738  H     0.66760   0.85532   0.97578   0.00000  Uiso   1.00
H1739  H     0.95915   0.89524   0.97317   0.00000  Uiso   1.00
H1740  H     0.98334   0.87472   0.92261   0.00000  Uiso   1.00
N1741  N     0.70815   0.74960   0.77372   0.00000  Uiso   1.00
H1742  H     0.69690   0.71953   0.75908   0.00000  Uiso   1.00
C1743  C     0.71806   0.74396   0.82022   0.00000  Uiso   1.00
H1744  H     0.69266   0.75499   0.84216   0.00000  Uiso   1.00
H1745  H     0.74537   0.76512   0.82816   0.00000  Uiso   1.00
H1746  H     0.72489   0.70659   0.82721   0.00000  Uiso   1.00
N1747  N     0.95873   0.91749   0.73002   0.00000  Uiso   1.00
H1748  H     0.96933   0.93425   0.70182   0.00000  Uiso   1.00
C1749  C     0.95225   0.94920   0.76703   0.00000  Uiso   1.00
H1750  H     0.98152   0.96358   0.77931   0.00000  Uiso   1.00
H1751  H     0.93638   0.93088   0.79468   0.00000  Uiso   1.00
H1752  H     0.93290   0.97863   0.75621   0.00000  Uiso   1.00
N1753  N     0.95631   0.75108   0.77611   0.00000  Uiso   1.00
H1754  H     0.96392   0.72050   0.75996   0.00000  Uiso   1.00
C1755  C     0.94463   0.74609   0.82243   0.00000  Uiso   1.00
H1756  H     0.95988   0.71514   0.83702   0.00000  Uiso   1.00
H1757  H     0.91130   0.74046   0.82480   0.00000  Uiso   1.00
H1758  H     0.95289   0.77769   0.84218   0.00000  Uiso   1.00
N1759  N     0.71007   0.91375   0.72106   0.00000  Uiso   1.00
H1760  H     0.70242   0.94598   0.73404   0.00000  Uiso   1.00
C1761  C     0.71773   0.91374   0.67354   0.00000  Uiso   1.00
H1762  H     0.70149   0.94326   0.65765   0.00000  Uiso   1.00
H1763  H     0.70740   0.88048   0.65773   0.00000  Uiso   1.00
H1764  H     0.75079   0.91823   0.66730   0.00000  Uiso   1.00
loop_
_geom_bond_atom_site_label_1
_geom_bond_atom_site_label_2
_geom_bond_distance
_geom_bond_site_symmetry_2
_ccdc_geom_bond_type
C1     C10     1.470   .     S
C1     O39     1.294   .     A
C1     O42     1.292   .     A
C2     O41     1.292   .     A
C2     O40     1.295   .     A
C2     C9      1.473   .     S
C3     C28     1.419   .     A
C3     N63     1.422   .     S
C3     C911    1.393   1_554 S
C4     N69     1.425   .     S
C4     C27     1.421   .     A
C4     C912    1.400   .     S
C5     N75     1.428   .     S
C5     C10     1.416   .     A
C5     C203    1.402   1_455 S
C6     C9      1.416   .     A
C6     N81     1.427   .     S
C6     C106    1.399   .     S
C7     N87     1.427   .     S
C7     C9      1.416   .     A
C7     C103    1.402   .     S
C8     N93     1.428   .     S
C8     C10     1.414   .     A
C8     C202    1.399   1_455 S
C11    H33     1.082   .     S
C11    N38     1.367   .     A
C11    C602    1.415   1_545 S
C12    N37     1.366   .     A
C12    H34     1.082   .     S
C12    C307    1.414   .     S
C13    N38     1.366   .     A
C13    H35     1.078   .     S
C13    C600    1.414   1_545 S
C14    N37     1.367   .     A
C14    H36     1.082   .     S
C14    C305    1.415   .     S
C15    C20     1.451   .     S
C15    O43     1.290   .     A
C15    O46     1.285   .     A
C16    O44     1.290   .     A
C16    O45     1.286   .     A
C16    C19     1.451   .     S
C17    C27     1.413   .     A
C17    N47     1.426   .     S
C17    C19     1.403   .     A
C18    N53     1.428   .     S
C18    C28     1.416   .     A
C18    C20     1.405   .     A
C19    C21     1.396   .     A
C20    C22     1.398   .     A
C21    Br59    1.940   .     S
C21    C23     1.407   .     A
C22    Br60    1.940   .     S
C22    C24     1.408   .     A
C23    C29     1.408   .     A
C23    C25     1.418   .     A
C24    C26     1.415   .     A
C24    C30     1.406   .     A
C25    C27     1.422   .     A
C25    C908    1.414   .     S
C26    C28     1.420   .     A
C26    C907    1.414   1_554 S
C29    Br61    1.932   .     S
C29    C885    1.393   .     S
C30    Br62    1.930   .     S
C30    C886    1.400   1_554 S
Cu31   O43     1.961   .     S
Cu31   Cu32    2.672   .     S
Cu31   N37     2.008   .     S
Cu31   O41     1.992   .     S
Cu31   O39     1.989   .     S
Cu31   O45     1.961   .     S
Cu32   N38     2.008   .     S
Cu32   O44     1.961   .     S
Cu32   O40     1.989   .     S
Cu32   O46     1.961   .     S
Cu32   O42     1.992   .     S
N47    C49     1.448   .     S
N47    H48     1.030   .     S
C49    H51     1.111   .     S
C49    H52     1.111   .     S
C49    H50     1.109   .     S
N53    H54     1.030   .     S
N53    C55     1.448   .     S
C55    H56     1.111   .     S
C55    H57     1.110   .     S
C55    H58     1.111   .     S
N63    C65     1.449   .     S
N63    H64     1.028   .     S
C65    H67     1.109   .     S
C65    H68     1.111   .     S
C65    H66     1.109   .     S
N69    C71     1.450   .     S
N69    H70     1.031   .     S
C71    H73     1.112   .     S
C71    H74     1.110   .     S
C71    H170    1.104   .     S
H72    C267    1.104   1_455 S
N75    H76     1.030   .     S
N75    C77     1.447   .     S
C77    H79     1.106   .     S
C77    H78     1.109   .     S
C77    H80     1.111   .     S
N81    H82     1.031   .     S
N81    C83     1.448   .     S
C83    H84     1.110   .     S
C83    H85     1.107   .     S
C83    H86     1.108   .     S
N87    H88     1.029   .     S
N87    C89     1.449   .     S
C89    H91     1.110   .     S
C89    H92     1.111   .     S
C89    H90     1.111   .     S
N93    H94     1.030   .     S
N93    C95     1.449   .     S
C95    H96     1.111   .     S
C95    H98     1.110   .     S
C95    H97     1.112   .     S
C99    C108    1.470   .     S
C99    O137    1.294   .     A
C99    O140    1.292   .     A
C100   O139    1.292   .     A
C100   O138    1.295   .     A
C100   C107    1.473   .     S
C101   C126    1.419   .     A
C101   N161    1.422   .     S
C101   C1009   1.393   1_554 S
C102   N167    1.425   .     S
C102   C125    1.421   .     A
C102   C1010   1.400   .     S
C103   N173    1.428   .     S
C103   C108    1.416   .     A
C104   C107    1.416   .     A
C104   N179    1.427   .     S
C104   C204    1.399   .     S
C105   N185    1.427   .     S
C105   C107    1.416   .     A
C105   C201    1.402   .     S
C106   N191    1.428   .     S
C106   C108    1.414   .     A
C109   H131    1.082   .     S
C109   N136    1.367   .     A
C109   C700    1.415   1_545 S
C110   N135    1.366   .     A
C110   H132    1.082   .     S
C110   C405    1.414   .     S
C111   N136    1.366   .     A
C111   H133    1.078   .     S
C111   C698    1.414   1_545 S
C112   N135    1.367   .     A
C112   H134    1.082   .     S
C112   C403    1.415   .     S
C113   C118    1.451   .     S
C113   O141    1.290   .     A
C113   O144    1.285   .     A
C114   O142    1.290   .     A
C114   O143    1.286   .     A
C114   C117    1.451   .     S
C115   C125    1.413   .     A
C115   N145    1.426   .     S
C115   C117    1.403   .     A
C116   N151    1.428   .     S
C116   C126    1.416   .     A
C116   C118    1.405   .     A
C117   C119    1.396   .     A
C118   C120    1.398   .     A
C119   Br157   1.940   .     S
C119   C121    1.407   .     A
C120   Br158   1.940   .     S
C120   C122    1.408   .     A
C121   C127    1.408   .     A
C121   C123    1.418   .     A
C122   C124    1.415   .     A
C122   C128    1.406   .     A
C123   C125    1.422   .     A
C123   C1006   1.414   .     S
C124   C126    1.420   .     A
C124   C1005   1.414   1_554 S
C127   Br159   1.932   .     S
C127   C983    1.393   .     S
C128   Br160   1.930   .     S
C128   C984    1.400   1_554 S
Cu129  O141    1.961   .     S
Cu129  Cu130   2.672   .     S
Cu129  N135    2.008   .     S
Cu129  O139    1.992   .     S
Cu129  O137    1.989   .     S
Cu129  O143    1.961   .     S
Cu130  N136    2.008   .     S
Cu130  O142    1.961   .     S
Cu130  O138    1.989   .     S
Cu130  O144    1.961   .     S
Cu130  O140    1.992   .     S
N145   C147    1.448   .     S
N145   H146    1.030   .     S
C147   H149    1.111   .     S
C147   H150    1.111   .     S
C147   H148    1.109   .     S
N151   H152    1.030   .     S
N151   C153    1.448   .     S
C153   H154    1.111   .     S
C153   H155    1.110   .     S
C153   H156    1.111   .     S
N161   C163    1.449   .     S
N161   H162    1.028   .     S
C163   H165    1.109   .     S
C163   H166    1.111   .     S
C163   H164    1.109   .     S
N167   C169    1.450   .     S
N167   H168    1.031   .     S
C169   H171    1.112   .     S
C169   H172    1.110   .     S
C169   H268    1.104   .     S
N173   H174    1.030   .     S
N173   C175    1.447   .     S
C175   H177    1.106   .     S
C175   H176    1.109   .     S
C175   H178    1.111   .     S
N179   H180    1.031   .     S
N179   C181    1.448   .     S
C181   H182    1.110   .     S
C181   H183    1.107   .     S
C181   H184    1.108   .     S
N185   H186    1.029   .     S
N185   C187    1.449   .     S
C187   H189    1.110   .     S
C187   H190    1.111   .     S
C187   H188    1.111   .     S
N191   H192    1.030   .     S
N191   C193    1.449   .     S
C193   H194    1.111   .     S
C193   H196    1.110   .     S
C193   H195    1.112   .     S
C197   C206    1.470   .     S
C197   O235    1.294   .     A
C197   O238    1.292   .     A
C198   O237    1.292   .     A
C198   O236    1.295   .     A
C198   C205    1.473   .     S
C199   C224    1.419   .     A
C199   N259    1.422   .     S
C199   C1107   1.393   1_554 S
C200   N265    1.425   .     S
C200   C223    1.421   .     A
C200   C1108   1.400   .     S
C201   N271    1.428   .     S
C201   C206    1.416   .     A
C202   C205    1.416   .     A
C202   N277    1.427   .     S
C202   C8      1.399   1_655 S
C203   N283    1.427   .     S
C203   C205    1.416   .     A
C203   C5      1.402   1_655 S
C204   N289    1.428   .     S
C204   C206    1.414   .     A
C207   H229    1.082   .     S
C207   N234    1.367   .     A
C207   C798    1.415   1_545 S
C208   N233    1.366   .     A
C208   H230    1.082   .     S
C208   C503    1.414   .     S
C209   N234    1.366   .     A
C209   H231    1.078   .     S
C209   C796    1.414   1_545 S
C210   N233    1.367   .     A
C210   H232    1.082   .     S
C210   C501    1.415   .     S
C211   C216    1.451   .     S
C211   O239    1.290   .     A
C211   O242    1.285   .     A
C212   O240    1.290   .     A
C212   O241    1.286   .     A
C212   C215    1.451   .     S
C213   C223    1.413   .     A
C213   N243    1.426   .     S
C213   C215    1.403   .     A
C214   N249    1.428   .     S
C214   C224    1.416   .     A
C214   C216    1.405   .     A
C215   C217    1.396   .     A
C216   C218    1.398   .     A
C217   Br255   1.940   .     S
C217   C219    1.407   .     A
C218   Br256   1.940   .     S
C218   C220    1.408   .     A
C219   C225    1.408   .     A
C219   C221    1.418   .     A
C220   C222    1.415   .     A
C220   C226    1.406   .     A
C221   C223    1.422   .     A
C221   C1104   1.414   .     S
C222   C224    1.420   .     A
C222   C1103   1.414   1_554 S
C225   Br257   1.932   .     S
C225   C1081   1.393   .     S
C226   Br258   1.930   .     S
C226   C1082   1.400   1_554 S
Cu227  O239    1.961   .     S
Cu227  Cu228   2.672   .     S
Cu227  N233    2.008   .     S
Cu227  O237    1.992   .     S
Cu227  O235    1.989   .     S
Cu227  O241    1.961   .     S
Cu228  N234    2.008   .     S
Cu228  O240    1.961   .     S
Cu228  O236    1.989   .     S
Cu228  O242    1.961   .     S
Cu228  O238    1.992   .     S
N243   C245    1.448   .     S
N243   H244    1.030   .     S
C245   H247    1.111   .     S
C245   H248    1.111   .     S
C245   H246    1.109   .     S
N249   H250    1.030   .     S
N249   C251    1.448   .     S
C251   H252    1.111   .     S
C251   H253    1.110   .     S
C251   H254    1.111   .     S
N259   C261    1.449   .     S
N259   H260    1.028   .     S
C261   H263    1.109   .     S
C261   H264    1.111   .     S
C261   H262    1.109   .     S
N265   C267    1.450   .     S
N265   H266    1.031   .     S
C267   H269    1.112   .     S
C267   H270    1.110   .     S
C267   H72     1.104   1_655 S
N271   H272    1.030   .     S
N271   C273    1.447   .     S
C273   H275    1.106   .     S
C273   H274    1.109   .     S
C273   H276    1.111   .     S
N277   H278    1.031   .     S
N277   C279    1.448   .     S
C279   H280    1.110   .     S
C279   H281    1.107   .     S
C279   H282    1.108   .     S
N283   H284    1.029   .     S
N283   C285    1.449   .     S
C285   H287    1.110   .     S
C285   H288    1.111   .     S
C285   H286    1.111   .     S
N289   H290    1.030   .     S
N289   C291    1.449   .     S
C291   H292    1.111   .     S
C291   H294    1.110   .     S
C291   H293    1.112   .     S
C295   C304    1.470   .     S
C295   O333    1.294   .     A
C295   O336    1.292   .     A
C296   O335    1.292   .     A
C296   O334    1.295   .     A
C296   C303    1.473   .     S
C297   C322    1.419   .     A
C297   N357    1.422   .     S
C297   C1205   1.393   1_554 S
C298   N363    1.425   .     S
C298   C321    1.421   .     A
C298   C1206   1.400   .     S
C299   N369    1.428   .     S
C299   C304    1.416   .     A
C299   C497    1.402   1_455 S
C300   C303    1.416   .     A
C300   N375    1.427   .     S
C300   C400    1.399   .     S
C301   N381    1.427   .     S
C301   C303    1.416   .     A
C301   C397    1.402   .     S
C302   N387    1.428   .     S
C302   C304    1.414   .     A
C302   C496    1.399   1_455 S
C305   H327    1.082   .     S
C305   N332    1.367   .     A
C306   N331    1.366   .     A
C306   H328    1.082   .     S
C306   C601    1.414   .     S
C307   N332    1.366   .     A
C307   H329    1.078   .     S
C308   N331    1.367   .     A
C308   H330    1.082   .     S
C308   C599    1.415   .     S
C309   C314    1.451   .     S
C309   O337    1.290   .     A
C309   O340    1.285   .     A
C310   O338    1.290   .     A
C310   O339    1.286   .     A
C310   C313    1.451   .     S
C311   C321    1.413   .     A
C311   N341    1.426   .     S
C311   C313    1.403   .     A
C312   N347    1.428   .     S
C312   C322    1.416   .     A
C312   C314    1.405   .     A
C313   C315    1.396   .     A
C314   C316    1.398   .     A
C315   Br353   1.940   .     S
C315   C317    1.407   .     A
C316   Br354   1.940   .     S
C316   C318    1.408   .     A
C317   C323    1.408   .     A
C317   C319    1.418   .     A
C318   C320    1.415   .     A
C318   C324    1.406   .     A
C319   C321    1.422   .     A
C319   C1202   1.414   .     S
C320   C322    1.420   .     A
C320   C1201   1.414   1_554 S
C323   Br355   1.932   .     S
C323   C1179   1.393   .     S
C324   Br356   1.930   .     S
C324   C1180   1.400   1_554 S
Cu325  O337    1.961   .     S
Cu325  Cu326   2.672   .     S
Cu325  N331    2.008   .     S
Cu325  O335    1.992   .     S
Cu325  O333    1.989   .     S
Cu325  O339    1.961   .     S
Cu326  N332    2.008   .     S
Cu326  O338    1.961   .     S
Cu326  O334    1.989   .     S
Cu326  O340    1.961   .     S
Cu326  O336    1.992   .     S
N341   C343    1.448   .     S
N341   H342    1.030   .     S
C343   H345    1.111   .     S
C343   H346    1.111   .     S
C343   H344    1.109   .     S
N347   H348    1.030   .     S
N347   C349    1.448   .     S
C349   H350    1.111   .     S
C349   H351    1.110   .     S
C349   H352    1.111   .     S
N357   C359    1.449   .     S
N357   H358    1.028   .     S
C359   H361    1.109   .     S
C359   H362    1.111   .     S
C359   H360    1.109   .     S
N363   C365    1.450   .     S
N363   H364    1.031   .     S
C365   H367    1.112   .     S
C365   H368    1.110   .     S
C365   H464    1.104   .     S
H366   C561    1.104   1_455 S
N369   H370    1.030   .     S
N369   C371    1.447   .     S
C371   H373    1.106   .     S
C371   H372    1.109   .     S
C371   H374    1.111   .     S
N375   H376    1.031   .     S
N375   C377    1.448   .     S
C377   H378    1.110   .     S
C377   H379    1.107   .     S
C377   H380    1.108   .     S
N381   H382    1.029   .     S
N381   C383    1.449   .     S
C383   H385    1.110   .     S
C383   H386    1.111   .     S
C383   H384    1.111   .     S
N387   H388    1.030   .     S
N387   C389    1.449   .     S
C389   H390    1.111   .     S
C389   H392    1.110   .     S
C389   H391    1.112   .     S
C393   C402    1.470   .     S
C393   O431    1.294   .     A
C393   O434    1.292   .     A
C394   O433    1.292   .     A
C394   O432    1.295   .     A
C394   C401    1.473   .     S
C395   C420    1.419   .     A
C395   N455    1.422   .     S
C395   C1303   1.393   1_554 S
C396   N461    1.425   .     S
C396   C419    1.421   .     A
C396   C1304   1.400   .     S
C397   N467    1.428   .     S
C397   C402    1.416   .     A
C398   C401    1.416   .     A
C398   N473    1.427   .     S
C398   C498    1.399   .     S
C399   N479    1.427   .     S
C399   C401    1.416   .     A
C399   C495    1.402   .     S
C400   N485    1.428   .     S
C400   C402    1.414   .     A
C403   H425    1.082   .     S
C403   N430    1.367   .     A
C404   N429    1.366   .     A
C404   H426    1.082   .     S
C404   C699    1.414   .     S
C405   N430    1.366   .     A
C405   H427    1.078   .     S
C406   N429    1.367   .     A
C406   H428    1.082   .     S
C406   C697    1.415   .     S
C407   C412    1.451   .     S
C407   O435    1.290   .     A
C407   O438    1.285   .     A
C408   O436    1.290   .     A
C408   O437    1.286   .     A
C408   C411    1.451   .     S
C409   C419    1.413   .     A
C409   N439    1.426   .     S
C409   C411    1.403   .     A
C410   N445    1.428   .     S
C410   C420    1.416   .     A
C410   C412    1.405   .     A
C411   C413    1.396   .     A
C412   C414    1.398   .     A
C413   Br451   1.940   .     S
C413   C415    1.407   .     A
C414   Br452   1.940   .     S
C414   C416    1.408   .     A
C415   C421    1.408   .     A
C415   C417    1.418   .     A
C416   C418    1.415   .     A
C416   C422    1.406   .     A
C417   C419    1.422   .     A
C417   C1300   1.414   .     S
C418   C420    1.420   .     A
C418   C1299   1.414   1_554 S
C421   Br453   1.932   .     S
C421   C1277   1.393   .     S
C422   Br454   1.930   .     S
C422   C1278   1.400   1_554 S
Cu423  O435    1.961   .     S
Cu423  Cu424   2.672   .     S
Cu423  N429    2.008   .     S
Cu423  O433    1.992   .     S
Cu423  O431    1.989   .     S
Cu423  O437    1.961   .     S
Cu424  N430    2.008   .     S
Cu424  O436    1.961   .     S
Cu424  O432    1.989   .     S
Cu424  O438    1.961   .     S
Cu424  O434    1.992   .     S
N439   C441    1.448   .     S
N439   H440    1.030   .     S
C441   H443    1.111   .     S
C441   H444    1.111   .     S
C441   H442    1.109   .     S
N445   H446    1.030   .     S
N445   C447    1.448   .     S
C447   H448    1.111   .     S
C447   H449    1.110   .     S
C447   H450    1.111   .     S
N455   C457    1.449   .     S
N455   H456    1.028   .     S
C457   H459    1.109   .     S
C457   H460    1.111   .     S
C457   H458    1.109   .     S
N461   C463    1.450   .     S
N461   H462    1.031   .     S
C463   H465    1.112   .     S
C463   H466    1.110   .     S
C463   H562    1.104   .     S
N467   H468    1.030   .     S
N467   C469    1.447   .     S
C469   H471    1.106   .     S
C469   H470    1.109   .     S
C469   H472    1.111   .     S
N473   H474    1.031   .     S
N473   C475    1.448   .     S
C475   H476    1.110   .     S
C475   H477    1.107   .     S
C475   H478    1.108   .     S
N479   H480    1.029   .     S
N479   C481    1.449   .     S
C481   H483    1.110   .     S
C481   H484    1.111   .     S
C481   H482    1.111   .     S
N485   H486    1.030   .     S
N485   C487    1.449   .     S
C487   H488    1.111   .     S
C487   H490    1.110   .     S
C487   H489    1.112   .     S
C491   C500    1.470   .     S
C491   O529    1.294   .     A
C491   O532    1.292   .     A
C492   O531    1.292   .     A
C492   O530    1.295   .     A
C492   C499    1.473   .     S
C493   C518    1.419   .     A
C493   N553    1.422   .     S
C493   C1401   1.393   1_554 S
C494   N559    1.425   .     S
C494   C517    1.421   .     A
C494   C1402   1.400   .     S
C495   N565    1.428   .     S
C495   C500    1.416   .     A
C496   C499    1.416   .     A
C496   N571    1.427   .     S
C496   C302    1.399   1_655 S
C497   N577    1.427   .     S
C497   C499    1.416   .     A
C497   C299    1.402   1_655 S
C498   N583    1.428   .     S
C498   C500    1.414   .     A
C501   H523    1.082   .     S
C501   N528    1.367   .     A
C502   N527    1.366   .     A
C502   H524    1.082   .     S
C502   C797    1.414   .     S
C503   N528    1.366   .     A
C503   H525    1.078   .     S
C504   N527    1.367   .     A
C504   H526    1.082   .     S
C504   C795    1.415   .     S
C505   C510    1.451   .     S
C505   O533    1.290   .     A
C505   O536    1.285   .     A
C506   O534    1.290   .     A
C506   O535    1.286   .     A
C506   C509    1.451   .     S
C507   C517    1.413   .     A
C507   N537    1.426   .     S
C507   C509    1.403   .     A
C508   N543    1.428   .     S
C508   C518    1.416   .     A
C508   C510    1.405   .     A
C509   C511    1.396   .     A
C510   C512    1.398   .     A
C511   Br549   1.940   .     S
C511   C513    1.407   .     A
C512   Br550   1.940   .     S
C512   C514    1.408   .     A
C513   C519    1.408   .     A
C513   C515    1.418   .     A
C514   C516    1.415   .     A
C514   C520    1.406   .     A
C515   C517    1.422   .     A
C515   C1398   1.414   .     S
C516   C518    1.420   .     A
C516   C1397   1.414   1_554 S
C519   Br551   1.932   .     S
C519   C1375   1.393   .     S
C520   Br552   1.930   .     S
C520   C1376   1.400   1_554 S
Cu521  O533    1.961   .     S
Cu521  Cu522   2.672   .     S
Cu521  N527    2.008   .     S
Cu521  O531    1.992   .     S
Cu521  O529    1.989   .     S
Cu521  O535    1.961   .     S
Cu522  N528    2.008   .     S
Cu522  O534    1.961   .     S
Cu522  O530    1.989   .     S
Cu522  O536    1.961   .     S
Cu522  O532    1.992   .     S
N537   C539    1.448   .     S
N537   H538    1.030   .     S
C539   H541    1.111   .     S
C539   H542    1.111   .     S
C539   H540    1.109   .     S
N543   H544    1.030   .     S
N543   C545    1.448   .     S
C545   H546    1.111   .     S
C545   H547    1.110   .     S
C545   H548    1.111   .     S
N553   C555    1.449   .     S
N553   H554    1.028   .     S
C555   H557    1.109   .     S
C555   H558    1.111   .     S
C555   H556    1.109   .     S
N559   C561    1.450   .     S
N559   H560    1.031   .     S
C561   H563    1.112   .     S
C561   H564    1.110   .     S
C561   H366    1.104   1_655 S
N565   H566    1.030   .     S
N565   C567    1.447   .     S
C567   H569    1.106   .     S
C567   H568    1.109   .     S
C567   H570    1.111   .     S
N571   H572    1.031   .     S
N571   C573    1.448   .     S
C573   H574    1.110   .     S
C573   H575    1.107   .     S
C573   H576    1.108   .     S
N577   H578    1.029   .     S
N577   C579    1.449   .     S
C579   H581    1.110   .     S
C579   H582    1.111   .     S
C579   H580    1.111   .     S
N583   H584    1.030   .     S
N583   C585    1.449   .     S
C585   H586    1.111   .     S
C585   H588    1.110   .     S
C585   H587    1.112   .     S
C589   C598    1.470   .     S
C589   O627    1.294   .     A
C589   O630    1.292   .     A
C590   O629    1.292   .     A
C590   O628    1.295   .     A
C590   C597    1.473   .     S
C591   C616    1.419   .     A
C591   N651    1.422   .     S
C591   C1499   1.393   1_554 S
C592   N657    1.425   .     S
C592   C615    1.421   .     A
C592   C1500   1.400   .     S
C593   N663    1.428   .     S
C593   C598    1.416   .     A
C593   C791    1.402   1_455 S
C594   C597    1.416   .     A
C594   N669    1.427   .     S
C594   C694    1.399   .     S
C595   N675    1.427   .     S
C595   C597    1.416   .     A
C595   C691    1.402   .     S
C596   N681    1.428   .     S
C596   C598    1.414   .     A
C596   C790    1.399   1_455 S
C599   H621    1.082   .     S
C599   N626    1.367   .     A
C600   N625    1.366   .     A
C600   H622    1.082   .     S
C600   C13     1.414   1_565 S
C601   N626    1.366   .     A
C601   H623    1.078   .     S
C602   N625    1.367   .     A
C602   H624    1.082   .     S
C602   C11     1.415   1_565 S
C603   C608    1.451   .     S
C603   O631    1.290   .     A
C603   O634    1.285   .     A
C604   O632    1.290   .     A
C604   O633    1.286   .     A
C604   C607    1.451   .     S
C605   C615    1.413   .     A
C605   N635    1.426   .     S
C605   C607    1.403   .     A
C606   N641    1.428   .     S
C606   C616    1.416   .     A
C606   C608    1.405   .     A
C607   C609    1.396   .     A
C608   C610    1.398   .     A
C609   Br647   1.940   .     S
C609   C611    1.407   .     A
C610   Br648   1.940   .     S
C610   C612    1.408   .     A
C611   C617    1.408   .     A
C611   C613    1.418   .     A
C612   C614    1.415   .     A
C612   C618    1.406   .     A
C613   C615    1.422   .     A
C613   C1496   1.414   .     S
C614   C616    1.420   .     A
C614   C1495   1.414   1_554 S
C617   Br649   1.932   .     S
C617   C1473   1.393   .     S
C618   Br650   1.930   .     S
C618   C1474   1.400   1_554 S
Cu619  O631    1.961   .     S
Cu619  Cu620   2.672   .     S
Cu619  N625    2.008   .     S
Cu619  O629    1.992   .     S
Cu619  O627    1.989   .     S
Cu619  O633    1.961   .     S
Cu620  N626    2.008   .     S
Cu620  O632    1.961   .     S
Cu620  O628    1.989   .     S
Cu620  O634    1.961   .     S
Cu620  O630    1.992   .     S
N635   C637    1.448   .     S
N635   H636    1.030   .     S
C637   H639    1.111   .     S
C637   H640    1.111   .     S
C637   H638    1.109   .     S
N641   H642    1.030   .     S
N641   C643    1.448   .     S
C643   H644    1.111   .     S
C643   H645    1.110   .     S
C643   H646    1.111   .     S
N651   C653    1.449   .     S
N651   H652    1.028   .     S
C653   H655    1.109   .     S
C653   H656    1.111   .     S
C653   H654    1.109   .     S
N657   C659    1.450   .     S
N657   H658    1.031   .     S
C659   H661    1.112   .     S
C659   H662    1.110   .     S
C659   H758    1.104   .     S
H660   C855    1.104   1_455 S
N663   H664    1.030   .     S
N663   C665    1.447   .     S
C665   H667    1.106   .     S
C665   H666    1.109   .     S
C665   H668    1.111   .     S
N669   H670    1.031   .     S
N669   C671    1.448   .     S
C671   H672    1.110   .     S
C671   H673    1.107   .     S
C671   H674    1.108   .     S
N675   H676    1.029   .     S
N675   C677    1.449   .     S
C677   H679    1.110   .     S
C677   H680    1.111   .     S
C677   H678    1.111   .     S
N681   H682    1.030   .     S
N681   C683    1.449   .     S
C683   H684    1.111   .     S
C683   H686    1.110   .     S
C683   H685    1.112   .     S
C687   C696    1.470   .     S
C687   O725    1.294   .     A
C687   O728    1.292   .     A
C688   O727    1.292   .     A
C688   O726    1.295   .     A
C688   C695    1.473   .     S
C689   C714    1.419   .     A
C689   N749    1.422   .     S
C689   C1597   1.393   1_554 S
C690   N755    1.425   .     S
C690   C713    1.421   .     A
C690   C1598   1.400   .     S
C691   N761    1.428   .     S
C691   C696    1.416   .     A
C692   C695    1.416   .     A
C692   N767    1.427   .     S
C692   C792    1.399   .     S
C693   N773    1.427   .     S
C693   C695    1.416   .     A
C693   C789    1.402   .     S
C694   N779    1.428   .     S
C694   C696    1.414   .     A
C697   H719    1.082   .     S
C697   N724    1.367   .     A
C698   N723    1.366   .     A
C698   H720    1.082   .     S
C698   C111    1.414   1_565 S
C699   N724    1.366   .     A
C699   H721    1.078   .     S
C700   N723    1.367   .     A
C700   H722    1.082   .     S
C700   C109    1.415   1_565 S
C701   C706    1.451   .     S
C701   O729    1.290   .     A
C701   O732    1.285   .     A
C702   O730    1.290   .     A
C702   O731    1.286   .     A
C702   C705    1.451   .     S
C703   C713    1.413   .     A
C703   N733    1.426   .     S
C703   C705    1.403   .     A
C704   N739    1.428   .     S
C704   C714    1.416   .     A
C704   C706    1.405   .     A
C705   C707    1.396   .     A
C706   C708    1.398   .     A
C707   Br745   1.940   .     S
C707   C709    1.407   .     A
C708   Br746   1.940   .     S
C708   C710    1.408   .     A
C709   C715    1.408   .     A
C709   C711    1.418   .     A
C710   C712    1.415   .     A
C710   C716    1.406   .     A
C711   C713    1.422   .     A
C711   C1594   1.414   .     S
C712   C714    1.420   .     A
C712   C1593   1.414   1_554 S
C715   Br747   1.932   .     S
C715   C1571   1.393   .     S
C716   Br748   1.930   .     S
C716   C1572   1.400   1_554 S
Cu717  O729    1.961   .     S
Cu717  Cu718   2.672   .     S
Cu717  N723    2.008   .     S
Cu717  O727    1.992   .     S
Cu717  O725    1.989   .     S
Cu717  O731    1.961   .     S
Cu718  N724    2.008   .     S
Cu718  O730    1.961   .     S
Cu718  O726    1.989   .     S
Cu718  O732    1.961   .     S
Cu718  O728    1.992   .     S
N733   C735    1.448   .     S
N733   H734    1.030   .     S
C735   H737    1.111   .     S
C735   H738    1.111   .     S
C735   H736    1.109   .     S
N739   H740    1.030   .     S
N739   C741    1.448   .     S
C741   H742    1.111   .     S
C741   H743    1.110   .     S
C741   H744    1.111   .     S
N749   C751    1.449   .     S
N749   H750    1.028   .     S
C751   H753    1.109   .     S
C751   H754    1.111   .     S
C751   H752    1.109   .     S
N755   C757    1.450   .     S
N755   H756    1.031   .     S
C757   H759    1.112   .     S
C757   H760    1.110   .     S
C757   H856    1.104   .     S
N761   H762    1.030   .     S
N761   C763    1.447   .     S
C763   H765    1.106   .     S
C763   H764    1.109   .     S
C763   H766    1.111   .     S
N767   H768    1.031   .     S
N767   C769    1.448   .     S
C769   H770    1.110   .     S
C769   H771    1.107   .     S
C769   H772    1.108   .     S
N773   H774    1.029   .     S
N773   C775    1.449   .     S
C775   H777    1.110   .     S
C775   H778    1.111   .     S
C775   H776    1.111   .     S
N779   H780    1.030   .     S
N779   C781    1.449   .     S
C781   H782    1.111   .     S
C781   H784    1.110   .     S
C781   H783    1.112   .     S
C785   C794    1.470   .     S
C785   O823    1.294   .     A
C785   O826    1.292   .     A
C786   O825    1.292   .     A
C786   O824    1.295   .     A
C786   C793    1.473   .     S
C787   C812    1.419   .     A
C787   N847    1.422   .     S
C787   C1695   1.393   1_554 S
C788   N853    1.425   .     S
C788   C811    1.421   .     A
C788   C1696   1.400   .     S
C789   N859    1.428   .     S
C789   C794    1.416   .     A
C790   C793    1.416   .     A
C790   N865    1.427   .     S
C790   C596    1.399   1_655 S
C791   N871    1.427   .     S
C791   C793    1.416   .     A
C791   C593    1.402   1_655 S
C792   N877    1.428   .     S
C792   C794    1.414   .     A
C795   H817    1.082   .     S
C795   N822    1.367   .     A
C796   N821    1.366   .     A
C796   H818    1.082   .     S
C796   C209    1.414   1_565 S
C797   N822    1.366   .     A
C797   H819    1.078   .     S
C798   N821    1.367   .     A
C798   H820    1.082   .     S
C798   C207    1.415   1_565 S
C799   C804    1.451   .     S
C799   O827    1.290   .     A
C799   O830    1.285   .     A
C800   O828    1.290   .     A
C800   O829    1.286   .     A
C800   C803    1.451   .     S
C801   C811    1.413   .     A
C801   N831    1.426   .     S
C801   C803    1.403   .     A
C802   N837    1.428   .     S
C802   C812    1.416   .     A
C802   C804    1.405   .     A
C803   C805    1.396   .     A
C804   C806    1.398   .     A
C805   Br843   1.940   .     S
C805   C807    1.407   .     A
C806   Br844   1.940   .     S
C806   C808    1.408   .     A
C807   C813    1.408   .     A
C807   C809    1.418   .     A
C808   C810    1.415   .     A
C808   C814    1.406   .     A
C809   C811    1.422   .     A
C809   C1692   1.414   .     S
C810   C812    1.420   .     A
C810   C1691   1.414   1_554 S
C813   Br845   1.932   .     S
C813   C1669   1.393   .     S
C814   Br846   1.930   .     S
C814   C1670   1.400   1_554 S
Cu815  O827    1.961   .     S
Cu815  Cu816   2.672   .     S
Cu815  N821    2.008   .     S
Cu815  O825    1.992   .     S
Cu815  O823    1.989   .     S
Cu815  O829    1.961   .     S
Cu816  N822    2.008   .     S
Cu816  O828    1.961   .     S
Cu816  O824    1.989   .     S
Cu816  O830    1.961   .     S
Cu816  O826    1.992   .     S
N831   C833    1.448   .     S
N831   H832    1.030   .     S
C833   H835    1.111   .     S
C833   H836    1.111   .     S
C833   H834    1.109   .     S
N837   H838    1.030   .     S
N837   C839    1.448   .     S
C839   H840    1.111   .     S
C839   H841    1.110   .     S
C839   H842    1.111   .     S
N847   C849    1.449   .     S
N847   H848    1.028   .     S
C849   H851    1.109   .     S
C849   H852    1.111   .     S
C849   H850    1.109   .     S
N853   C855    1.450   .     S
N853   H854    1.031   .     S
C855   H857    1.112   .     S
C855   H858    1.110   .     S
C855   H660    1.104   1_655 S
N859   H860    1.030   .     S
N859   C861    1.447   .     S
C861   H863    1.106   .     S
C861   H862    1.109   .     S
C861   H864    1.111   .     S
N865   H866    1.031   .     S
N865   C867    1.448   .     S
C867   H868    1.110   .     S
C867   H869    1.107   .     S
C867   H870    1.108   .     S
N871   H872    1.029   .     S
N871   C873    1.449   .     S
C873   H875    1.110   .     S
C873   H876    1.111   .     S
C873   H874    1.111   .     S
N877   H878    1.030   .     S
N877   C879    1.449   .     S
C879   H880    1.111   .     S
C879   H882    1.110   .     S
C879   H881    1.112   .     S
C883   C892    1.470   .     S
C883   O921    1.294   .     A
C883   O924    1.292   .     A
C884   O923    1.292   .     A
C884   O922    1.295   .     A
C884   C891    1.473   .     S
C885   C910    1.419   .     A
C885   N945    1.422   .     S
C886   N951    1.425   .     S
C886   C909    1.421   .     A
C886   C30     1.400   1_556 S
C887   N957    1.428   .     S
C887   C892    1.416   .     A
C887   C1085   1.402   1_455 S
C888   C891    1.416   .     A
C888   N963    1.427   .     S
C888   C988    1.399   .     S
C889   N969    1.427   .     S
C889   C891    1.416   .     A
C889   C985    1.402   .     S
C890   N975    1.428   .     S
C890   C892    1.414   .     A
C890   C1084   1.399   1_455 S
C893   H915    1.082   .     S
C893   N920    1.367   .     A
C893   C1484   1.415   1_545 S
C894   N919    1.366   .     A
C894   H916    1.082   .     S
C894   C1189   1.414   .     S
C895   N920    1.366   .     A
C895   H917    1.078   .     S
C895   C1482   1.414   1_545 S
C896   N919    1.367   .     A
C896   H918    1.082   .     S
C896   C1187   1.415   .     S
C897   C902    1.451   .     S
C897   O925    1.290   .     A
C897   O928    1.285   .     A
C898   O926    1.290   .     A
C898   O927    1.286   .     A
C898   C901    1.451   .     S
C899   C909    1.413   .     A
C899   N929    1.426   .     S
C899   C901    1.403   .     A
C900   N935    1.428   .     S
C900   C910    1.416   .     A
C900   C902    1.405   .     A
C901   C903    1.396   .     A
C902   C904    1.398   .     A
C903   Br941   1.940   .     S
C903   C905    1.407   .     A
C904   Br942   1.940   .     S
C904   C906    1.408   .     A
C905   C911    1.408   .     A
C905   C907    1.418   .     A
C906   C908    1.415   .     A
C906   C912    1.406   .     A
C907   C909    1.422   .     A
C907   C26     1.414   1_556 S
C908   C910    1.420   .     A
C911   Br943   1.932   .     S
C911   C3      1.393   1_556 S
C912   Br944   1.930   .     S
Cu913  O925    1.961   .     S
Cu913  Cu914   2.672   .     S
Cu913  N919    2.008   .     S
Cu913  O923    1.992   .     S
Cu913  O921    1.989   .     S
Cu913  O927    1.961   .     S
Cu914  N920    2.008   .     S
Cu914  O926    1.961   .     S
Cu914  O922    1.989   .     S
Cu914  O928    1.961   .     S
Cu914  O924    1.992   .     S
N929   C931    1.448   .     S
N929   H930    1.030   .     S
C931   H933    1.111   .     S
C931   H934    1.111   .     S
C931   H932    1.109   .     S
N935   H936    1.030   .     S
N935   C937    1.448   .     S
C937   H938    1.111   .     S
C937   H939    1.110   .     S
C937   H940    1.111   .     S
N945   C947    1.449   .     S
N945   H946    1.028   .     S
C947   H949    1.109   .     S
C947   H950    1.111   .     S
C947   H948    1.109   .     S
N951   C953    1.450   .     S
N951   H952    1.031   .     S
C953   H955    1.112   .     S
C953   H956    1.110   .     S
C953   H1052   1.104   .     S
H954   C1149   1.104   1_455 S
N957   H958    1.030   .     S
N957   C959    1.447   .     S
C959   H961    1.106   .     S
C959   H960    1.109   .     S
C959   H962    1.111   .     S
N963   H964    1.031   .     S
N963   C965    1.448   .     S
C965   H966    1.110   .     S
C965   H967    1.107   .     S
C965   H968    1.108   .     S
N969   H970    1.029   .     S
N969   C971    1.449   .     S
C971   H973    1.110   .     S
C971   H974    1.111   .     S
C971   H972    1.111   .     S
N975   H976    1.030   .     S
N975   C977    1.449   .     S
C977   H978    1.111   .     S
C977   H980    1.110   .     S
C977   H979    1.112   .     S
C981   C990    1.470   .     S
C981   O1019   1.294   .     A
C981   O1022   1.292   .     A
C982   O1021   1.292   .     A
C982   O1020   1.295   .     A
C982   C989    1.473   .     S
C983   C1008   1.419   .     A
C983   N1043   1.422   .     S
C984   N1049   1.425   .     S
C984   C1007   1.421   .     A
C984   C128    1.400   1_556 S
C985   N1055   1.428   .     S
C985   C990    1.416   .     A
C986   C989    1.416   .     A
C986   N1061   1.427   .     S
C986   C1086   1.399   .     S
C987   N1067   1.427   .     S
C987   C989    1.416   .     A
C987   C1083   1.402   .     S
C988   N1073   1.428   .     S
C988   C990    1.414   .     A
C991   H1013   1.082   .     S
C991   N1018   1.367   .     A
C991   C1582   1.415   1_545 S
C992   N1017   1.366   .     A
C992   H1014   1.082   .     S
C992   C1287   1.414   .     S
C993   N1018   1.366   .     A
C993   H1015   1.078   .     S
C993   C1580   1.414   1_545 S
C994   N1017   1.367   .     A
C994   H1016   1.082   .     S
C994   C1285   1.415   .     S
C995   C1000   1.451   .     S
C995   O1023   1.290   .     A
C995   O1026   1.285   .     A
C996   O1024   1.290   .     A
C996   O1025   1.286   .     A
C996   C999    1.451   .     S
C997   C1007   1.413   .     A
C997   N1027   1.426   .     S
C997   C999    1.403   .     A
C998   N1033   1.428   .     S
C998   C1008   1.416   .     A
C998   C1000   1.405   .     A
C999   C1001   1.396   .     A
C1000  C1002   1.398   .     A
C1001  Br1039  1.940   .     S
C1001  C1003   1.407   .     A
C1002  Br1040  1.940   .     S
C1002  C1004   1.408   .     A
C1003  C1009   1.408   .     A
C1003  C1005   1.418   .     A
C1004  C1006   1.415   .     A
C1004  C1010   1.406   .     A
C1005  C1007   1.422   .     A
C1005  C124    1.414   1_556 S
C1006  C1008   1.420   .     A
C1009  Br1041  1.932   .     S
C1009  C101    1.393   1_556 S
C1010  Br1042  1.930   .     S
Cu1011 O1023   1.961   .     S
Cu1011 Cu1012  2.672   .     S
Cu1011 N1017   2.008   .     S
Cu1011 O1021   1.992   .     S
Cu1011 O1019   1.989   .     S
Cu1011 O1025   1.961   .     S
Cu1012 N1018   2.008   .     S
Cu1012 O1024   1.961   .     S
Cu1012 O1020   1.989   .     S
Cu1012 O1026   1.961   .     S
Cu1012 O1022   1.992   .     S
N1027  C1029   1.448   .     S
N1027  H1028   1.030   .     S
C1029  H1031   1.111   .     S
C1029  H1032   1.111   .     S
C1029  H1030   1.109   .     S
N1033  H1034   1.030   .     S
N1033  C1035   1.448   .     S
C1035  H1036   1.111   .     S
C1035  H1037   1.110   .     S
C1035  H1038   1.111   .     S
N1043  C1045   1.449   .     S
N1043  H1044   1.028   .     S
C1045  H1047   1.109   .     S
C1045  H1048   1.111   .     S
C1045  H1046   1.109   .     S
N1049  C1051   1.450   .     S
N1049  H1050   1.031   .     S
C1051  H1053   1.112   .     S
C1051  H1054   1.110   .     S
C1051  H1150   1.104   .     S
N1055  H1056   1.030   .     S
N1055  C1057   1.447   .     S
C1057  H1059   1.106   .     S
C1057  H1058   1.109   .     S
C1057  H1060   1.111   .     S
N1061  H1062   1.031   .     S
N1061  C1063   1.448   .     S
C1063  H1064   1.110   .     S
C1063  H1065   1.107   .     S
C1063  H1066   1.108   .     S
N1067  H1068   1.029   .     S
N1067  C1069   1.449   .     S
C1069  H1071   1.110   .     S
C1069  H1072   1.111   .     S
C1069  H1070   1.111   .     S
N1073  H1074   1.030   .     S
N1073  C1075   1.449   .     S
C1075  H1076   1.111   .     S
C1075  H1078   1.110   .     S
C1075  H1077   1.112   .     S
C1079  C1088   1.470   .     S
C1079  O1117   1.294   .     A
C1079  O1120   1.292   .     A
C1080  O1119   1.292   .     A
C1080  O1118   1.295   .     A
C1080  C1087   1.473   .     S
C1081  C1106   1.419   .     A
C1081  N1141   1.422   .     S
C1082  N1147   1.425   .     S
C1082  C1105   1.421   .     A
C1082  C226    1.400   1_556 S
C1083  N1153   1.428   .     S
C1083  C1088   1.416   .     A
C1084  C1087   1.416   .     A
C1084  N1159   1.427   .     S
C1084  C890    1.399   1_655 S
C1085  N1165   1.427   .     S
C1085  C1087   1.416   .     A
C1085  C887    1.402   1_655 S
C1086  N1171   1.428   .     S
C1086  C1088   1.414   .     A
C1089  H1111   1.082   .     S
C1089  N1116   1.367   .     A
C1089  C1680   1.415   1_545 S
C1090  N1115   1.366   .     A
C1090  H1112   1.082   .     S
C1090  C1385   1.414   .     S
C1091  N1116   1.366   .     A
C1091  H1113   1.078   .     S
C1091  C1678   1.414   1_545 S
C1092  N1115   1.367   .     A
C1092  H1114   1.082   .     S
C1092  C1383   1.415   .     S
C1093  C1098   1.451   .     S
C1093  O1121   1.290   .     A
C1093  O1124   1.285   .     A
C1094  O1122   1.290   .     A
C1094  O1123   1.286   .     A
C1094  C1097   1.451   .     S
C1095  C1105   1.413   .     A
C1095  N1125   1.426   .     S
C1095  C1097   1.403   .     A
C1096  N1131   1.428   .     S
C1096  C1106   1.416   .     A
C1096  C1098   1.405   .     A
C1097  C1099   1.396   .     A
C1098  C1100   1.398   .     A
C1099  Br1137  1.940   .     S
C1099  C1101   1.407   .     A
C1100  Br1138  1.940   .     S
C1100  C1102   1.408   .     A
C1101  C1107   1.408   .     A
C1101  C1103   1.418   .     A
C1102  C1104   1.415   .     A
C1102  C1108   1.406   .     A
C1103  C1105   1.422   .     A
C1103  C222    1.414   1_556 S
C1104  C1106   1.420   .     A
C1107  Br1139  1.932   .     S
C1107  C199    1.393   1_556 S
C1108  Br1140  1.930   .     S
Cu1109 O1121   1.961   .     S
Cu1109 Cu1110  2.672   .     S
Cu1109 N1115   2.008   .     S
Cu1109 O1119   1.992   .     S
Cu1109 O1117   1.989   .     S
Cu1109 O1123   1.961   .     S
Cu1110 N1116   2.008   .     S
Cu1110 O1122   1.961   .     S
Cu1110 O1118   1.989   .     S
Cu1110 O1124   1.961   .     S
Cu1110 O1120   1.992   .     S
N1125  C1127   1.448   .     S
N1125  H1126   1.030   .     S
C1127  H1129   1.111   .     S
C1127  H1130   1.111   .     S
C1127  H1128   1.109   .     S
N1131  H1132   1.030   .     S
N1131  C1133   1.448   .     S
C1133  H1134   1.111   .     S
C1133  H1135   1.110   .     S
C1133  H1136   1.111   .     S
N1141  C1143   1.449   .     S
N1141  H1142   1.028   .     S
C1143  H1145   1.109   .     S
C1143  H1146   1.111   .     S
C1143  H1144   1.109   .     S
N1147  C1149   1.450   .     S
N1147  H1148   1.031   .     S
C1149  H1151   1.112   .     S
C1149  H1152   1.110   .     S
C1149  H954    1.104   1_655 S
N1153  H1154   1.030   .     S
N1153  C1155   1.447   .     S
C1155  H1157   1.106   .     S
C1155  H1156   1.109   .     S
C1155  H1158   1.111   .     S
N1159  H1160   1.031   .     S
N1159  C1161   1.448   .     S
C1161  H1162   1.110   .     S
C1161  H1163   1.107   .     S
C1161  H1164   1.108   .     S
N1165  H1166   1.029   .     S
N1165  C1167   1.449   .     S
C1167  H1169   1.110   .     S
C1167  H1170   1.111   .     S
C1167  H1168   1.111   .     S
N1171  H1172   1.030   .     S
N1171  C1173   1.449   .     S
C1173  H1174   1.111   .     S
C1173  H1176   1.110   .     S
C1173  H1175   1.112   .     S
C1177  C1186   1.470   .     S
C1177  O1215   1.294   .     A
C1177  O1218   1.292   .     A
C1178  O1217   1.292   .     A
C1178  O1216   1.295   .     A
C1178  C1185   1.473   .     S
C1179  C1204   1.419   .     A
C1179  N1239   1.422   .     S
C1180  N1245   1.425   .     S
C1180  C1203   1.421   .     A
C1180  C324    1.400   1_556 S
C1181  N1251   1.428   .     S
C1181  C1186   1.416   .     A
C1181  C1379   1.402   1_455 S
C1182  C1185   1.416   .     A
C1182  N1257   1.427   .     S
C1182  C1282   1.399   .     S
C1183  N1263   1.427   .     S
C1183  C1185   1.416   .     A
C1183  C1279   1.402   .     S
C1184  N1269   1.428   .     S
C1184  C1186   1.414   .     A
C1184  C1378   1.399   1_455 S
C1187  H1209   1.082   .     S
C1187  N1214   1.367   .     A
C1188  N1213   1.366   .     A
C1188  H1210   1.082   .     S
C1188  C1483   1.414   .     S
C1189  N1214   1.366   .     A
C1189  H1211   1.078   .     S
C1190  N1213   1.367   .     A
C1190  H1212   1.082   .     S
C1190  C1481   1.415   .     S
C1191  C1196   1.451   .     S
C1191  O1219   1.290   .     A
C1191  O1222   1.285   .     A
C1192  O1220   1.290   .     A
C1192  O1221   1.286   .     A
C1192  C1195   1.451   .     S
C1193  C1203   1.413   .     A
C1193  N1223   1.426   .     S
C1193  C1195   1.403   .     A
C1194  N1229   1.428   .     S
C1194  C1204   1.416   .     A
C1194  C1196   1.405   .     A
C1195  C1197   1.396   .     A
C1196  C1198   1.398   .     A
C1197  Br1235  1.940   .     S
C1197  C1199   1.407   .     A
C1198  Br1236  1.940   .     S
C1198  C1200   1.408   .     A
C1199  C1205   1.408   .     A
C1199  C1201   1.418   .     A
C1200  C1202   1.415   .     A
C1200  C1206   1.406   .     A
C1201  C1203   1.422   .     A
C1201  C320    1.414   1_556 S
C1202  C1204   1.420   .     A
C1205  Br1237  1.932   .     S
C1205  C297    1.393   1_556 S
C1206  Br1238  1.930   .     S
Cu1207 O1219   1.961   .     S
Cu1207 Cu1208  2.672   .     S
Cu1207 N1213   2.008   .     S
Cu1207 O1217   1.992   .     S
Cu1207 O1215   1.989   .     S
Cu1207 O1221   1.961   .     S
Cu1208 N1214   2.008   .     S
Cu1208 O1220   1.961   .     S
Cu1208 O1216   1.989   .     S
Cu1208 O1222   1.961   .     S
Cu1208 O1218   1.992   .     S
N1223  C1225   1.448   .     S
N1223  H1224   1.030   .     S
C1225  H1227   1.111   .     S
C1225  H1228   1.111   .     S
C1225  H1226   1.109   .     S
N1229  H1230   1.030   .     S
N1229  C1231   1.448   .     S
C1231  H1232   1.111   .     S
C1231  H1233   1.110   .     S
C1231  H1234   1.111   .     S
N1239  C1241   1.449   .     S
N1239  H1240   1.028   .     S
C1241  H1243   1.109   .     S
C1241  H1244   1.111   .     S
C1241  H1242   1.109   .     S
N1245  C1247   1.450   .     S
N1245  H1246   1.031   .     S
C1247  H1249   1.112   .     S
C1247  H1250   1.110   .     S
C1247  H1346   1.104   .     S
H1248  C1443   1.104   1_455 S
N1251  H1252   1.030   .     S
N1251  C1253   1.447   .     S
C1253  H1255   1.106   .     S
C1253  H1254   1.109   .     S
C1253  H1256   1.111   .     S
N1257  H1258   1.031   .     S
N1257  C1259   1.448   .     S
C1259  H1260   1.110   .     S
C1259  H1261   1.107   .     S
C1259  H1262   1.108   .     S
N1263  H1264   1.029   .     S
N1263  C1265   1.449   .     S
C1265  H1267   1.110   .     S
C1265  H1268   1.111   .     S
C1265  H1266   1.111   .     S
N1269  H1270   1.030   .     S
N1269  C1271   1.449   .     S
C1271  H1272   1.111   .     S
C1271  H1274   1.110   .     S
C1271  H1273   1.112   .     S
C1275  C1284   1.470   .     S
C1275  O1313   1.294   .     A
C1275  O1316   1.292   .     A
C1276  O1315   1.292   .     A
C1276  O1314   1.295   .     A
C1276  C1283   1.473   .     S
C1277  C1302   1.419   .     A
C1277  N1337   1.422   .     S
C1278  N1343   1.425   .     S
C1278  C1301   1.421   .     A
C1278  C422    1.400   1_556 S
C1279  N1349   1.428   .     S
C1279  C1284   1.416   .     A
C1280  C1283   1.416   .     A
C1280  N1355   1.427   .     S
C1280  C1380   1.399   .     S
C1281  N1361   1.427   .     S
C1281  C1283   1.416   .     A
C1281  C1377   1.402   .     S
C1282  N1367   1.428   .     S
C1282  C1284   1.414   .     A
C1285  H1307   1.082   .     S
C1285  N1312   1.367   .     A
C1286  N1311   1.366   .     A
C1286  H1308   1.082   .     S
C1286  C1581   1.414   .     S
C1287  N1312   1.366   .     A
C1287  H1309   1.078   .     S
C1288  N1311   1.367   .     A
C1288  H1310   1.082   .     S
C1288  C1579   1.415   .     S
C1289  C1294   1.451   .     S
C1289  O1317   1.290   .     A
C1289  O1320   1.285   .     A
C1290  O1318   1.290   .     A
C1290  O1319   1.286   .     A
C1290  C1293   1.451   .     S
C1291  C1301   1.413   .     A
C1291  N1321   1.426   .     S
C1291  C1293   1.403   .     A
C1292  N1327   1.428   .     S
C1292  C1302   1.416   .     A
C1292  C1294   1.405   .     A
C1293  C1295   1.396   .     A
C1294  C1296   1.398   .     A
C1295  Br1333  1.940   .     S
C1295  C1297   1.407   .     A
C1296  Br1334  1.940   .     S
C1296  C1298   1.408   .     A
C1297  C1303   1.408   .     A
C1297  C1299   1.418   .     A
C1298  C1300   1.415   .     A
C1298  C1304   1.406   .     A
C1299  C1301   1.422   .     A
C1299  C418    1.414   1_556 S
C1300  C1302   1.420   .     A
C1303  Br1335  1.932   .     S
C1303  C395    1.393   1_556 S
C1304  Br1336  1.930   .     S
Cu1305 O1317   1.961   .     S
Cu1305 Cu1306  2.672   .     S
Cu1305 N1311   2.008   .     S
Cu1305 O1315   1.992   .     S
Cu1305 O1313   1.989   .     S
Cu1305 O1319   1.961   .     S
Cu1306 N1312   2.008   .     S
Cu1306 O1318   1.961   .     S
Cu1306 O1314   1.989   .     S
Cu1306 O1320   1.961   .     S
Cu1306 O1316   1.992   .     S
N1321  C1323   1.448   .     S
N1321  H1322   1.030   .     S
C1323  H1325   1.111   .     S
C1323  H1326   1.111   .     S
C1323  H1324   1.109   .     S
N1327  H1328   1.030   .     S
N1327  C1329   1.448   .     S
C1329  H1330   1.111   .     S
C1329  H1331   1.110   .     S
C1329  H1332   1.111   .     S
N1337  C1339   1.449   .     S
N1337  H1338   1.028   .     S
C1339  H1341   1.109   .     S
C1339  H1342   1.111   .     S
C1339  H1340   1.109   .     S
N1343  C1345   1.450   .     S
N1343  H1344   1.031   .     S
C1345  H1347   1.112   .     S
C1345  H1348   1.110   .     S
C1345  H1444   1.104   .     S
N1349  H1350   1.030   .     S
N1349  C1351   1.447   .     S
C1351  H1353   1.106   .     S
C1351  H1352   1.109   .     S
C1351  H1354   1.111   .     S
N1355  H1356   1.031   .     S
N1355  C1357   1.448   .     S
C1357  H1358   1.110   .     S
C1357  H1359   1.107   .     S
C1357  H1360   1.108   .     S
N1361  H1362   1.029   .     S
N1361  C1363   1.449   .     S
C1363  H1365   1.110   .     S
C1363  H1366   1.111   .     S
C1363  H1364   1.111   .     S
N1367  H1368   1.030   .     S
N1367  C1369   1.449   .     S
C1369  H1370   1.111   .     S
C1369  H1372   1.110   .     S
C1369  H1371   1.112   .     S
C1373  C1382   1.470   .     S
C1373  O1411   1.294   .     A
C1373  O1414   1.292   .     A
C1374  O1413   1.292   .     A
C1374  O1412   1.295   .     A
C1374  C1381   1.473   .     S
C1375  C1400   1.419   .     A
C1375  N1435   1.422   .     S
C1376  N1441   1.425   .     S
C1376  C1399   1.421   .     A
C1376  C520    1.400   1_556 S
C1377  N1447   1.428   .     S
C1377  C1382   1.416   .     A
C1378  C1381   1.416   .     A
C1378  N1453   1.427   .     S
C1378  C1184   1.399   1_655 S
C1379  N1459   1.427   .     S
C1379  C1381   1.416   .     A
C1379  C1181   1.402   1_655 S
C1380  N1465   1.428   .     S
C1380  C1382   1.414   .     A
C1383  H1405   1.082   .     S
C1383  N1410   1.367   .     A
C1384  N1409   1.366   .     A
C1384  H1406   1.082   .     S
C1384  C1679   1.414   .     S
C1385  N1410   1.366   .     A
C1385  H1407   1.078   .     S
C1386  N1409   1.367   .     A
C1386  H1408   1.082   .     S
C1386  C1677   1.415   .     S
C1387  C1392   1.451   .     S
C1387  O1415   1.290   .     A
C1387  O1418   1.285   .     A
C1388  O1416   1.290   .     A
C1388  O1417   1.286   .     A
C1388  C1391   1.451   .     S
C1389  C1399   1.413   .     A
C1389  N1419   1.426   .     S
C1389  C1391   1.403   .     A
C1390  N1425   1.428   .     S
C1390  C1400   1.416   .     A
C1390  C1392   1.405   .     A
C1391  C1393   1.396   .     A
C1392  C1394   1.398   .     A
C1393  Br1431  1.940   .     S
C1393  C1395   1.407   .     A
C1394  Br1432  1.940   .     S
C1394  C1396   1.408   .     A
C1395  C1401   1.408   .     A
C1395  C1397   1.418   .     A
C1396  C1398   1.415   .     A
C1396  C1402   1.406   .     A
C1397  C1399   1.422   .     A
C1397  C516    1.414   1_556 S
C1398  C1400   1.420   .     A
C1401  Br1433  1.932   .     S
C1401  C493    1.393   1_556 S
C1402  Br1434  1.930   .     S
Cu1403 O1415   1.961   .     S
Cu1403 Cu1404  2.672   .     S
Cu1403 N1409   2.008   .     S
Cu1403 O1413   1.992   .     S
Cu1403 O1411   1.989   .     S
Cu1403 O1417   1.961   .     S
Cu1404 N1410   2.008   .     S
Cu1404 O1416   1.961   .     S
Cu1404 O1412   1.989   .     S
Cu1404 O1418   1.961   .     S
Cu1404 O1414   1.992   .     S
N1419  C1421   1.448   .     S
N1419  H1420   1.030   .     S
C1421  H1423   1.111   .     S
C1421  H1424   1.111   .     S
C1421  H1422   1.109   .     S
N1425  H1426   1.030   .     S
N1425  C1427   1.448   .     S
C1427  H1428   1.111   .     S
C1427  H1429   1.110   .     S
C1427  H1430   1.111   .     S
N1435  C1437   1.449   .     S
N1435  H1436   1.028   .     S
C1437  H1439   1.109   .     S
C1437  H1440   1.111   .     S
C1437  H1438   1.109   .     S
N1441  C1443   1.450   .     S
N1441  H1442   1.031   .     S
C1443  H1445   1.112   .     S
C1443  H1446   1.110   .     S
C1443  H1248   1.104   1_655 S
N1447  H1448   1.030   .     S
N1447  C1449   1.447   .     S
C1449  H1451   1.106   .     S
C1449  H1450   1.109   .     S
C1449  H1452   1.111   .     S
N1453  H1454   1.031   .     S
N1453  C1455   1.448   .     S
C1455  H1456   1.110   .     S
C1455  H1457   1.107   .     S
C1455  H1458   1.108   .     S
N1459  H1460   1.029   .     S
N1459  C1461   1.449   .     S
C1461  H1463   1.110   .     S
C1461  H1464   1.111   .     S
C1461  H1462   1.111   .     S
N1465  H1466   1.030   .     S
N1465  C1467   1.449   .     S
C1467  H1468   1.111   .     S
C1467  H1470   1.110   .     S
C1467  H1469   1.112   .     S
C1471  C1480   1.470   .     S
C1471  O1509   1.294   .     A
C1471  O1512   1.292   .     A
C1472  O1511   1.292   .     A
C1472  O1510   1.295   .     A
C1472  C1479   1.473   .     S
C1473  C1498   1.419   .     A
C1473  N1533   1.422   .     S
C1474  N1539   1.425   .     S
C1474  C1497   1.421   .     A
C1474  C618    1.400   1_556 S
C1475  N1545   1.428   .     S
C1475  C1480   1.416   .     A
C1475  C1673   1.402   1_455 S
C1476  C1479   1.416   .     A
C1476  N1551   1.427   .     S
C1476  C1576   1.399   .     S
C1477  N1557   1.427   .     S
C1477  C1479   1.416   .     A
C1477  C1573   1.402   .     S
C1478  N1563   1.428   .     S
C1478  C1480   1.414   .     A
C1478  C1672   1.399   1_455 S
C1481  H1503   1.082   .     S
C1481  N1508   1.367   .     A
C1482  N1507   1.366   .     A
C1482  H1504   1.082   .     S
C1482  C895    1.414   1_565 S
C1483  N1508   1.366   .     A
C1483  H1505   1.078   .     S
C1484  N1507   1.367   .     A
C1484  H1506   1.082   .     S
C1484  C893    1.415   1_565 S
C1485  C1490   1.451   .     S
C1485  O1513   1.290   .     A
C1485  O1516   1.285   .     A
C1486  O1514   1.290   .     A
C1486  O1515   1.286   .     A
C1486  C1489   1.451   .     S
C1487  C1497   1.413   .     A
C1487  N1517   1.426   .     S
C1487  C1489   1.403   .     A
C1488  N1523   1.428   .     S
C1488  C1498   1.416   .     A
C1488  C1490   1.405   .     A
C1489  C1491   1.396   .     A
C1490  C1492   1.398   .     A
C1491  Br1529  1.940   .     S
C1491  C1493   1.407   .     A
C1492  Br1530  1.940   .     S
C1492  C1494   1.408   .     A
C1493  C1499   1.408   .     A
C1493  C1495   1.418   .     A
C1494  C1496   1.415   .     A
C1494  C1500   1.406   .     A
C1495  C1497   1.422   .     A
C1495  C614    1.414   1_556 S
C1496  C1498   1.420   .     A
C1499  Br1531  1.932   .     S
C1499  C591    1.393   1_556 S
C1500  Br1532  1.930   .     S
Cu1501 O1513   1.961   .     S
Cu1501 Cu1502  2.672   .     S
Cu1501 N1507   2.008   .     S
Cu1501 O1511   1.992   .     S
Cu1501 O1509   1.989   .     S
Cu1501 O1515   1.961   .     S
Cu1502 N1508   2.008   .     S
Cu1502 O1514   1.961   .     S
Cu1502 O1510   1.989   .     S
Cu1502 O1516   1.961   .     S
Cu1502 O1512   1.992   .     S
N1517  C1519   1.448   .     S
N1517  H1518   1.030   .     S
C1519  H1521   1.111   .     S
C1519  H1522   1.111   .     S
C1519  H1520   1.109   .     S
N1523  H1524   1.030   .     S
N1523  C1525   1.448   .     S
C1525  H1526   1.111   .     S
C1525  H1527   1.110   .     S
C1525  H1528   1.111   .     S
N1533  C1535   1.449   .     S
N1533  H1534   1.028   .     S
C1535  H1537   1.109   .     S
C1535  H1538   1.111   .     S
C1535  H1536   1.109   .     S
N1539  C1541   1.450   .     S
N1539  H1540   1.031   .     S
C1541  H1543   1.112   .     S
C1541  H1544   1.110   .     S
C1541  H1640   1.104   .     S
H1542  C1737   1.104   1_455 S
N1545  H1546   1.030   .     S
N1545  C1547   1.447   .     S
C1547  H1549   1.106   .     S
C1547  H1548   1.109   .     S
C1547  H1550   1.111   .     S
N1551  H1552   1.031   .     S
N1551  C1553   1.448   .     S
C1553  H1554   1.110   .     S
C1553  H1555   1.107   .     S
C1553  H1556   1.108   .     S
N1557  H1558   1.029   .     S
N1557  C1559   1.449   .     S
C1559  H1561   1.110   .     S
C1559  H1562   1.111   .     S
C1559  H1560   1.111   .     S
N1563  H1564   1.030   .     S
N1563  C1565   1.449   .     S
C1565  H1566   1.111   .     S
C1565  H1568   1.110   .     S
C1565  H1567   1.112   .     S
C1569  C1578   1.470   .     S
C1569  O1607   1.294   .     A
C1569  O1610   1.292   .     A
C1570  O1609   1.292   .     A
C1570  O1608   1.295   .     A
C1570  C1577   1.473   .     S
C1571  C1596   1.419   .     A
C1571  N1631   1.422   .     S
C1572  N1637   1.425   .     S
C1572  C1595   1.421   .     A
C1572  C716    1.400   1_556 S
C1573  N1643   1.428   .     S
C1573  C1578   1.416   .     A
C1574  C1577   1.416   .     A
C1574  N1649   1.427   .     S
C1574  C1674   1.399   .     S
C1575  N1655   1.427   .     S
C1575  C1577   1.416   .     A
C1575  C1671   1.402   .     S
C1576  N1661   1.428   .     S
C1576  C1578   1.414   .     A
C1579  H1601   1.082   .     S
C1579  N1606   1.367   .     A
C1580  N1605   1.366   .     A
C1580  H1602   1.082   .     S
C1580  C993    1.414   1_565 S
C1581  N1606   1.366   .     A
C1581  H1603   1.078   .     S
C1582  N1605   1.367   .     A
C1582  H1604   1.082   .     S
C1582  C991    1.415   1_565 S
C1583  C1588   1.451   .     S
C1583  O1611   1.290   .     A
C1583  O1614   1.285   .     A
C1584  O1612   1.290   .     A
C1584  O1613   1.286   .     A
C1584  C1587   1.451   .     S
C1585  C1595   1.413   .     A
C1585  N1615   1.426   .     S
C1585  C1587   1.403   .     A
C1586  N1621   1.428   .     S
C1586  C1596   1.416   .     A
C1586  C1588   1.405   .     A
C1587  C1589   1.396   .     A
C1588  C1590   1.398   .     A
C1589  Br1627  1.940   .     S
C1589  C1591   1.407   .     A
C1590  Br1628  1.940   .     S
C1590  C1592   1.408   .     A
C1591  C1597   1.408   .     A
C1591  C1593   1.418   .     A
C1592  C1594   1.415   .     A
C1592  C1598   1.406   .     A
C1593  C1595   1.422   .     A
C1593  C712    1.414   1_556 S
C1594  C1596   1.420   .     A
C1597  Br1629  1.932   .     S
C1597  C689    1.393   1_556 S
C1598  Br1630  1.930   .     S
Cu1599 O1611   1.961   .     S
Cu1599 Cu1600  2.672   .     S
Cu1599 N1605   2.008   .     S
Cu1599 O1609   1.992   .     S
Cu1599 O1607   1.989   .     S
Cu1599 O1613   1.961   .     S
Cu1600 N1606   2.008   .     S
Cu1600 O1612   1.961   .     S
Cu1600 O1608   1.989   .     S
Cu1600 O1614   1.961   .     S
Cu1600 O1610   1.992   .     S
N1615  C1617   1.448   .     S
N1615  H1616   1.030   .     S
C1617  H1619   1.111   .     S
C1617  H1620   1.111   .     S
C1617  H1618   1.109   .     S
N1621  H1622   1.030   .     S
N1621  C1623   1.448   .     S
C1623  H1624   1.111   .     S
C1623  H1625   1.110   .     S
C1623  H1626   1.111   .     S
N1631  C1633   1.449   .     S
N1631  H1632   1.028   .     S
C1633  H1635   1.109   .     S
C1633  H1636   1.111   .     S
C1633  H1634   1.109   .     S
N1637  C1639   1.450   .     S
N1637  H1638   1.031   .     S
C1639  H1641   1.112   .     S
C1639  H1642   1.110   .     S
C1639  H1738   1.104   .     S
N1643  H1644   1.030   .     S
N1643  C1645   1.447   .     S
C1645  H1647   1.106   .     S
C1645  H1646   1.109   .     S
C1645  H1648   1.111   .     S
N1649  H1650   1.031   .     S
N1649  C1651   1.448   .     S
C1651  H1652   1.110   .     S
C1651  H1653   1.107   .     S
C1651  H1654   1.108   .     S
N1655  H1656   1.029   .     S
N1655  C1657   1.449   .     S
C1657  H1659   1.110   .     S
C1657  H1660   1.111   .     S
C1657  H1658   1.111   .     S
N1661  H1662   1.030   .     S
N1661  C1663   1.449   .     S
C1663  H1664   1.111   .     S
C1663  H1666   1.110   .     S
C1663  H1665   1.112   .     S
C1667  C1676   1.470   .     S
C1667  O1705   1.294   .     A
C1667  O1708   1.292   .     A
C1668  O1707   1.292   .     A
C1668  O1706   1.295   .     A
C1668  C1675   1.473   .     S
C1669  C1694   1.419   .     A
C1669  N1729   1.422   .     S
C1670  N1735   1.425   .     S
C1670  C1693   1.421   .     A
C1670  C814    1.400   1_556 S
C1671  N1741   1.428   .     S
C1671  C1676   1.416   .     A
C1672  C1675   1.416   .     A
C1672  N1747   1.427   .     S
C1672  C1478   1.399   1_655 S
C1673  N1753   1.427   .     S
C1673  C1675   1.416   .     A
C1673  C1475   1.402   1_655 S
C1674  N1759   1.428   .     S
C1674  C1676   1.414   .     A
C1677  H1699   1.082   .     S
C1677  N1704   1.367   .     A
C1678  N1703   1.366   .     A
C1678  H1700   1.082   .     S
C1678  C1091   1.414   1_565 S
C1679  N1704   1.366   .     A
C1679  H1701   1.078   .     S
C1680  N1703   1.367   .     A
C1680  H1702   1.082   .     S
C1680  C1089   1.415   1_565 S
C1681  C1686   1.451   .     S
C1681  O1709   1.290   .     A
C1681  O1712   1.285   .     A
C1682  O1710   1.290   .     A
C1682  O1711   1.286   .     A
C1682  C1685   1.451   .     S
C1683  C1693   1.413   .     A
C1683  N1713   1.426   .     S
C1683  C1685   1.403   .     A
C1684  N1719   1.428   .     S
C1684  C1694   1.416   .     A
C1684  C1686   1.405   .     A
C1685  C1687   1.396   .     A
C1686  C1688   1.398   .     A
C1687  Br1725  1.940   .     S
C1687  C1689   1.407   .     A
C1688  Br1726  1.940   .     S
C1688  C1690   1.408   .     A
C1689  C1695   1.408   .     A
C1689  C1691   1.418   .     A
C1690  C1692   1.415   .     A
C1690  C1696   1.406   .     A
C1691  C1693   1.422   .     A
C1691  C810    1.414   1_556 S
C1692  C1694   1.420   .     A
C1695  Br1727  1.932   .     S
C1695  C787    1.393   1_556 S
C1696  Br1728  1.930   .     S
Cu1697 O1709   1.961   .     S
Cu1697 Cu1698  2.672   .     S
Cu1697 N1703   2.008   .     S
Cu1697 O1707   1.992   .     S
Cu1697 O1705   1.989   .     S
Cu1697 O1711   1.961   .     S
Cu1698 N1704   2.008   .     S
Cu1698 O1710   1.961   .     S
Cu1698 O1706   1.989   .     S
Cu1698 O1712   1.961   .     S
Cu1698 O1708   1.992   .     S
N1713  C1715   1.448   .     S
N1713  H1714   1.030   .     S
C1715  H1717   1.111   .     S
C1715  H1718   1.111   .     S
C1715  H1716   1.109   .     S
N1719  H1720   1.030   .     S
N1719  C1721   1.448   .     S
C1721  H1722   1.111   .     S
C1721  H1723   1.110   .     S
C1721  H1724   1.111   .     S
N1729  C1731   1.449   .     S
N1729  H1730   1.028   .     S
C1731  H1733   1.109   .     S
C1731  H1734   1.111   .     S
C1731  H1732   1.109   .     S
N1735  C1737   1.450   .     S
N1735  H1736   1.031   .     S
C1737  H1739   1.112   .     S
C1737  H1740   1.110   .     S
C1737  H1542   1.104   1_655 S
N1741  H1742   1.030   .     S
N1741  C1743   1.447   .     S
C1743  H1745   1.106   .     S
C1743  H1744   1.109   .     S
C1743  H1746   1.111   .     S
N1747  H1748   1.031   .     S
N1747  C1749   1.448   .     S
C1749  H1750   1.110   .     S
C1749  H1751   1.107   .     S
C1749  H1752   1.108   .     S
N1753  H1754   1.029   .     S
N1753  C1755   1.449   .     S
C1755  H1757   1.110   .     S
C1755  H1758   1.111   .     S
C1755  H1756   1.111   .     S
N1759  H1760   1.030   .     S
N1759  C1761   1.449   .     S
C1761  H1762   1.111   .     S
C1761  H1764   1.110   .     S
C1761  H1763   1.112   .     S
