data_str_m1_o1_o2_pcu_sym.111
_audit_creation_date              2020-01-03
_audit_creation_method            'Materials Studio'
_symmetry_space_group_name_H-M    'P1'
_symmetry_Int_Tables_number       1
_symmetry_cell_setting            triclinic
loop_
_symmetry_equiv_pos_as_xyz
  x,y,z
_cell_length_a                    36.5942
_cell_length_b                    36.6101
_cell_length_c                    34.4762
_cell_angle_alpha                 89.9923
_cell_angle_beta                  89.9948
_cell_angle_gamma                 89.6161
loop_
_atom_site_label
_atom_site_type_symbol
_atom_site_fract_x
_atom_site_fract_y
_atom_site_fract_z
_atom_site_U_iso_or_equiv
_atom_site_adp_type
_atom_site_occupancy
C1     C     0.22223   0.01871   0.04152   0.00000  Uiso   1.00
C2     C     0.02836   0.26749   0.45851   0.00000  Uiso   1.00
C3     C     0.34806   0.40195   0.75002   0.00000  Uiso   1.00
C4     C     0.40195   0.15189   0.25020   0.00000  Uiso   1.00
C5     C     0.09811   0.34811   0.74999   0.00000  Uiso   1.00
C6     C     0.34810   0.40204   0.25026   0.00000  Uiso   1.00
C7     C     0.15194   0.09805   0.75002   0.00000  Uiso   1.00
C8     C     0.09802   0.15199   0.75000   0.00000  Uiso   1.00
C9     C     0.40198   0.34805   0.24980   0.00000  Uiso   1.00
C10    C     0.15195   0.40195   0.75002   0.00000  Uiso   1.00
C11    C     0.34804   0.09813   0.24975   0.00000  Uiso   1.00
C12    C     0.40198   0.34801   0.74999   0.00000  Uiso   1.00
C13    C     0.23288   0.47152   0.54161   0.00000  Uiso   1.00
C14    C     0.09809   0.15198   0.24997   0.00000  Uiso   1.00
C15    C     0.34805   0.09805   0.75001   0.00000  Uiso   1.00
C16    C     0.15189   0.40190   0.25001   0.00000  Uiso   1.00
C17    C     0.25002  -0.00000   0.10246   0.00000  Uiso   1.00
C18    C     0.25002   0.49975   0.89761   0.00000  Uiso   1.00
C19    C     0.49971   0.25003   0.10239   0.00000  Uiso   1.00
C20    C     0.49996   0.25001   0.89754   0.00000  Uiso   1.00
C21    C     0.00000   0.25000   0.60246   0.00000  Uiso   1.00
C22    C    -0.00000   0.25000   0.39762   0.00000  Uiso   1.00
C23    C     0.25000   0.00000   0.60240   0.00000  Uiso   1.00
C24    C     0.23120   0.02776   0.45843   0.00000  Uiso   1.00
C25    C     0.25000  -0.00000   0.39755   0.00000  Uiso   1.00
C26    C     0.19266   0.07368   0.03194   0.00000  Uiso   1.00
C27    C     0.17494   0.09550   0.99937   0.00000  Uiso   1.00
C28    C     0.30020   0.07111   0.97921   0.00000  Uiso   1.00
C29    C     0.32846   0.08906   0.00519   0.00000  Uiso   1.00
C30    C     0.42878   0.19025   0.03134   0.00000  Uiso   1.00
C31    C     0.40862   0.17015   0.99931   0.00000  Uiso   1.00
C32    C     0.42535   0.29829   0.97740   0.00000  Uiso   1.00
C33    C     0.40579   0.32580   0.00329   0.00000  Uiso   1.00
C34    C     0.29829   0.42545   0.02254   0.00000  Uiso   1.00
C35    C     0.02794   0.23162   0.54169   0.00000  Uiso   1.00
C36    C     0.32581   0.40590   0.99666   0.00000  Uiso   1.00
C37    C     0.19017   0.42890   0.96870   0.00000  Uiso   1.00
C38    C     0.17009   0.40874   0.00076   0.00000  Uiso   1.00
C39    C     0.07107   0.30024   0.02077   0.00000  Uiso   1.00
C40    C     0.08901   0.32847   0.99476   0.00000  Uiso   1.00
C41    C     0.07364   0.19270   0.96812   0.00000  Uiso   1.00
C42    C     0.09543   0.17497   0.00071   0.00000  Uiso   1.00
C43    C     0.45187   0.32390   0.52139   0.00000  Uiso   1.00
C44    C     0.42436   0.34316   0.49526   0.00000  Uiso   1.00
C45    C     0.05984   0.32093   0.46828   0.00000  Uiso   1.00
C46    C     0.47164   0.23251   0.45852   0.00000  Uiso   1.00
C47    C     0.07921   0.34150   0.50053   0.00000  Uiso   1.00
C48    C     0.17840   0.45014   0.52042   0.00000  Uiso   1.00
C49    C     0.16039   0.42163   0.49481   0.00000  Uiso   1.00
C50    C     0.17651   0.05809   0.46766   0.00000  Uiso   1.00
C51    C     0.15477   0.07637   0.49995   0.00000  Uiso   1.00
C52    C     0.04808   0.17611   0.52131   0.00000  Uiso   1.00
C53    C     0.07565   0.15684   0.49526   0.00000  Uiso   1.00
C54    C     0.44010   0.17908   0.46827   0.00000  Uiso   1.00
C55    C     0.42078   0.15849   0.50054   0.00000  Uiso   1.00
C56    C     0.32160   0.04985   0.52039   0.00000  Uiso   1.00
C57    C     0.26712   0.02848   0.54160   0.00000  Uiso   1.00
C58    C     0.33961   0.07836   0.49477   0.00000  Uiso   1.00
C59    C     0.32349   0.44190   0.46766   0.00000  Uiso   1.00
C60    C     0.34524   0.42363   0.49995   0.00000  Uiso   1.00
C61    C     0.21502   0.35210   0.22091   0.00000  Uiso   1.00
C62    C     0.28401   0.14291   0.78064   0.00000  Uiso   1.00
C63    C     0.12608   0.19194   0.17558   0.00000  Uiso   1.00
C64    C     0.38098   0.30407   0.82104   0.00000  Uiso   1.00
C65    C     0.28417   0.14283   0.21878   0.00000  Uiso   1.00
C66    C     0.21597   0.35710   0.78071   0.00000  Uiso   1.00
C67    C     0.38112   0.30431   0.17869   0.00000  Uiso   1.00
C68    C     0.26879   0.47223   0.45843   0.00000  Uiso   1.00
C69    C     0.11896   0.19584   0.82111   0.00000  Uiso   1.00
C70    C     0.19166   0.12640   0.82445   0.00000  Uiso   1.00
C71    C     0.30874   0.37417   0.17520   0.00000  Uiso   1.00
C72    C     0.14794   0.28526   0.77970   0.00000  Uiso   1.00
C73    C     0.35241   0.21476   0.21988   0.00000  Uiso   1.00
C74    C     0.30831   0.37356   0.82441   0.00000  Uiso   1.00
C75    C     0.19487   0.11903   0.17795   0.00000  Uiso   1.00
C76    C     0.35204   0.21474   0.77965   0.00000  Uiso   1.00
C77    C     0.14316   0.28403   0.21969   0.00000  Uiso   1.00
C78    C     0.46478   0.10210   0.72032   0.00000  Uiso   1.00
C79    C     0.22175   0.01745   0.08218   0.00000  Uiso   1.00
C80    C     0.03397   0.39297   0.28048   0.00000  Uiso   1.00
C81    C     0.37650   0.44172   0.67564   0.00000  Uiso   1.00
C82    C     0.13127   0.05434   0.32127   0.00000  Uiso   1.00
C83    C     0.03525   0.39790   0.72026   0.00000  Uiso   1.00
C84    C     0.46592   0.10720   0.28101   0.00000  Uiso   1.00
C85    C     0.12353   0.05832   0.67561   0.00000  Uiso   1.00
C86    C     0.36874   0.44570   0.32142   0.00000  Uiso   1.00
C87    C     0.44144   0.37617   0.32472   0.00000  Uiso   1.00
C88    C     0.05411   0.13105   0.67891   0.00000  Uiso   1.00
C89    C     0.39777   0.03540   0.28021   0.00000  Uiso   1.00
C90    C     0.27897   0.01556   0.91796   0.00000  Uiso   1.00
C91    C     0.10705   0.46595   0.71936   0.00000  Uiso   1.00
C92    C     0.05855   0.12375   0.32462   0.00000  Uiso   1.00
C93    C     0.44593   0.36899   0.67894   0.00000  Uiso   1.00
C94    C     0.10198   0.46486   0.27933   0.00000  Uiso   1.00
C95    C     0.39297   0.03405   0.71939   0.00000  Uiso   1.00
C96    C     0.48366   0.22111   0.08217   0.00000  Uiso   1.00
C97    C     0.27850   0.01663   0.95843   0.00000  Uiso   1.00
C98    C     0.48248   0.27827   0.91777   0.00000  Uiso   1.00
C99    C     0.27829   0.48254   0.08221   0.00000  Uiso   1.00
C100   C     0.22108   0.48372   0.91785   0.00000  Uiso   1.00
C101   C     0.01552   0.27897   0.08202   0.00000  Uiso   1.00
C102   C     0.01740   0.22175   0.91783   0.00000  Uiso   1.00
C103   C     0.47162   0.26729   0.58218   0.00000  Uiso   1.00
C104   C     0.02886   0.26606   0.41789   0.00000  Uiso   1.00
C105   C     0.23396   0.47113   0.58210   0.00000  Uiso   1.00
C106   C     0.23265   0.02831   0.41779   0.00000  Uiso   1.00
C107   C     0.02839   0.23271   0.58218   0.00000  Uiso   1.00
C108   C     0.48221   0.22153   0.04152   0.00000  Uiso   1.00
C109   C     0.47114   0.23394   0.41790   0.00000  Uiso   1.00
C110   C     0.26604   0.02888   0.58208   0.00000  Uiso   1.00
C111   C     0.26735   0.47168   0.41780   0.00000  Uiso   1.00
C112   C     0.24991   0.49975   0.02137   0.00000  Uiso   1.00
C113   C     0.24994   0.49958   0.97874   0.00000  Uiso   1.00
C114   C     0.49950   0.24996   0.02126   0.00000  Uiso   1.00
C115   C     0.49967   0.24991   0.97863   0.00000  Uiso   1.00
C116   C     0.00000   0.25000   0.52134   0.00000  Uiso   1.00
C117   C    -0.00000   0.25000   0.47871   0.00000  Uiso   1.00
C118   C     0.25000   0.00000   0.52125   0.00000  Uiso   1.00
C119   C     0.48116   0.27773   0.95824   0.00000  Uiso   1.00
C120   C     0.25000  -0.00000   0.47862   0.00000  Uiso   1.00
C121   C     0.25000  -0.00000   0.35521   0.00000  Uiso   1.00
C122   C     0.25000   0.00000   0.64477   0.00000  Uiso   1.00
C123   C    -0.00000   0.25000   0.35524   0.00000  Uiso   1.00
C124   C     0.00000   0.25000   0.64479   0.00000  Uiso   1.00
C125   C     0.49998   0.25000   0.85521   0.00000  Uiso   1.00
C126   C     0.49996   0.25000   0.14477   0.00000  Uiso   1.00
C127   C     0.25000   0.49997   0.85524   0.00000  Uiso   1.00
C128   C     0.25000   0.49999   0.14479   0.00000  Uiso   1.00
C129   C     0.18004   0.07002   0.24995   0.00000  Uiso   1.00
C130   C     0.27774   0.48124   0.04174   0.00000  Uiso   1.00
C131   C     0.32000   0.43000   0.75001   0.00000  Uiso   1.00
C132   C     0.42997   0.17994   0.25006   0.00000  Uiso   1.00
C133   C     0.07005   0.32005   0.74999   0.00000  Uiso   1.00
C134   C     0.32000   0.43001   0.25001   0.00000  Uiso   1.00
C135   C     0.18000   0.07000   0.75001   0.00000  Uiso   1.00
C136   C     0.07003   0.32004   0.25001   0.00000  Uiso   1.00
C137   C     0.42995   0.17995   0.75000   0.00000  Uiso   1.00
C138   C     0.17996   0.42997   0.75001   0.00000  Uiso   1.00
C139   C     0.32004   0.07005   0.24995   0.00000  Uiso   1.00
C140   C     0.43001   0.31999   0.75000   0.00000  Uiso   1.00
C141   C     0.22150   0.48229   0.95850   0.00000  Uiso   1.00
C142   C     0.07001   0.18001   0.24999   0.00000  Uiso   1.00
C143   C     0.32003   0.07003   0.75000   0.00000  Uiso   1.00
C144   C     0.17994   0.42995   0.25000   0.00000  Uiso   1.00
C145   C     0.06999   0.18001   0.75000   0.00000  Uiso   1.00
C146   C     0.43004   0.32004   0.25004   0.00000  Uiso   1.00
C147   C     0.16206   0.36480   0.25305   0.00000  Uiso   1.00
C148   C     0.33785   0.13520   0.74741   0.00000  Uiso   1.00
C149   C     0.13134   0.15846   0.23088   0.00000  Uiso   1.00
C150   C     0.36859   0.34155   0.76910   0.00000  Uiso   1.00
C151   C     0.33786   0.13528   0.25228   0.00000  Uiso   1.00
C152   C     0.01656   0.27851   0.04155   0.00000  Uiso   1.00
C153   C     0.16215   0.36480   0.74745   0.00000  Uiso   1.00
C154   C     0.36863   0.34176   0.23061   0.00000  Uiso   1.00
C155   C     0.13139   0.15843   0.76913   0.00000  Uiso   1.00
C156   C     0.15848   0.13134   0.76895   0.00000  Uiso   1.00
C157   C     0.34163   0.36894   0.23089   0.00000  Uiso   1.00
C158   C     0.13523   0.33795   0.74716   0.00000  Uiso   1.00
C159   C     0.36481   0.16210   0.25264   0.00000  Uiso   1.00
C160   C     0.34150   0.36865   0.76892   0.00000  Uiso   1.00
C161   C     0.15841   0.13133   0.23064   0.00000  Uiso   1.00
C162   C     0.36477   0.16205   0.74713   0.00000  Uiso   1.00
C163   C     0.01864   0.22224   0.95849   0.00000  Uiso   1.00
C164   C     0.13521   0.33789   0.25276   0.00000  Uiso   1.00
C165   C     0.41206   0.11479   0.75286   0.00000  Uiso   1.00
C166   C     0.08785   0.38520   0.24734   0.00000  Uiso   1.00
C167   C     0.38138   0.40849   0.73110   0.00000  Uiso   1.00
C168   C     0.11871   0.09166   0.26923   0.00000  Uiso   1.00
C169   C     0.08793   0.38521   0.75284   0.00000  Uiso   1.00
C170   C     0.41213   0.11474   0.24763   0.00000  Uiso   1.00
C171   C     0.11863   0.09153   0.73109   0.00000  Uiso   1.00
C172   C     0.38144   0.40834   0.26946   0.00000  Uiso   1.00
C173   C     0.40849   0.38121   0.26908   0.00000  Uiso   1.00
C174   C     0.47206   0.26838   0.54168   0.00000  Uiso   1.00
C175   C     0.09155   0.11863   0.73088   0.00000  Uiso   1.00
C176   C     0.38518   0.08792   0.24732   0.00000  Uiso   1.00
C177   C     0.11478   0.41213   0.75259   0.00000  Uiso   1.00
C178   C     0.09161   0.11874   0.26903   0.00000  Uiso   1.00
C179   C     0.40846   0.38139   0.73090   0.00000  Uiso   1.00
C180   C     0.11477   0.41205   0.24704   0.00000  Uiso   1.00
C181   C     0.38522   0.08787   0.75260   0.00000  Uiso   1.00
C182   C     0.09805   0.34806   0.25003   0.00000  Uiso   1.00
C183   C     0.40189   0.15189   0.74999   0.00000  Uiso   1.00
C184   C     0.15202   0.09804   0.24994   0.00000  Uiso   1.00
H185   H     0.19974   0.03062   0.09798   0.00000  Uiso   1.00
H186   H     0.05138   0.27804   0.40211   0.00000  Uiso   1.00
H187   H     0.30282   0.14327   0.80610   0.00000  Uiso   1.00
H188   H     0.26767   0.11751   0.78154   0.00000  Uiso   1.00
H189   H     0.26483   0.16629   0.78397   0.00000  Uiso   1.00
H190   H     0.13054   0.21940   0.16294   0.00000  Uiso   1.00
H191   H     0.09635   0.18614   0.17351   0.00000  Uiso   1.00
H192   H     0.14181   0.17209   0.15774   0.00000  Uiso   1.00
H193   H     0.38951   0.33034   0.83461   0.00000  Uiso   1.00
H194   H     0.40541   0.28662   0.81588   0.00000  Uiso   1.00
H195   H     0.36356   0.28965   0.84238   0.00000  Uiso   1.00
H196   H     0.26856   0.11700   0.21762   0.00000  Uiso   1.00
H197   H     0.22144   0.44870   0.59759   0.00000  Uiso   1.00
H198   H     0.30304   0.14394   0.19340   0.00000  Uiso   1.00
H199   H     0.26435   0.16569   0.21561   0.00000  Uiso   1.00
H200   H     0.19713   0.35674   0.80616   0.00000  Uiso   1.00
H201   H     0.23229   0.38251   0.78161   0.00000  Uiso   1.00
H202   H     0.23516   0.33373   0.78406   0.00000  Uiso   1.00
H203   H     0.40559   0.28697   0.18405   0.00000  Uiso   1.00
H204   H     0.38958   0.33058   0.16506   0.00000  Uiso   1.00
H205   H     0.36387   0.28974   0.15732   0.00000  Uiso   1.00
H206   H     0.11042   0.16955   0.83465   0.00000  Uiso   1.00
H207   H     0.09453   0.21330   0.81596   0.00000  Uiso   1.00
H208   H     0.21966   0.05040   0.40197   0.00000  Uiso   1.00
H209   H     0.13635   0.21024   0.84248   0.00000  Uiso   1.00
H210   H     0.21891   0.13142   0.83740   0.00000  Uiso   1.00
H211   H     0.18632   0.09660   0.82668   0.00000  Uiso   1.00
H212   H     0.17131   0.14193   0.84187   0.00000  Uiso   1.00
H213   H     0.31521   0.40374   0.17290   0.00000  Uiso   1.00
H214   H     0.28124   0.37021   0.16243   0.00000  Uiso   1.00
H215   H     0.32840   0.35787   0.15769   0.00000  Uiso   1.00
H216   H     0.16230   0.25870   0.77655   0.00000  Uiso   1.00
H217   H     0.12028   0.27984   0.79159   0.00000  Uiso   1.00
H218   H     0.16393   0.30170   0.80073   0.00000  Uiso   1.00
H219   H     0.05042   0.21924   0.59770   0.00000  Uiso   1.00
H220   H     0.38016   0.22018   0.20824   0.00000  Uiso   1.00
H221   H     0.33801   0.24132   0.22285   0.00000  Uiso   1.00
H222   H     0.33660   0.19828   0.19873   0.00000  Uiso   1.00
H223   H     0.28107   0.36851   0.83738   0.00000  Uiso   1.00
H224   H     0.31362   0.40336   0.82665   0.00000  Uiso   1.00
H225   H     0.32867   0.35804   0.84183   0.00000  Uiso   1.00
H226   H     0.16821   0.11183   0.16433   0.00000  Uiso   1.00
H227   H     0.21124   0.09380   0.18262   0.00000  Uiso   1.00
H228   H     0.20998   0.13610   0.15684   0.00000  Uiso   1.00
H229   H     0.33765   0.24129   0.77649   0.00000  Uiso   1.00
H230   H     0.44862   0.22196   0.40213   0.00000  Uiso   1.00
H231   H     0.37968   0.22018   0.79154   0.00000  Uiso   1.00
H232   H     0.33604   0.19829   0.80068   0.00000  Uiso   1.00
H233   H     0.14387   0.30279   0.19420   0.00000  Uiso   1.00
H234   H     0.11767   0.26784   0.21857   0.00000  Uiso   1.00
H235   H     0.16647   0.26472   0.21665   0.00000  Uiso   1.00
H236   H     0.49131   0.08765   0.72346   0.00000  Uiso   1.00
H237   H     0.47028   0.12974   0.70848   0.00000  Uiso   1.00
H238   H     0.44829   0.08618   0.69926   0.00000  Uiso   1.00
H239   H     0.05275   0.39346   0.30597   0.00000  Uiso   1.00
H240   H     0.01769   0.36754   0.28145   0.00000  Uiso   1.00
H241   H     0.27855   0.05131   0.59756   0.00000  Uiso   1.00
H242   H     0.01472   0.41631   0.28370   0.00000  Uiso   1.00
H243   H     0.38156   0.46896   0.66271   0.00000  Uiso   1.00
H244   H     0.34669   0.43641   0.67338   0.00000  Uiso   1.00
H245   H     0.39203   0.42139   0.65820   0.00000  Uiso   1.00
H246   H     0.13990   0.08065   0.33469   0.00000  Uiso   1.00
H247   H     0.15564   0.03682   0.31609   0.00000  Uiso   1.00
H248   H     0.11390   0.04004   0.34274   0.00000  Uiso   1.00
H249   H     0.00873   0.41237   0.72336   0.00000  Uiso   1.00
H250   H     0.02973   0.37026   0.70844   0.00000  Uiso   1.00
H251   H     0.05177   0.41378   0.69919   0.00000  Uiso   1.00
H252   H     0.28033   0.44959   0.40197   0.00000  Uiso   1.00
H253   H     0.44706   0.10699   0.30645   0.00000  Uiso   1.00
H254   H     0.48227   0.13260   0.28177   0.00000  Uiso   1.00
H255   H     0.48509   0.08384   0.28452   0.00000  Uiso   1.00
H256   H     0.11850   0.03108   0.66268   0.00000  Uiso   1.00
H257   H     0.15334   0.06364   0.67336   0.00000  Uiso   1.00
H258   H     0.10800   0.07866   0.65818   0.00000  Uiso   1.00
H259   H     0.36012   0.41941   0.33490   0.00000  Uiso   1.00
H260   H     0.34435   0.46315   0.31601   0.00000  Uiso   1.00
H261   H     0.38594   0.46013   0.34294   0.00000  Uiso   1.00
H262   H     0.46878   0.38072   0.33767   0.00000  Uiso   1.00
H263   H     0.22005   0.08577   0.03771   0.00000  Uiso   1.00
H264   H     0.43557   0.34648   0.32703   0.00000  Uiso   1.00
H265   H     0.42137   0.39210   0.34210   0.00000  Uiso   1.00
H266   H     0.08041   0.13954   0.66535   0.00000  Uiso   1.00
H267   H     0.03668   0.15549   0.68407   0.00000  Uiso   1.00
H268   H     0.03967   0.11367   0.65757   0.00000  Uiso   1.00
H269   H     0.41197   0.00874   0.27724   0.00000  Uiso   1.00
H270   H     0.37008   0.03022   0.29214   0.00000  Uiso   1.00
H271   H     0.41387   0.05188   0.30112   0.00000  Uiso   1.00
H272   H     0.10672   0.44715   0.69390   0.00000  Uiso   1.00
H273   H     0.13244   0.48231   0.71848   0.00000  Uiso   1.00
H274   H     0.17534   0.07648   0.05828   0.00000  Uiso   1.00
H275   H     0.08364   0.48510   0.71603   0.00000  Uiso   1.00
H276   H     0.03131   0.11882   0.33763   0.00000  Uiso   1.00
H277   H     0.06397   0.15353   0.32680   0.00000  Uiso   1.00
H278   H     0.07889   0.10819   0.34202   0.00000  Uiso   1.00
H279   H     0.41963   0.36051   0.66536   0.00000  Uiso   1.00
H280   H     0.46335   0.34455   0.68409   0.00000  Uiso   1.00
H281   H     0.46038   0.38639   0.65761   0.00000  Uiso   1.00
H282   H     0.08779   0.49150   0.27599   0.00000  Uiso   1.00
H283   H     0.12960   0.47016   0.29136   0.00000  Uiso   1.00
H284   H     0.08577   0.44856   0.30031   0.00000  Uiso   1.00
H285   H     0.14700   0.08515   0.99359   0.00000  Uiso   1.00
H286   H     0.39332   0.05286   0.69392   0.00000  Uiso   1.00
H287   H     0.36758   0.01770   0.71850   0.00000  Uiso   1.00
H288   H     0.41638   0.01490   0.71608   0.00000  Uiso   1.00
H289   H     0.30146   0.02802   0.90252   0.00000  Uiso   1.00
H290   H     0.17308   0.12473   0.00775   0.00000  Uiso   1.00
H291   H     0.19159   0.09305   0.97254   0.00000  Uiso   1.00
H292   H     0.27260   0.07751   0.99119   0.00000  Uiso   1.00
H293   H     0.30260   0.08302   0.94960   0.00000  Uiso   1.00
H294   H     0.35637   0.08389   0.99368   0.00000  Uiso   1.00
H295   H     0.32348   0.11900   0.00624   0.00000  Uiso   1.00
H296   H     0.32652   0.07784   0.03506   0.00000  Uiso   1.00
H297   H     0.41527   0.21742   0.03526   0.00000  Uiso   1.00
H298   H     0.42620   0.17415   0.05854   0.00000  Uiso   1.00
H299   H     0.42069   0.14251   0.99515   0.00000  Uiso   1.00
H300   H     0.47182   0.19854   0.09797   0.00000  Uiso   1.00
H301   H     0.37935   0.16730   0.00720   0.00000  Uiso   1.00
H302   H     0.41061   0.18568   0.97171   0.00000  Uiso   1.00
H303   H     0.41930   0.27038   0.98854   0.00000  Uiso   1.00
H304   H     0.41435   0.30113   0.94743   0.00000  Uiso   1.00
H305   H     0.41073   0.35398   0.99266   0.00000  Uiso   1.00
H306   H     0.37594   0.32056   0.00297   0.00000  Uiso   1.00
H307   H     0.41596   0.32333   0.03354   0.00000  Uiso   1.00
H308   H     0.27036   0.41943   0.01139   0.00000  Uiso   1.00
H309   H     0.30111   0.41444   0.05251   0.00000  Uiso   1.00
H310   H     0.32335   0.41609   0.96641   0.00000  Uiso   1.00
H311   H     0.46898   0.30025   0.90220   0.00000  Uiso   1.00
H312   H     0.35400   0.41082   0.00730   0.00000  Uiso   1.00
H313   H     0.32055   0.37607   0.99696   0.00000  Uiso   1.00
H314   H     0.21734   0.41538   0.96474   0.00000  Uiso   1.00
H315   H     0.17403   0.42634   0.94153   0.00000  Uiso   1.00
H316   H     0.18566   0.41072   0.02833   0.00000  Uiso   1.00
H317   H     0.16720   0.37950   0.99286   0.00000  Uiso   1.00
H318   H     0.14245   0.42083   0.00497   0.00000  Uiso   1.00
H319   H     0.07750   0.27263   0.00882   0.00000  Uiso   1.00
H320   H     0.08296   0.30266   0.05038   0.00000  Uiso   1.00
H321   H     0.07780   0.32649   0.96489   0.00000  Uiso   1.00
H322   H     0.30028   0.46903   0.09777   0.00000  Uiso   1.00
H323   H     0.11896   0.32352   0.99373   0.00000  Uiso   1.00
H324   H     0.08381   0.35637   0.00623   0.00000  Uiso   1.00
H325   H     0.08572   0.22009   0.96238   0.00000  Uiso   1.00
H326   H     0.07647   0.17540   0.94178   0.00000  Uiso   1.00
H327   H     0.09295   0.19160   0.02754   0.00000  Uiso   1.00
H328   H     0.08508   0.14704   0.00647   0.00000  Uiso   1.00
H329   H     0.12468   0.17313   0.99236   0.00000  Uiso   1.00
H330   H     0.47976   0.32934   0.50979   0.00000  Uiso   1.00
H331   H     0.44946   0.33562   0.55109   0.00000  Uiso   1.00
H332   H     0.39621   0.33898   0.50639   0.00000  Uiso   1.00
H333   H     0.19850   0.47187   0.90206   0.00000  Uiso   1.00
H334   H     0.43010   0.37290   0.49458   0.00000  Uiso   1.00
H335   H     0.42633   0.33214   0.46531   0.00000  Uiso   1.00
H336   H     0.03281   0.33446   0.46338   0.00000  Uiso   1.00
H337   H     0.07663   0.32306   0.44151   0.00000  Uiso   1.00
H338   H     0.10670   0.32941   0.50567   0.00000  Uiso   1.00
H339   H     0.08235   0.37062   0.49224   0.00000  Uiso   1.00
H340   H     0.06298   0.33995   0.52771   0.00000  Uiso   1.00
H341   H     0.17237   0.47759   0.50785   0.00000  Uiso   1.00
H342   H     0.16622   0.44837   0.54996   0.00000  Uiso   1.00
H343   H     0.16521   0.39389   0.50689   0.00000  Uiso   1.00
H344   H     0.02799   0.30146   0.09745   0.00000  Uiso   1.00
H345   H     0.13050   0.42686   0.49340   0.00000  Uiso   1.00
H346   H     0.17188   0.42297   0.46502   0.00000  Uiso   1.00
H347   H     0.16399   0.03091   0.46193   0.00000  Uiso   1.00
H348   H     0.17422   0.07536   0.44123   0.00000  Uiso   1.00
H349   H     0.16579   0.10401   0.50587   0.00000  Uiso   1.00
H350   H     0.12566   0.07902   0.49122   0.00000  Uiso   1.00
H351   H     0.15648   0.05968   0.52681   0.00000  Uiso   1.00
H352   H     0.02022   0.17074   0.50960   0.00000  Uiso   1.00
H353   H     0.05036   0.16434   0.55100   0.00000  Uiso   1.00
H354   H     0.07380   0.16792   0.46531   0.00000  Uiso   1.00
H355   H     0.03058   0.19975   0.90205   0.00000  Uiso   1.00
H356   H     0.10376   0.16096   0.50650   0.00000  Uiso   1.00
H357   H     0.06985   0.12712   0.49450   0.00000  Uiso   1.00
H358   H     0.46710   0.16554   0.46327   0.00000  Uiso   1.00
H359   H     0.42325   0.17701   0.44154   0.00000  Uiso   1.00
H360   H     0.43707   0.15997   0.52767   0.00000  Uiso   1.00
H361   H     0.41759   0.12938   0.49221   0.00000  Uiso   1.00
H362   H     0.39331   0.17059   0.50576   0.00000  Uiso   1.00
H363   H     0.32762   0.02240   0.50782   0.00000  Uiso   1.00
H364   H     0.33378   0.05162   0.54992   0.00000  Uiso   1.00
H365   H     0.36950   0.07312   0.49334   0.00000  Uiso   1.00
H366   H     0.44959   0.28076   0.59770   0.00000  Uiso   1.00
H367   H     0.33480   0.10610   0.50684   0.00000  Uiso   1.00
H368   H     0.32812   0.07703   0.46498   0.00000  Uiso   1.00
H369   H     0.33601   0.46909   0.46191   0.00000  Uiso   1.00
H370   H     0.32578   0.42464   0.44124   0.00000  Uiso   1.00
H371   H     0.33422   0.39599   0.50588   0.00000  Uiso   1.00
H372   H     0.37434   0.42098   0.49121   0.00000  Uiso   1.00
H373   H     0.34353   0.44033   0.52680   0.00000  Uiso   1.00
H374   H     0.24138   0.33737   0.22421   0.00000  Uiso   1.00
H375   H     0.22091   0.37973   0.20927   0.00000  Uiso   1.00
H376   H     0.19854   0.33646   0.19960   0.00000  Uiso   1.00
O377   O     0.25000  -0.00000   0.25000   0.00000  Uiso   1.00
O378   O     0.25000   0.46964   0.66317   0.00000  Uiso   1.00
O379   O     0.39603   0.05164   0.75579   0.00000  Uiso   1.00
O380   O     0.46964   0.25000   0.33683   0.00000  Uiso   1.00
O381   O     0.03036   0.25000   0.66317   0.00000  Uiso   1.00
O382   O     0.00000   0.21964   0.83683   0.00000  Uiso   1.00
O383   O     0.00000   0.28036   0.16317   0.00000  Uiso   1.00
O384   O     0.28036  -0.00000   0.83683   0.00000  Uiso   1.00
O385   O     0.21964   0.00000   0.16317   0.00000  Uiso   1.00
O386   O     0.00000   0.28036   0.83683   0.00000  Uiso   1.00
O387   O     0.00000   0.21964   0.16317   0.00000  Uiso   1.00
O388   O     0.21964  -0.00000   0.83683   0.00000  Uiso   1.00
O389   O     0.25000  -0.00000   0.75000   0.00000  Uiso   1.00
O390   O     0.28036   0.00000   0.16317   0.00000  Uiso   1.00
O391   O     0.20725   0.07307   0.27282   0.00000  Uiso   1.00
O392   O     0.29274   0.42693   0.72718   0.00000  Uiso   1.00
O393   O     0.42693   0.20725   0.27282   0.00000  Uiso   1.00
O394   O     0.07307   0.29275   0.72718   0.00000  Uiso   1.00
O395   O     0.29274   0.42693   0.27282   0.00000  Uiso   1.00
O396   O     0.20725   0.07307   0.72718   0.00000  Uiso   1.00
O397   O     0.07307   0.29275   0.27282   0.00000  Uiso   1.00
O398   O     0.42693   0.20725   0.72718   0.00000  Uiso   1.00
O399   O     0.20725   0.42693   0.72718   0.00000  Uiso   1.00
O400   O     0.00000   0.25000   0.25000   0.00000  Uiso   1.00
O401   O     0.29274   0.07307   0.27282   0.00000  Uiso   1.00
O402   O     0.42693   0.29274   0.72718   0.00000  Uiso   1.00
O403   O     0.07307   0.20726   0.27282   0.00000  Uiso   1.00
O404   O     0.29274   0.07307   0.72718   0.00000  Uiso   1.00
O405   O     0.20725   0.42693   0.27282   0.00000  Uiso   1.00
O406   O     0.07307   0.20726   0.72718   0.00000  Uiso   1.00
O407   O     0.42693   0.29274   0.27282   0.00000  Uiso   1.00
O408   O     0.45725   0.32307   0.77282   0.00000  Uiso   1.00
O409   O     0.04274   0.17693   0.22718   0.00000  Uiso   1.00
O410   O     0.17693   0.45726   0.77282   0.00000  Uiso   1.00
O411   O     0.00000   0.25000   0.75000   0.00000  Uiso   1.00
O412   O     0.32307   0.04274   0.22718   0.00000  Uiso   1.00
O413   O     0.04274   0.17693   0.77282   0.00000  Uiso   1.00
O414   O     0.45725   0.32307   0.22718   0.00000  Uiso   1.00
O415   O     0.32307   0.04274   0.77282   0.00000  Uiso   1.00
O416   O     0.17693   0.45726   0.22718   0.00000  Uiso   1.00
O417   O     0.45725   0.17693   0.22718   0.00000  Uiso   1.00
O418   O     0.04274   0.32307   0.77282   0.00000  Uiso   1.00
O419   O     0.17693   0.04274   0.22718   0.00000  Uiso   1.00
O420   O     0.32307   0.45726   0.77282   0.00000  Uiso   1.00
O421   O     0.04274   0.32307   0.22718   0.00000  Uiso   1.00
O422   O     0.25000   0.46964   0.33683   0.00000  Uiso   1.00
O423   O     0.45725   0.17693   0.77282   0.00000  Uiso   1.00
O424   O     0.32307   0.45726   0.22718   0.00000  Uiso   1.00
O425   O     0.17693   0.04274   0.77282   0.00000  Uiso   1.00
O426   O     0.19500   0.03659   0.02074   0.00000  Uiso   1.00
O427   O     0.30677   0.03309   0.97830   0.00000  Uiso   1.00
O428   O     0.46597   0.19344   0.02089   0.00000  Uiso   1.00
O429   O     0.46322   0.30533   0.97809   0.00000  Uiso   1.00
O430   O     0.30535   0.46330   0.02188   0.00000  Uiso   1.00
O431   O     0.19339   0.46607   0.97915   0.00000  Uiso   1.00
O432   O     0.03302   0.30677   0.02166   0.00000  Uiso   1.00
O433   O     0.25000   0.03036   0.66317   0.00000  Uiso   1.00
O434   O     0.03652   0.19501   0.97929   0.00000  Uiso   1.00
O435   O     0.44435   0.28614   0.52183   0.00000  Uiso   1.00
O436   O     0.05630   0.28391   0.47924   0.00000  Uiso   1.00
O437   O     0.21637   0.44325   0.52181   0.00000  Uiso   1.00
O438   O     0.21348   0.05511   0.47921   0.00000  Uiso   1.00
O439   O     0.05566   0.21386   0.52184   0.00000  Uiso   1.00
O440   O     0.44370   0.21608   0.47927   0.00000  Uiso   1.00
O441   O     0.28363   0.05675   0.52179   0.00000  Uiso   1.00
O442   O     0.28652   0.44489   0.47922   0.00000  Uiso   1.00
O443   O     0.19823   0.35437   0.25769   0.00000  Uiso   1.00
O444   O     0.03036   0.25000   0.33683   0.00000  Uiso   1.00
O445   O     0.30160   0.14599   0.74424   0.00000  Uiso   1.00
O446   O     0.13835   0.19215   0.21437   0.00000  Uiso   1.00
O447   O     0.36097   0.30820   0.78619   0.00000  Uiso   1.00
O448   O     0.30161   0.14613   0.25524   0.00000  Uiso   1.00
O449   O     0.19840   0.35401   0.74430   0.00000  Uiso   1.00
O450   O     0.36091   0.30849   0.21341   0.00000  Uiso   1.00
O451   O     0.13899   0.19176   0.78627   0.00000  Uiso   1.00
O452   O     0.19216   0.13830   0.78552   0.00000  Uiso   1.00
O453   O     0.30801   0.36223   0.21410   0.00000  Uiso   1.00
O454   O     0.14569   0.30177   0.74278   0.00000  Uiso   1.00
O455   O     0.46964   0.25000   0.66317   0.00000  Uiso   1.00
O456   O     0.35437   0.19830   0.25684   0.00000  Uiso   1.00
O457   O     0.30782   0.36168   0.78549   0.00000  Uiso   1.00
O458   O     0.19164   0.13871   0.21312   0.00000  Uiso   1.00
O459   O     0.35432   0.19822   0.74274   0.00000  Uiso   1.00
O460   O     0.14601   0.30167   0.25608   0.00000  Uiso   1.00
O461   O     0.44826   0.10435   0.75724   0.00000  Uiso   1.00
O462   O     0.05160   0.39599   0.24410   0.00000  Uiso   1.00
O463   O     0.38837   0.44217   0.71457   0.00000  Uiso   1.00
O464   O     0.11114   0.05836   0.28647   0.00000  Uiso   1.00
O465   O     0.05174   0.39565   0.75719   0.00000  Uiso   1.00
O466   O     0.25000   0.03036   0.33683   0.00000  Uiso   1.00
O467   O     0.44838   0.10392   0.24461   0.00000  Uiso   1.00
O468   O     0.11165   0.05786   0.71454   0.00000  Uiso   1.00
O469   O     0.38909   0.44157   0.28679   0.00000  Uiso   1.00
O470   O     0.44215   0.38799   0.28578   0.00000  Uiso   1.00
O471   O     0.05820   0.11103   0.71377   0.00000  Uiso   1.00
O472   O     0.39562   0.05172   0.24319   0.00000  Uiso   1.00
O473   O     0.10397   0.44836   0.75576   0.00000  Uiso   1.00
O474   O     0.05796   0.11181   0.28571   0.00000  Uiso   1.00
O475   O     0.44182   0.38899   0.71380   0.00000  Uiso   1.00
O476   O     0.10433   0.44821   0.24249   0.00000  Uiso   1.00
Zn477  Zn    0.20660  -0.00000   0.21760   0.00000  Uiso   1.00
Zn478  Zn    0.04340   0.25000   0.28240   0.00000  Uiso   1.00
Zn479  Zn    0.25000   0.45660   0.71760   0.00000  Uiso   1.00
Zn480  Zn    0.25000   0.04340   0.28240   0.00000  Uiso   1.00
Zn481  Zn    0.04340   0.25000   0.71760   0.00000  Uiso   1.00
Zn482  Zn    0.45660   0.25000   0.28240   0.00000  Uiso   1.00
Zn483  Zn    0.25000   0.04340   0.71760   0.00000  Uiso   1.00
Zn484  Zn    0.25000   0.45660   0.28240   0.00000  Uiso   1.00
Zn485  Zn    0.29340   0.00000   0.78240   0.00000  Uiso   1.00
Zn486  Zn   -0.00000   0.20660   0.21760   0.00000  Uiso   1.00
Zn487  Zn    0.00000   0.29340   0.78240   0.00000  Uiso   1.00
Zn488  Zn    0.29340  -0.00000   0.21760   0.00000  Uiso   1.00
Zn489  Zn    0.20660   0.00000   0.78240   0.00000  Uiso   1.00
Zn490  Zn    0.00000   0.29340   0.21760   0.00000  Uiso   1.00
Zn491  Zn    0.00000   0.20660   0.78240   0.00000  Uiso   1.00
Zn492  Zn    0.45660   0.25000   0.71760   0.00000  Uiso   1.00
C493   C     0.72223   0.01871   0.04152   0.00000  Uiso   1.00
C494   C     0.52836   0.26749   0.45851   0.00000  Uiso   1.00
C495   C     0.84806   0.40195   0.75002   0.00000  Uiso   1.00
C496   C     0.90195   0.15189   0.25020   0.00000  Uiso   1.00
C497   C     0.59811   0.34811   0.74999   0.00000  Uiso   1.00
C498   C     0.84810   0.40204   0.25026   0.00000  Uiso   1.00
C499   C     0.65194   0.09805   0.75002   0.00000  Uiso   1.00
C500   C     0.59802   0.15199   0.75000   0.00000  Uiso   1.00
C501   C     0.90198   0.34805   0.24980   0.00000  Uiso   1.00
C502   C     0.65195   0.40195   0.75002   0.00000  Uiso   1.00
C503   C     0.84804   0.09813   0.24975   0.00000  Uiso   1.00
C504   C     0.90198   0.34801   0.74999   0.00000  Uiso   1.00
C505   C     0.73288   0.47152   0.54161   0.00000  Uiso   1.00
C506   C     0.59809   0.15198   0.24997   0.00000  Uiso   1.00
C507   C     0.84805   0.09805   0.75001   0.00000  Uiso   1.00
C508   C     0.65189   0.40190   0.25001   0.00000  Uiso   1.00
C509   C     0.75002  -0.00000   0.10246   0.00000  Uiso   1.00
C510   C     0.75002   0.49975   0.89761   0.00000  Uiso   1.00
C511   C     0.99971   0.25003   0.10239   0.00000  Uiso   1.00
C512   C     0.99996   0.25001   0.89754   0.00000  Uiso   1.00
C513   C     0.50000   0.25000   0.60246   0.00000  Uiso   1.00
C514   C     0.50000   0.25000   0.39762   0.00000  Uiso   1.00
C515   C     0.75000   0.00000   0.60240   0.00000  Uiso   1.00
C516   C     0.73120   0.02776   0.45843   0.00000  Uiso   1.00
C517   C     0.75000  -0.00000   0.39755   0.00000  Uiso   1.00
C518   C     0.69266   0.07368   0.03194   0.00000  Uiso   1.00
C519   C     0.67494   0.09550   0.99937   0.00000  Uiso   1.00
C520   C     0.80020   0.07111   0.97921   0.00000  Uiso   1.00
C521   C     0.82846   0.08906   0.00519   0.00000  Uiso   1.00
C522   C     0.92878   0.19025   0.03134   0.00000  Uiso   1.00
C523   C     0.90862   0.17015   0.99931   0.00000  Uiso   1.00
C524   C     0.92535   0.29829   0.97740   0.00000  Uiso   1.00
C525   C     0.90579   0.32580   0.00329   0.00000  Uiso   1.00
C526   C     0.79829   0.42545   0.02254   0.00000  Uiso   1.00
C527   C     0.52794   0.23162   0.54169   0.00000  Uiso   1.00
C528   C     0.82581   0.40590   0.99666   0.00000  Uiso   1.00
C529   C     0.69017   0.42890   0.96870   0.00000  Uiso   1.00
C530   C     0.67009   0.40874   0.00076   0.00000  Uiso   1.00
C531   C     0.57107   0.30024   0.02077   0.00000  Uiso   1.00
C532   C     0.58901   0.32847   0.99476   0.00000  Uiso   1.00
C533   C     0.57364   0.19270   0.96812   0.00000  Uiso   1.00
C534   C     0.59543   0.17497   0.00071   0.00000  Uiso   1.00
C535   C     0.95187   0.32390   0.52139   0.00000  Uiso   1.00
C536   C     0.92436   0.34316   0.49526   0.00000  Uiso   1.00
C537   C     0.55984   0.32093   0.46828   0.00000  Uiso   1.00
C538   C     0.97164   0.23251   0.45852   0.00000  Uiso   1.00
C539   C     0.57921   0.34150   0.50053   0.00000  Uiso   1.00
C540   C     0.67840   0.45014   0.52042   0.00000  Uiso   1.00
C541   C     0.66039   0.42163   0.49481   0.00000  Uiso   1.00
C542   C     0.67651   0.05809   0.46766   0.00000  Uiso   1.00
C543   C     0.65477   0.07637   0.49995   0.00000  Uiso   1.00
C544   C     0.54808   0.17611   0.52131   0.00000  Uiso   1.00
C545   C     0.57565   0.15684   0.49526   0.00000  Uiso   1.00
C546   C     0.94010   0.17908   0.46827   0.00000  Uiso   1.00
C547   C     0.92078   0.15849   0.50054   0.00000  Uiso   1.00
C548   C     0.82160   0.04985   0.52039   0.00000  Uiso   1.00
C549   C     0.76712   0.02848   0.54160   0.00000  Uiso   1.00
C550   C     0.83961   0.07836   0.49477   0.00000  Uiso   1.00
C551   C     0.82349   0.44190   0.46766   0.00000  Uiso   1.00
C552   C     0.84524   0.42363   0.49995   0.00000  Uiso   1.00
C553   C     0.71502   0.35210   0.22091   0.00000  Uiso   1.00
C554   C     0.78401   0.14291   0.78064   0.00000  Uiso   1.00
C555   C     0.62608   0.19194   0.17558   0.00000  Uiso   1.00
C556   C     0.88098   0.30407   0.82104   0.00000  Uiso   1.00
C557   C     0.78417   0.14283   0.21878   0.00000  Uiso   1.00
C558   C     0.71597   0.35710   0.78071   0.00000  Uiso   1.00
C559   C     0.88112   0.30431   0.17869   0.00000  Uiso   1.00
C560   C     0.76879   0.47223   0.45843   0.00000  Uiso   1.00
C561   C     0.61896   0.19584   0.82111   0.00000  Uiso   1.00
C562   C     0.69166   0.12640   0.82445   0.00000  Uiso   1.00
C563   C     0.80874   0.37417   0.17520   0.00000  Uiso   1.00
C564   C     0.64794   0.28526   0.77970   0.00000  Uiso   1.00
C565   C     0.85241   0.21476   0.21988   0.00000  Uiso   1.00
C566   C     0.80831   0.37356   0.82441   0.00000  Uiso   1.00
C567   C     0.69487   0.11903   0.17795   0.00000  Uiso   1.00
C568   C     0.85204   0.21474   0.77965   0.00000  Uiso   1.00
C569   C     0.64316   0.28403   0.21969   0.00000  Uiso   1.00
C570   C     0.96478   0.10210   0.72032   0.00000  Uiso   1.00
C571   C     0.72175   0.01745   0.08218   0.00000  Uiso   1.00
C572   C     0.53397   0.39297   0.28048   0.00000  Uiso   1.00
C573   C     0.87650   0.44172   0.67564   0.00000  Uiso   1.00
C574   C     0.63127   0.05434   0.32127   0.00000  Uiso   1.00
C575   C     0.53525   0.39790   0.72026   0.00000  Uiso   1.00
C576   C     0.96592   0.10720   0.28101   0.00000  Uiso   1.00
C577   C     0.62353   0.05832   0.67561   0.00000  Uiso   1.00
C578   C     0.86874   0.44570   0.32142   0.00000  Uiso   1.00
C579   C     0.94144   0.37617   0.32472   0.00000  Uiso   1.00
C580   C     0.55411   0.13105   0.67891   0.00000  Uiso   1.00
C581   C     0.89777   0.03540   0.28021   0.00000  Uiso   1.00
C582   C     0.77897   0.01556   0.91796   0.00000  Uiso   1.00
C583   C     0.60705   0.46595   0.71936   0.00000  Uiso   1.00
C584   C     0.55855   0.12375   0.32462   0.00000  Uiso   1.00
C585   C     0.94593   0.36899   0.67894   0.00000  Uiso   1.00
C586   C     0.60198   0.46486   0.27933   0.00000  Uiso   1.00
C587   C     0.89297   0.03405   0.71939   0.00000  Uiso   1.00
C588   C     0.98366   0.22111   0.08217   0.00000  Uiso   1.00
C589   C     0.77850   0.01663   0.95843   0.00000  Uiso   1.00
C590   C     0.98248   0.27827   0.91777   0.00000  Uiso   1.00
C591   C     0.77829   0.48254   0.08221   0.00000  Uiso   1.00
C592   C     0.72108   0.48372   0.91785   0.00000  Uiso   1.00
C593   C     0.51552   0.27897   0.08202   0.00000  Uiso   1.00
C594   C     0.51740   0.22175   0.91783   0.00000  Uiso   1.00
C595   C     0.97162   0.26729   0.58218   0.00000  Uiso   1.00
C596   C     0.52886   0.26606   0.41789   0.00000  Uiso   1.00
C597   C     0.73396   0.47113   0.58210   0.00000  Uiso   1.00
C598   C     0.73265   0.02831   0.41779   0.00000  Uiso   1.00
C599   C     0.52839   0.23271   0.58218   0.00000  Uiso   1.00
C600   C     0.98221   0.22153   0.04152   0.00000  Uiso   1.00
C601   C     0.97114   0.23394   0.41790   0.00000  Uiso   1.00
C602   C     0.76604   0.02888   0.58208   0.00000  Uiso   1.00
C603   C     0.76735   0.47168   0.41780   0.00000  Uiso   1.00
C604   C     0.74991   0.49975   0.02137   0.00000  Uiso   1.00
C605   C     0.74994   0.49958   0.97874   0.00000  Uiso   1.00
C606   C     0.99950   0.24996   0.02126   0.00000  Uiso   1.00
C607   C     0.99967   0.24991   0.97863   0.00000  Uiso   1.00
C608   C     0.50000   0.25000   0.52134   0.00000  Uiso   1.00
C609   C     0.50000   0.25000   0.47871   0.00000  Uiso   1.00
C610   C     0.75000   0.00000   0.52125   0.00000  Uiso   1.00
C611   C     0.98116   0.27773   0.95824   0.00000  Uiso   1.00
C612   C     0.75000  -0.00000   0.47862   0.00000  Uiso   1.00
C613   C     0.75000  -0.00000   0.35521   0.00000  Uiso   1.00
C614   C     0.75000   0.00000   0.64477   0.00000  Uiso   1.00
C615   C     0.50000   0.25000   0.35524   0.00000  Uiso   1.00
C616   C     0.50000   0.25000   0.64479   0.00000  Uiso   1.00
C617   C     0.99998   0.25000   0.85521   0.00000  Uiso   1.00
C618   C     0.99996   0.25000   0.14477   0.00000  Uiso   1.00
C619   C     0.75000   0.49997   0.85524   0.00000  Uiso   1.00
C620   C     0.75000   0.49999   0.14479   0.00000  Uiso   1.00
C621   C     0.68004   0.07002   0.24995   0.00000  Uiso   1.00
C622   C     0.77774   0.48124   0.04174   0.00000  Uiso   1.00
C623   C     0.82000   0.43000   0.75001   0.00000  Uiso   1.00
C624   C     0.92997   0.17994   0.25006   0.00000  Uiso   1.00
C625   C     0.57005   0.32005   0.74999   0.00000  Uiso   1.00
C626   C     0.82000   0.43001   0.25001   0.00000  Uiso   1.00
C627   C     0.68000   0.07000   0.75001   0.00000  Uiso   1.00
C628   C     0.57003   0.32004   0.25001   0.00000  Uiso   1.00
C629   C     0.92995   0.17995   0.75000   0.00000  Uiso   1.00
C630   C     0.67996   0.42997   0.75001   0.00000  Uiso   1.00
C631   C     0.82004   0.07005   0.24995   0.00000  Uiso   1.00
C632   C     0.93001   0.31999   0.75000   0.00000  Uiso   1.00
C633   C     0.72150   0.48229   0.95850   0.00000  Uiso   1.00
C634   C     0.57001   0.18001   0.24999   0.00000  Uiso   1.00
C635   C     0.82003   0.07003   0.75000   0.00000  Uiso   1.00
C636   C     0.67994   0.42995   0.25000   0.00000  Uiso   1.00
C637   C     0.56999   0.18001   0.75000   0.00000  Uiso   1.00
C638   C     0.93004   0.32004   0.25004   0.00000  Uiso   1.00
C639   C     0.66206   0.36480   0.25305   0.00000  Uiso   1.00
C640   C     0.83785   0.13520   0.74741   0.00000  Uiso   1.00
C641   C     0.63134   0.15846   0.23088   0.00000  Uiso   1.00
C642   C     0.86859   0.34155   0.76910   0.00000  Uiso   1.00
C643   C     0.83786   0.13528   0.25228   0.00000  Uiso   1.00
C644   C     0.51656   0.27851   0.04155   0.00000  Uiso   1.00
C645   C     0.66215   0.36480   0.74745   0.00000  Uiso   1.00
C646   C     0.86863   0.34176   0.23061   0.00000  Uiso   1.00
C647   C     0.63139   0.15843   0.76913   0.00000  Uiso   1.00
C648   C     0.65848   0.13134   0.76895   0.00000  Uiso   1.00
C649   C     0.84163   0.36894   0.23089   0.00000  Uiso   1.00
C650   C     0.63523   0.33795   0.74716   0.00000  Uiso   1.00
C651   C     0.86481   0.16210   0.25264   0.00000  Uiso   1.00
C652   C     0.84150   0.36865   0.76892   0.00000  Uiso   1.00
C653   C     0.65841   0.13133   0.23064   0.00000  Uiso   1.00
C654   C     0.86477   0.16205   0.74713   0.00000  Uiso   1.00
C655   C     0.51864   0.22224   0.95849   0.00000  Uiso   1.00
C656   C     0.63521   0.33789   0.25276   0.00000  Uiso   1.00
C657   C     0.91206   0.11479   0.75286   0.00000  Uiso   1.00
C658   C     0.58785   0.38520   0.24734   0.00000  Uiso   1.00
C659   C     0.88138   0.40849   0.73110   0.00000  Uiso   1.00
C660   C     0.61871   0.09166   0.26923   0.00000  Uiso   1.00
C661   C     0.58793   0.38521   0.75284   0.00000  Uiso   1.00
C662   C     0.91213   0.11474   0.24763   0.00000  Uiso   1.00
C663   C     0.61863   0.09153   0.73109   0.00000  Uiso   1.00
C664   C     0.88144   0.40834   0.26946   0.00000  Uiso   1.00
C665   C     0.90849   0.38121   0.26908   0.00000  Uiso   1.00
C666   C     0.97206   0.26838   0.54168   0.00000  Uiso   1.00
C667   C     0.59155   0.11863   0.73088   0.00000  Uiso   1.00
C668   C     0.88518   0.08792   0.24732   0.00000  Uiso   1.00
C669   C     0.61478   0.41213   0.75259   0.00000  Uiso   1.00
C670   C     0.59161   0.11874   0.26903   0.00000  Uiso   1.00
C671   C     0.90846   0.38139   0.73090   0.00000  Uiso   1.00
C672   C     0.61477   0.41205   0.24704   0.00000  Uiso   1.00
C673   C     0.88522   0.08787   0.75260   0.00000  Uiso   1.00
C674   C     0.59805   0.34806   0.25003   0.00000  Uiso   1.00
C675   C     0.90189   0.15189   0.74999   0.00000  Uiso   1.00
C676   C     0.65202   0.09804   0.24994   0.00000  Uiso   1.00
H677   H     0.69974   0.03062   0.09798   0.00000  Uiso   1.00
H678   H     0.55138   0.27804   0.40211   0.00000  Uiso   1.00
H679   H     0.80282   0.14327   0.80610   0.00000  Uiso   1.00
H680   H     0.76767   0.11751   0.78154   0.00000  Uiso   1.00
H681   H     0.76483   0.16629   0.78397   0.00000  Uiso   1.00
H682   H     0.63054   0.21940   0.16294   0.00000  Uiso   1.00
H683   H     0.59635   0.18614   0.17351   0.00000  Uiso   1.00
H684   H     0.64181   0.17209   0.15774   0.00000  Uiso   1.00
H685   H     0.88951   0.33034   0.83461   0.00000  Uiso   1.00
H686   H     0.90541   0.28662   0.81588   0.00000  Uiso   1.00
H687   H     0.86356   0.28965   0.84238   0.00000  Uiso   1.00
H688   H     0.76856   0.11700   0.21762   0.00000  Uiso   1.00
H689   H     0.72144   0.44870   0.59759   0.00000  Uiso   1.00
H690   H     0.80304   0.14394   0.19340   0.00000  Uiso   1.00
H691   H     0.76435   0.16569   0.21561   0.00000  Uiso   1.00
H692   H     0.69713   0.35674   0.80616   0.00000  Uiso   1.00
H693   H     0.73229   0.38251   0.78161   0.00000  Uiso   1.00
H694   H     0.73516   0.33373   0.78406   0.00000  Uiso   1.00
H695   H     0.90559   0.28697   0.18405   0.00000  Uiso   1.00
H696   H     0.88958   0.33058   0.16506   0.00000  Uiso   1.00
H697   H     0.86387   0.28974   0.15732   0.00000  Uiso   1.00
H698   H     0.61042   0.16955   0.83465   0.00000  Uiso   1.00
H699   H     0.59453   0.21330   0.81596   0.00000  Uiso   1.00
H700   H     0.71966   0.05040   0.40197   0.00000  Uiso   1.00
H701   H     0.63635   0.21024   0.84248   0.00000  Uiso   1.00
H702   H     0.71891   0.13142   0.83740   0.00000  Uiso   1.00
H703   H     0.68632   0.09660   0.82668   0.00000  Uiso   1.00
H704   H     0.67131   0.14193   0.84187   0.00000  Uiso   1.00
H705   H     0.81521   0.40374   0.17290   0.00000  Uiso   1.00
H706   H     0.78124   0.37021   0.16243   0.00000  Uiso   1.00
H707   H     0.82840   0.35787   0.15769   0.00000  Uiso   1.00
H708   H     0.66230   0.25870   0.77655   0.00000  Uiso   1.00
H709   H     0.62028   0.27984   0.79159   0.00000  Uiso   1.00
H710   H     0.66393   0.30170   0.80073   0.00000  Uiso   1.00
H711   H     0.55042   0.21924   0.59770   0.00000  Uiso   1.00
H712   H     0.88016   0.22018   0.20824   0.00000  Uiso   1.00
H713   H     0.83801   0.24132   0.22285   0.00000  Uiso   1.00
H714   H     0.83660   0.19828   0.19873   0.00000  Uiso   1.00
H715   H     0.78107   0.36851   0.83738   0.00000  Uiso   1.00
H716   H     0.81362   0.40336   0.82665   0.00000  Uiso   1.00
H717   H     0.82867   0.35804   0.84183   0.00000  Uiso   1.00
H718   H     0.66821   0.11183   0.16433   0.00000  Uiso   1.00
H719   H     0.71124   0.09380   0.18262   0.00000  Uiso   1.00
H720   H     0.70998   0.13610   0.15684   0.00000  Uiso   1.00
H721   H     0.83765   0.24129   0.77649   0.00000  Uiso   1.00
H722   H     0.94862   0.22196   0.40213   0.00000  Uiso   1.00
H723   H     0.87968   0.22018   0.79154   0.00000  Uiso   1.00
H724   H     0.83604   0.19829   0.80068   0.00000  Uiso   1.00
H725   H     0.64387   0.30279   0.19420   0.00000  Uiso   1.00
H726   H     0.61767   0.26784   0.21857   0.00000  Uiso   1.00
H727   H     0.66647   0.26472   0.21665   0.00000  Uiso   1.00
H728   H     0.99131   0.08765   0.72346   0.00000  Uiso   1.00
H729   H     0.97028   0.12974   0.70848   0.00000  Uiso   1.00
H730   H     0.94829   0.08618   0.69926   0.00000  Uiso   1.00
H731   H     0.55275   0.39346   0.30597   0.00000  Uiso   1.00
H732   H     0.51769   0.36754   0.28145   0.00000  Uiso   1.00
H733   H     0.77855   0.05131   0.59756   0.00000  Uiso   1.00
H734   H     0.51472   0.41631   0.28370   0.00000  Uiso   1.00
H735   H     0.88156   0.46896   0.66271   0.00000  Uiso   1.00
H736   H     0.84669   0.43641   0.67338   0.00000  Uiso   1.00
H737   H     0.89203   0.42139   0.65820   0.00000  Uiso   1.00
H738   H     0.63990   0.08065   0.33469   0.00000  Uiso   1.00
H739   H     0.65564   0.03682   0.31609   0.00000  Uiso   1.00
H740   H     0.61390   0.04004   0.34274   0.00000  Uiso   1.00
H741   H     0.50873   0.41237   0.72336   0.00000  Uiso   1.00
H742   H     0.52973   0.37026   0.70844   0.00000  Uiso   1.00
H743   H     0.55177   0.41378   0.69919   0.00000  Uiso   1.00
H744   H     0.78033   0.44959   0.40197   0.00000  Uiso   1.00
H745   H     0.94706   0.10699   0.30645   0.00000  Uiso   1.00
H746   H     0.98227   0.13260   0.28177   0.00000  Uiso   1.00
H747   H     0.98509   0.08384   0.28452   0.00000  Uiso   1.00
H748   H     0.61850   0.03108   0.66268   0.00000  Uiso   1.00
H749   H     0.65334   0.06364   0.67336   0.00000  Uiso   1.00
H750   H     0.60800   0.07866   0.65818   0.00000  Uiso   1.00
H751   H     0.86012   0.41941   0.33490   0.00000  Uiso   1.00
H752   H     0.84435   0.46315   0.31601   0.00000  Uiso   1.00
H753   H     0.88594   0.46013   0.34294   0.00000  Uiso   1.00
H754   H     0.96878   0.38072   0.33767   0.00000  Uiso   1.00
H755   H     0.72005   0.08577   0.03771   0.00000  Uiso   1.00
H756   H     0.93557   0.34648   0.32703   0.00000  Uiso   1.00
H757   H     0.92137   0.39210   0.34210   0.00000  Uiso   1.00
H758   H     0.58041   0.13954   0.66535   0.00000  Uiso   1.00
H759   H     0.53668   0.15549   0.68407   0.00000  Uiso   1.00
H760   H     0.53967   0.11367   0.65757   0.00000  Uiso   1.00
H761   H     0.91197   0.00874   0.27724   0.00000  Uiso   1.00
H762   H     0.87008   0.03022   0.29214   0.00000  Uiso   1.00
H763   H     0.91387   0.05188   0.30112   0.00000  Uiso   1.00
H764   H     0.60672   0.44715   0.69390   0.00000  Uiso   1.00
H765   H     0.63244   0.48231   0.71848   0.00000  Uiso   1.00
H766   H     0.67534   0.07648   0.05828   0.00000  Uiso   1.00
H767   H     0.58364   0.48510   0.71603   0.00000  Uiso   1.00
H768   H     0.53131   0.11882   0.33763   0.00000  Uiso   1.00
H769   H     0.56397   0.15353   0.32680   0.00000  Uiso   1.00
H770   H     0.57889   0.10819   0.34202   0.00000  Uiso   1.00
H771   H     0.91963   0.36051   0.66536   0.00000  Uiso   1.00
H772   H     0.96335   0.34455   0.68409   0.00000  Uiso   1.00
H773   H     0.96038   0.38639   0.65761   0.00000  Uiso   1.00
H774   H     0.58779   0.49150   0.27599   0.00000  Uiso   1.00
H775   H     0.62960   0.47016   0.29136   0.00000  Uiso   1.00
H776   H     0.58577   0.44856   0.30031   0.00000  Uiso   1.00
H777   H     0.64700   0.08515   0.99359   0.00000  Uiso   1.00
H778   H     0.89332   0.05286   0.69392   0.00000  Uiso   1.00
H779   H     0.86758   0.01770   0.71850   0.00000  Uiso   1.00
H780   H     0.91638   0.01490   0.71608   0.00000  Uiso   1.00
H781   H     0.80146   0.02802   0.90252   0.00000  Uiso   1.00
H782   H     0.67308   0.12473   0.00775   0.00000  Uiso   1.00
H783   H     0.69159   0.09305   0.97254   0.00000  Uiso   1.00
H784   H     0.77260   0.07751   0.99119   0.00000  Uiso   1.00
H785   H     0.80260   0.08302   0.94960   0.00000  Uiso   1.00
H786   H     0.85637   0.08389   0.99368   0.00000  Uiso   1.00
H787   H     0.82348   0.11900   0.00624   0.00000  Uiso   1.00
H788   H     0.82652   0.07784   0.03506   0.00000  Uiso   1.00
H789   H     0.91527   0.21742   0.03526   0.00000  Uiso   1.00
H790   H     0.92620   0.17415   0.05854   0.00000  Uiso   1.00
H791   H     0.92069   0.14251   0.99515   0.00000  Uiso   1.00
H792   H     0.97182   0.19854   0.09797   0.00000  Uiso   1.00
H793   H     0.87935   0.16730   0.00720   0.00000  Uiso   1.00
H794   H     0.91061   0.18568   0.97171   0.00000  Uiso   1.00
H795   H     0.91930   0.27038   0.98854   0.00000  Uiso   1.00
H796   H     0.91435   0.30113   0.94743   0.00000  Uiso   1.00
H797   H     0.91073   0.35398   0.99266   0.00000  Uiso   1.00
H798   H     0.87594   0.32056   0.00297   0.00000  Uiso   1.00
H799   H     0.91596   0.32333   0.03354   0.00000  Uiso   1.00
H800   H     0.77036   0.41943   0.01139   0.00000  Uiso   1.00
H801   H     0.80111   0.41444   0.05251   0.00000  Uiso   1.00
H802   H     0.82335   0.41609   0.96641   0.00000  Uiso   1.00
H803   H     0.96898   0.30025   0.90220   0.00000  Uiso   1.00
H804   H     0.85400   0.41082   0.00730   0.00000  Uiso   1.00
H805   H     0.82055   0.37607   0.99696   0.00000  Uiso   1.00
H806   H     0.71734   0.41538   0.96474   0.00000  Uiso   1.00
H807   H     0.67403   0.42634   0.94153   0.00000  Uiso   1.00
H808   H     0.68566   0.41072   0.02833   0.00000  Uiso   1.00
H809   H     0.66720   0.37950   0.99286   0.00000  Uiso   1.00
H810   H     0.64245   0.42083   0.00497   0.00000  Uiso   1.00
H811   H     0.57750   0.27263   0.00882   0.00000  Uiso   1.00
H812   H     0.58296   0.30266   0.05038   0.00000  Uiso   1.00
H813   H     0.57780   0.32649   0.96489   0.00000  Uiso   1.00
H814   H     0.80028   0.46903   0.09777   0.00000  Uiso   1.00
H815   H     0.61896   0.32352   0.99373   0.00000  Uiso   1.00
H816   H     0.58381   0.35637   0.00623   0.00000  Uiso   1.00
H817   H     0.58572   0.22009   0.96238   0.00000  Uiso   1.00
H818   H     0.57647   0.17540   0.94178   0.00000  Uiso   1.00
H819   H     0.59295   0.19160   0.02754   0.00000  Uiso   1.00
H820   H     0.58508   0.14704   0.00647   0.00000  Uiso   1.00
H821   H     0.62468   0.17313   0.99236   0.00000  Uiso   1.00
H822   H     0.97976   0.32934   0.50979   0.00000  Uiso   1.00
H823   H     0.94946   0.33562   0.55109   0.00000  Uiso   1.00
H824   H     0.89621   0.33898   0.50639   0.00000  Uiso   1.00
H825   H     0.69850   0.47187   0.90206   0.00000  Uiso   1.00
H826   H     0.93010   0.37290   0.49458   0.00000  Uiso   1.00
H827   H     0.92633   0.33214   0.46531   0.00000  Uiso   1.00
H828   H     0.53281   0.33446   0.46338   0.00000  Uiso   1.00
H829   H     0.57663   0.32306   0.44151   0.00000  Uiso   1.00
H830   H     0.60670   0.32941   0.50567   0.00000  Uiso   1.00
H831   H     0.58235   0.37062   0.49224   0.00000  Uiso   1.00
H832   H     0.56298   0.33995   0.52771   0.00000  Uiso   1.00
H833   H     0.67237   0.47759   0.50785   0.00000  Uiso   1.00
H834   H     0.66622   0.44837   0.54996   0.00000  Uiso   1.00
H835   H     0.66521   0.39389   0.50689   0.00000  Uiso   1.00
H836   H     0.52799   0.30146   0.09745   0.00000  Uiso   1.00
H837   H     0.63050   0.42686   0.49340   0.00000  Uiso   1.00
H838   H     0.67188   0.42297   0.46502   0.00000  Uiso   1.00
H839   H     0.66399   0.03091   0.46193   0.00000  Uiso   1.00
H840   H     0.67422   0.07536   0.44123   0.00000  Uiso   1.00
H841   H     0.66579   0.10401   0.50587   0.00000  Uiso   1.00
H842   H     0.62566   0.07902   0.49122   0.00000  Uiso   1.00
H843   H     0.65648   0.05968   0.52681   0.00000  Uiso   1.00
H844   H     0.52022   0.17074   0.50960   0.00000  Uiso   1.00
H845   H     0.55036   0.16434   0.55100   0.00000  Uiso   1.00
H846   H     0.57380   0.16792   0.46531   0.00000  Uiso   1.00
H847   H     0.53058   0.19975   0.90205   0.00000  Uiso   1.00
H848   H     0.60376   0.16096   0.50650   0.00000  Uiso   1.00
H849   H     0.56985   0.12712   0.49450   0.00000  Uiso   1.00
H850   H     0.96710   0.16554   0.46327   0.00000  Uiso   1.00
H851   H     0.92325   0.17701   0.44154   0.00000  Uiso   1.00
H852   H     0.93707   0.15997   0.52767   0.00000  Uiso   1.00
H853   H     0.91759   0.12938   0.49221   0.00000  Uiso   1.00
H854   H     0.89331   0.17059   0.50576   0.00000  Uiso   1.00
H855   H     0.82762   0.02240   0.50782   0.00000  Uiso   1.00
H856   H     0.83378   0.05162   0.54992   0.00000  Uiso   1.00
H857   H     0.86950   0.07312   0.49334   0.00000  Uiso   1.00
H858   H     0.94959   0.28076   0.59770   0.00000  Uiso   1.00
H859   H     0.83480   0.10610   0.50684   0.00000  Uiso   1.00
H860   H     0.82812   0.07703   0.46498   0.00000  Uiso   1.00
H861   H     0.83601   0.46909   0.46191   0.00000  Uiso   1.00
H862   H     0.82578   0.42464   0.44124   0.00000  Uiso   1.00
H863   H     0.83422   0.39599   0.50588   0.00000  Uiso   1.00
H864   H     0.87434   0.42098   0.49121   0.00000  Uiso   1.00
H865   H     0.84353   0.44033   0.52680   0.00000  Uiso   1.00
H866   H     0.74138   0.33737   0.22421   0.00000  Uiso   1.00
H867   H     0.72091   0.37973   0.20927   0.00000  Uiso   1.00
H868   H     0.69854   0.33646   0.19960   0.00000  Uiso   1.00
O869   O     0.75000  -0.00000   0.25000   0.00000  Uiso   1.00
O870   O     0.75000   0.46964   0.66317   0.00000  Uiso   1.00
O871   O     0.89603   0.05164   0.75579   0.00000  Uiso   1.00
O872   O     0.96964   0.25000   0.33683   0.00000  Uiso   1.00
O873   O     0.53036   0.25000   0.66317   0.00000  Uiso   1.00
O874   O     0.50000   0.21964   0.83683   0.00000  Uiso   1.00
O875   O     0.50000   0.28036   0.16317   0.00000  Uiso   1.00
O876   O     0.78036  -0.00000   0.83683   0.00000  Uiso   1.00
O877   O     0.71964   0.00000   0.16317   0.00000  Uiso   1.00
O878   O     0.50000   0.28036   0.83683   0.00000  Uiso   1.00
O879   O     0.50000   0.21964   0.16317   0.00000  Uiso   1.00
O880   O     0.71964  -0.00000   0.83683   0.00000  Uiso   1.00
O881   O     0.75000  -0.00000   0.75000   0.00000  Uiso   1.00
O882   O     0.78036   0.00000   0.16317   0.00000  Uiso   1.00
O883   O     0.70725   0.07307   0.27282   0.00000  Uiso   1.00
O884   O     0.79274   0.42693   0.72718   0.00000  Uiso   1.00
O885   O     0.92693   0.20725   0.27282   0.00000  Uiso   1.00
O886   O     0.57307   0.29275   0.72718   0.00000  Uiso   1.00
O887   O     0.79274   0.42693   0.27282   0.00000  Uiso   1.00
O888   O     0.70725   0.07307   0.72718   0.00000  Uiso   1.00
O889   O     0.57307   0.29275   0.27282   0.00000  Uiso   1.00
O890   O     0.92693   0.20725   0.72718   0.00000  Uiso   1.00
O891   O     0.70725   0.42693   0.72718   0.00000  Uiso   1.00
O892   O     0.50000   0.25000   0.25000   0.00000  Uiso   1.00
O893   O     0.79274   0.07307   0.27282   0.00000  Uiso   1.00
O894   O     0.92693   0.29274   0.72718   0.00000  Uiso   1.00
O895   O     0.57307   0.20726   0.27282   0.00000  Uiso   1.00
O896   O     0.79274   0.07307   0.72718   0.00000  Uiso   1.00
O897   O     0.70725   0.42693   0.27282   0.00000  Uiso   1.00
O898   O     0.57307   0.20726   0.72718   0.00000  Uiso   1.00
O899   O     0.92693   0.29274   0.27282   0.00000  Uiso   1.00
O900   O     0.95725   0.32307   0.77282   0.00000  Uiso   1.00
O901   O     0.54274   0.17693   0.22718   0.00000  Uiso   1.00
O902   O     0.67693   0.45726   0.77282   0.00000  Uiso   1.00
O903   O     0.50000   0.25000   0.75000   0.00000  Uiso   1.00
O904   O     0.82307   0.04274   0.22718   0.00000  Uiso   1.00
O905   O     0.54274   0.17693   0.77282   0.00000  Uiso   1.00
O906   O     0.95725   0.32307   0.22718   0.00000  Uiso   1.00
O907   O     0.82307   0.04274   0.77282   0.00000  Uiso   1.00
O908   O     0.67693   0.45726   0.22718   0.00000  Uiso   1.00
O909   O     0.95725   0.17693   0.22718   0.00000  Uiso   1.00
O910   O     0.54274   0.32307   0.77282   0.00000  Uiso   1.00
O911   O     0.67693   0.04274   0.22718   0.00000  Uiso   1.00
O912   O     0.82307   0.45726   0.77282   0.00000  Uiso   1.00
O913   O     0.54274   0.32307   0.22718   0.00000  Uiso   1.00
O914   O     0.75000   0.46964   0.33683   0.00000  Uiso   1.00
O915   O     0.95725   0.17693   0.77282   0.00000  Uiso   1.00
O916   O     0.82307   0.45726   0.22718   0.00000  Uiso   1.00
O917   O     0.67693   0.04274   0.77282   0.00000  Uiso   1.00
O918   O     0.69500   0.03659   0.02074   0.00000  Uiso   1.00
O919   O     0.80677   0.03309   0.97830   0.00000  Uiso   1.00
O920   O     0.96597   0.19344   0.02089   0.00000  Uiso   1.00
O921   O     0.96322   0.30533   0.97809   0.00000  Uiso   1.00
O922   O     0.80535   0.46330   0.02188   0.00000  Uiso   1.00
O923   O     0.69339   0.46607   0.97915   0.00000  Uiso   1.00
O924   O     0.53302   0.30677   0.02166   0.00000  Uiso   1.00
O925   O     0.75000   0.03036   0.66317   0.00000  Uiso   1.00
O926   O     0.53652   0.19501   0.97929   0.00000  Uiso   1.00
O927   O     0.94435   0.28614   0.52183   0.00000  Uiso   1.00
O928   O     0.55630   0.28391   0.47924   0.00000  Uiso   1.00
O929   O     0.71637   0.44325   0.52181   0.00000  Uiso   1.00
O930   O     0.71348   0.05511   0.47921   0.00000  Uiso   1.00
O931   O     0.55566   0.21386   0.52184   0.00000  Uiso   1.00
O932   O     0.94370   0.21608   0.47927   0.00000  Uiso   1.00
O933   O     0.78363   0.05675   0.52179   0.00000  Uiso   1.00
O934   O     0.78652   0.44489   0.47922   0.00000  Uiso   1.00
O935   O     0.69823   0.35437   0.25769   0.00000  Uiso   1.00
O936   O     0.53036   0.25000   0.33683   0.00000  Uiso   1.00
O937   O     0.80160   0.14599   0.74424   0.00000  Uiso   1.00
O938   O     0.63835   0.19215   0.21437   0.00000  Uiso   1.00
O939   O     0.86097   0.30820   0.78619   0.00000  Uiso   1.00
O940   O     0.80161   0.14613   0.25524   0.00000  Uiso   1.00
O941   O     0.69840   0.35401   0.74430   0.00000  Uiso   1.00
O942   O     0.86091   0.30849   0.21341   0.00000  Uiso   1.00
O943   O     0.63899   0.19176   0.78627   0.00000  Uiso   1.00
O944   O     0.69216   0.13830   0.78552   0.00000  Uiso   1.00
O945   O     0.80801   0.36223   0.21410   0.00000  Uiso   1.00
O946   O     0.64569   0.30177   0.74278   0.00000  Uiso   1.00
O947   O     0.96964   0.25000   0.66317   0.00000  Uiso   1.00
O948   O     0.85437   0.19830   0.25684   0.00000  Uiso   1.00
O949   O     0.80782   0.36168   0.78549   0.00000  Uiso   1.00
O950   O     0.69164   0.13871   0.21312   0.00000  Uiso   1.00
O951   O     0.85432   0.19822   0.74274   0.00000  Uiso   1.00
O952   O     0.64601   0.30167   0.25608   0.00000  Uiso   1.00
O953   O     0.94826   0.10435   0.75724   0.00000  Uiso   1.00
O954   O     0.55160   0.39599   0.24410   0.00000  Uiso   1.00
O955   O     0.88837   0.44217   0.71457   0.00000  Uiso   1.00
O956   O     0.61114   0.05836   0.28647   0.00000  Uiso   1.00
O957   O     0.55174   0.39565   0.75719   0.00000  Uiso   1.00
O958   O     0.75000   0.03036   0.33683   0.00000  Uiso   1.00
O959   O     0.94838   0.10392   0.24461   0.00000  Uiso   1.00
O960   O     0.61165   0.05786   0.71454   0.00000  Uiso   1.00
O961   O     0.88909   0.44157   0.28679   0.00000  Uiso   1.00
O962   O     0.94215   0.38799   0.28578   0.00000  Uiso   1.00
O963   O     0.55820   0.11103   0.71377   0.00000  Uiso   1.00
O964   O     0.89562   0.05172   0.24319   0.00000  Uiso   1.00
O965   O     0.60397   0.44836   0.75576   0.00000  Uiso   1.00
O966   O     0.55796   0.11181   0.28571   0.00000  Uiso   1.00
O967   O     0.94182   0.38899   0.71380   0.00000  Uiso   1.00
O968   O     0.60433   0.44821   0.24249   0.00000  Uiso   1.00
Zn969  Zn    0.70660  -0.00000   0.21760   0.00000  Uiso   1.00
Zn970  Zn    0.54340   0.25000   0.28240   0.00000  Uiso   1.00
Zn971  Zn    0.75000   0.45660   0.71760   0.00000  Uiso   1.00
Zn972  Zn    0.75000   0.04340   0.28240   0.00000  Uiso   1.00
Zn973  Zn    0.54340   0.25000   0.71760   0.00000  Uiso   1.00
Zn974  Zn    0.95660   0.25000   0.28240   0.00000  Uiso   1.00
Zn975  Zn    0.75000   0.04340   0.71760   0.00000  Uiso   1.00
Zn976  Zn    0.75000   0.45660   0.28240   0.00000  Uiso   1.00
Zn977  Zn    0.79340   0.00000   0.78240   0.00000  Uiso   1.00
Zn978  Zn    0.50000   0.20660   0.21760   0.00000  Uiso   1.00
Zn979  Zn    0.50000   0.29340   0.78240   0.00000  Uiso   1.00
Zn980  Zn    0.79340  -0.00000   0.21760   0.00000  Uiso   1.00
Zn981  Zn    0.70660   0.00000   0.78240   0.00000  Uiso   1.00
Zn982  Zn    0.50000   0.29340   0.21760   0.00000  Uiso   1.00
Zn983  Zn    0.50000   0.20660   0.78240   0.00000  Uiso   1.00
Zn984  Zn    0.95660   0.25000   0.71760   0.00000  Uiso   1.00
C985   C     0.22223   0.51871   0.04152   0.00000  Uiso   1.00
C986   C     0.02836   0.76749   0.45851   0.00000  Uiso   1.00
C987   C     0.34806   0.90195   0.75002   0.00000  Uiso   1.00
C988   C     0.40195   0.65189   0.25020   0.00000  Uiso   1.00
C989   C     0.09811   0.84811   0.74999   0.00000  Uiso   1.00
C990   C     0.34810   0.90204   0.25026   0.00000  Uiso   1.00
C991   C     0.15194   0.59805   0.75002   0.00000  Uiso   1.00
C992   C     0.09802   0.65199   0.75000   0.00000  Uiso   1.00
C993   C     0.40198   0.84805   0.24980   0.00000  Uiso   1.00
C994   C     0.15195   0.90195   0.75002   0.00000  Uiso   1.00
C995   C     0.34804   0.59813   0.24975   0.00000  Uiso   1.00
C996   C     0.40198   0.84801   0.74999   0.00000  Uiso   1.00
C997   C     0.23288   0.97152   0.54161   0.00000  Uiso   1.00
C998   C     0.09809   0.65198   0.24997   0.00000  Uiso   1.00
C999   C     0.34805   0.59805   0.75001   0.00000  Uiso   1.00
C1000  C     0.15189   0.90190   0.25001   0.00000  Uiso   1.00
C1001  C     0.25002   0.50000   0.10246   0.00000  Uiso   1.00
C1002  C     0.25002   0.99975   0.89761   0.00000  Uiso   1.00
C1003  C     0.49971   0.75003   0.10239   0.00000  Uiso   1.00
C1004  C     0.49996   0.75001   0.89754   0.00000  Uiso   1.00
C1005  C     0.00000   0.75000   0.60246   0.00000  Uiso   1.00
C1006  C    -0.00000   0.75000   0.39762   0.00000  Uiso   1.00
C1007  C     0.25000   0.50000   0.60240   0.00000  Uiso   1.00
C1008  C     0.23120   0.52776   0.45843   0.00000  Uiso   1.00
C1009  C     0.25000   0.50000   0.39755   0.00000  Uiso   1.00
C1010  C     0.19266   0.57368   0.03194   0.00000  Uiso   1.00
C1011  C     0.17494   0.59550   0.99937   0.00000  Uiso   1.00
C1012  C     0.30020   0.57111   0.97921   0.00000  Uiso   1.00
C1013  C     0.32846   0.58906   0.00519   0.00000  Uiso   1.00
C1014  C     0.42878   0.69025   0.03134   0.00000  Uiso   1.00
C1015  C     0.40862   0.67015   0.99931   0.00000  Uiso   1.00
C1016  C     0.42535   0.79829   0.97740   0.00000  Uiso   1.00
C1017  C     0.40579   0.82580   0.00329   0.00000  Uiso   1.00
C1018  C     0.29829   0.92545   0.02254   0.00000  Uiso   1.00
C1019  C     0.02794   0.73162   0.54169   0.00000  Uiso   1.00
C1020  C     0.32581   0.90590   0.99666   0.00000  Uiso   1.00
C1021  C     0.19017   0.92890   0.96870   0.00000  Uiso   1.00
C1022  C     0.17009   0.90874   0.00076   0.00000  Uiso   1.00
C1023  C     0.07107   0.80024   0.02077   0.00000  Uiso   1.00
C1024  C     0.08901   0.82847   0.99476   0.00000  Uiso   1.00
C1025  C     0.07364   0.69270   0.96812   0.00000  Uiso   1.00
C1026  C     0.09543   0.67497   0.00071   0.00000  Uiso   1.00
C1027  C     0.45187   0.82390   0.52139   0.00000  Uiso   1.00
C1028  C     0.42436   0.84316   0.49526   0.00000  Uiso   1.00
C1029  C     0.05984   0.82093   0.46828   0.00000  Uiso   1.00
C1030  C     0.47164   0.73251   0.45852   0.00000  Uiso   1.00
C1031  C     0.07921   0.84150   0.50053   0.00000  Uiso   1.00
C1032  C     0.17840   0.95014   0.52042   0.00000  Uiso   1.00
C1033  C     0.16039   0.92163   0.49481   0.00000  Uiso   1.00
C1034  C     0.17651   0.55809   0.46766   0.00000  Uiso   1.00
C1035  C     0.15477   0.57637   0.49995   0.00000  Uiso   1.00
C1036  C     0.04808   0.67611   0.52131   0.00000  Uiso   1.00
C1037  C     0.07565   0.65684   0.49526   0.00000  Uiso   1.00
C1038  C     0.44010   0.67908   0.46827   0.00000  Uiso   1.00
C1039  C     0.42078   0.65849   0.50054   0.00000  Uiso   1.00
C1040  C     0.32160   0.54985   0.52039   0.00000  Uiso   1.00
C1041  C     0.26712   0.52848   0.54160   0.00000  Uiso   1.00
C1042  C     0.33961   0.57836   0.49477   0.00000  Uiso   1.00
C1043  C     0.32349   0.94190   0.46766   0.00000  Uiso   1.00
C1044  C     0.34524   0.92363   0.49995   0.00000  Uiso   1.00
C1045  C     0.21502   0.85210   0.22091   0.00000  Uiso   1.00
C1046  C     0.28401   0.64291   0.78064   0.00000  Uiso   1.00
C1047  C     0.12608   0.69194   0.17558   0.00000  Uiso   1.00
C1048  C     0.38098   0.80407   0.82104   0.00000  Uiso   1.00
C1049  C     0.28417   0.64283   0.21878   0.00000  Uiso   1.00
C1050  C     0.21597   0.85710   0.78071   0.00000  Uiso   1.00
C1051  C     0.38112   0.80431   0.17869   0.00000  Uiso   1.00
C1052  C     0.26879   0.97223   0.45843   0.00000  Uiso   1.00
C1053  C     0.11896   0.69584   0.82111   0.00000  Uiso   1.00
C1054  C     0.19166   0.62640   0.82445   0.00000  Uiso   1.00
C1055  C     0.30874   0.87417   0.17520   0.00000  Uiso   1.00
C1056  C     0.14794   0.78526   0.77970   0.00000  Uiso   1.00
C1057  C     0.35241   0.71476   0.21988   0.00000  Uiso   1.00
C1058  C     0.30831   0.87356   0.82441   0.00000  Uiso   1.00
C1059  C     0.19487   0.61903   0.17795   0.00000  Uiso   1.00
C1060  C     0.35204   0.71474   0.77965   0.00000  Uiso   1.00
C1061  C     0.14316   0.78403   0.21969   0.00000  Uiso   1.00
C1062  C     0.46478   0.60210   0.72032   0.00000  Uiso   1.00
C1063  C     0.22175   0.51745   0.08218   0.00000  Uiso   1.00
C1064  C     0.03397   0.89297   0.28048   0.00000  Uiso   1.00
C1065  C     0.37650   0.94172   0.67564   0.00000  Uiso   1.00
C1066  C     0.13127   0.55434   0.32127   0.00000  Uiso   1.00
C1067  C     0.03525   0.89790   0.72026   0.00000  Uiso   1.00
C1068  C     0.46592   0.60720   0.28101   0.00000  Uiso   1.00
C1069  C     0.12353   0.55832   0.67561   0.00000  Uiso   1.00
C1070  C     0.36874   0.94570   0.32142   0.00000  Uiso   1.00
C1071  C     0.44144   0.87617   0.32472   0.00000  Uiso   1.00
C1072  C     0.05411   0.63105   0.67891   0.00000  Uiso   1.00
C1073  C     0.39777   0.53540   0.28021   0.00000  Uiso   1.00
C1074  C     0.27897   0.51556   0.91796   0.00000  Uiso   1.00
C1075  C     0.10705   0.96595   0.71936   0.00000  Uiso   1.00
C1076  C     0.05855   0.62375   0.32462   0.00000  Uiso   1.00
C1077  C     0.44593   0.86899   0.67894   0.00000  Uiso   1.00
C1078  C     0.10198   0.96486   0.27933   0.00000  Uiso   1.00
C1079  C     0.39297   0.53405   0.71939   0.00000  Uiso   1.00
C1080  C     0.48366   0.72111   0.08217   0.00000  Uiso   1.00
C1081  C     0.27850   0.51663   0.95843   0.00000  Uiso   1.00
C1082  C     0.48248   0.77827   0.91777   0.00000  Uiso   1.00
C1083  C     0.27829   0.98254   0.08221   0.00000  Uiso   1.00
C1084  C     0.22108   0.98372   0.91785   0.00000  Uiso   1.00
C1085  C     0.01552   0.77897   0.08202   0.00000  Uiso   1.00
C1086  C     0.01740   0.72175   0.91783   0.00000  Uiso   1.00
C1087  C     0.47162   0.76729   0.58218   0.00000  Uiso   1.00
C1088  C     0.02886   0.76606   0.41789   0.00000  Uiso   1.00
C1089  C     0.23396   0.97113   0.58210   0.00000  Uiso   1.00
C1090  C     0.23265   0.52831   0.41779   0.00000  Uiso   1.00
C1091  C     0.02839   0.73271   0.58218   0.00000  Uiso   1.00
C1092  C     0.48221   0.72153   0.04152   0.00000  Uiso   1.00
C1093  C     0.47114   0.73394   0.41790   0.00000  Uiso   1.00
C1094  C     0.26604   0.52888   0.58208   0.00000  Uiso   1.00
C1095  C     0.26735   0.97168   0.41780   0.00000  Uiso   1.00
C1096  C     0.24991   0.99975   0.02137   0.00000  Uiso   1.00
C1097  C     0.24994   0.99958   0.97874   0.00000  Uiso   1.00
C1098  C     0.49950   0.74996   0.02126   0.00000  Uiso   1.00
C1099  C     0.49967   0.74991   0.97863   0.00000  Uiso   1.00
C1100  C     0.00000   0.75000   0.52134   0.00000  Uiso   1.00
C1101  C    -0.00000   0.75000   0.47871   0.00000  Uiso   1.00
C1102  C     0.25000   0.50000   0.52125   0.00000  Uiso   1.00
C1103  C     0.48116   0.77773   0.95824   0.00000  Uiso   1.00
C1104  C     0.25000   0.50000   0.47862   0.00000  Uiso   1.00
C1105  C     0.25000   0.50000   0.35521   0.00000  Uiso   1.00
C1106  C     0.25000   0.50000   0.64477   0.00000  Uiso   1.00
C1107  C    -0.00000   0.75000   0.35524   0.00000  Uiso   1.00
C1108  C     0.00000   0.75000   0.64479   0.00000  Uiso   1.00
C1109  C     0.49998   0.75000   0.85521   0.00000  Uiso   1.00
C1110  C     0.49996   0.75000   0.14477   0.00000  Uiso   1.00
C1111  C     0.25000   0.99997   0.85524   0.00000  Uiso   1.00
C1112  C     0.25000   0.99999   0.14479   0.00000  Uiso   1.00
C1113  C     0.18004   0.57002   0.24995   0.00000  Uiso   1.00
C1114  C     0.27774   0.98124   0.04174   0.00000  Uiso   1.00
C1115  C     0.32000   0.93000   0.75001   0.00000  Uiso   1.00
C1116  C     0.42997   0.67994   0.25006   0.00000  Uiso   1.00
C1117  C     0.07005   0.82005   0.74999   0.00000  Uiso   1.00
C1118  C     0.32000   0.93001   0.25001   0.00000  Uiso   1.00
C1119  C     0.18000   0.57000   0.75001   0.00000  Uiso   1.00
C1120  C     0.07003   0.82004   0.25001   0.00000  Uiso   1.00
C1121  C     0.42995   0.67995   0.75000   0.00000  Uiso   1.00
C1122  C     0.17996   0.92997   0.75001   0.00000  Uiso   1.00
C1123  C     0.32004   0.57005   0.24995   0.00000  Uiso   1.00
C1124  C     0.43001   0.81999   0.75000   0.00000  Uiso   1.00
C1125  C     0.22150   0.98229   0.95850   0.00000  Uiso   1.00
C1126  C     0.07001   0.68001   0.24999   0.00000  Uiso   1.00
C1127  C     0.32003   0.57003   0.75000   0.00000  Uiso   1.00
C1128  C     0.17994   0.92995   0.25000   0.00000  Uiso   1.00
C1129  C     0.06999   0.68001   0.75000   0.00000  Uiso   1.00
C1130  C     0.43004   0.82004   0.25004   0.00000  Uiso   1.00
C1131  C     0.16206   0.86480   0.25305   0.00000  Uiso   1.00
C1132  C     0.33785   0.63520   0.74741   0.00000  Uiso   1.00
C1133  C     0.13134   0.65846   0.23088   0.00000  Uiso   1.00
C1134  C     0.36859   0.84155   0.76910   0.00000  Uiso   1.00
C1135  C     0.33786   0.63528   0.25228   0.00000  Uiso   1.00
C1136  C     0.01656   0.77851   0.04155   0.00000  Uiso   1.00
C1137  C     0.16215   0.86480   0.74745   0.00000  Uiso   1.00
C1138  C     0.36863   0.84176   0.23061   0.00000  Uiso   1.00
C1139  C     0.13139   0.65843   0.76913   0.00000  Uiso   1.00
C1140  C     0.15848   0.63134   0.76895   0.00000  Uiso   1.00
C1141  C     0.34163   0.86894   0.23089   0.00000  Uiso   1.00
C1142  C     0.13523   0.83795   0.74716   0.00000  Uiso   1.00
C1143  C     0.36481   0.66210   0.25264   0.00000  Uiso   1.00
C1144  C     0.34150   0.86865   0.76892   0.00000  Uiso   1.00
C1145  C     0.15841   0.63133   0.23064   0.00000  Uiso   1.00
C1146  C     0.36477   0.66205   0.74713   0.00000  Uiso   1.00
C1147  C     0.01864   0.72224   0.95849   0.00000  Uiso   1.00
C1148  C     0.13521   0.83789   0.25276   0.00000  Uiso   1.00
C1149  C     0.41206   0.61479   0.75286   0.00000  Uiso   1.00
C1150  C     0.08785   0.88520   0.24734   0.00000  Uiso   1.00
C1151  C     0.38138   0.90849   0.73110   0.00000  Uiso   1.00
C1152  C     0.11871   0.59166   0.26923   0.00000  Uiso   1.00
C1153  C     0.08793   0.88521   0.75284   0.00000  Uiso   1.00
C1154  C     0.41213   0.61474   0.24763   0.00000  Uiso   1.00
C1155  C     0.11863   0.59153   0.73109   0.00000  Uiso   1.00
C1156  C     0.38144   0.90834   0.26946   0.00000  Uiso   1.00
C1157  C     0.40849   0.88121   0.26908   0.00000  Uiso   1.00
C1158  C     0.47206   0.76838   0.54168   0.00000  Uiso   1.00
C1159  C     0.09155   0.61863   0.73088   0.00000  Uiso   1.00
C1160  C     0.38518   0.58792   0.24732   0.00000  Uiso   1.00
C1161  C     0.11478   0.91213   0.75259   0.00000  Uiso   1.00
C1162  C     0.09161   0.61874   0.26903   0.00000  Uiso   1.00
C1163  C     0.40846   0.88139   0.73090   0.00000  Uiso   1.00
C1164  C     0.11477   0.91205   0.24704   0.00000  Uiso   1.00
C1165  C     0.38522   0.58787   0.75260   0.00000  Uiso   1.00
C1166  C     0.09805   0.84806   0.25003   0.00000  Uiso   1.00
C1167  C     0.40189   0.65189   0.74999   0.00000  Uiso   1.00
C1168  C     0.15202   0.59804   0.24994   0.00000  Uiso   1.00
H1169  H     0.19974   0.53062   0.09798   0.00000  Uiso   1.00
H1170  H     0.05138   0.77804   0.40211   0.00000  Uiso   1.00
H1171  H     0.30282   0.64327   0.80610   0.00000  Uiso   1.00
H1172  H     0.26767   0.61751   0.78154   0.00000  Uiso   1.00
H1173  H     0.26483   0.66629   0.78397   0.00000  Uiso   1.00
H1174  H     0.13054   0.71940   0.16294   0.00000  Uiso   1.00
H1175  H     0.09635   0.68614   0.17351   0.00000  Uiso   1.00
H1176  H     0.14181   0.67209   0.15774   0.00000  Uiso   1.00
H1177  H     0.38951   0.83034   0.83461   0.00000  Uiso   1.00
H1178  H     0.40541   0.78662   0.81588   0.00000  Uiso   1.00
H1179  H     0.36356   0.78965   0.84238   0.00000  Uiso   1.00
H1180  H     0.26856   0.61700   0.21762   0.00000  Uiso   1.00
H1181  H     0.22144   0.94870   0.59759   0.00000  Uiso   1.00
H1182  H     0.30304   0.64394   0.19340   0.00000  Uiso   1.00
H1183  H     0.26435   0.66569   0.21561   0.00000  Uiso   1.00
H1184  H     0.19713   0.85674   0.80616   0.00000  Uiso   1.00
H1185  H     0.23229   0.88251   0.78161   0.00000  Uiso   1.00
H1186  H     0.23516   0.83373   0.78406   0.00000  Uiso   1.00
H1187  H     0.40559   0.78697   0.18405   0.00000  Uiso   1.00
H1188  H     0.38958   0.83058   0.16506   0.00000  Uiso   1.00
H1189  H     0.36387   0.78974   0.15732   0.00000  Uiso   1.00
H1190  H     0.11042   0.66955   0.83465   0.00000  Uiso   1.00
H1191  H     0.09453   0.71330   0.81596   0.00000  Uiso   1.00
H1192  H     0.21966   0.55040   0.40197   0.00000  Uiso   1.00
H1193  H     0.13635   0.71024   0.84248   0.00000  Uiso   1.00
H1194  H     0.21891   0.63142   0.83740   0.00000  Uiso   1.00
H1195  H     0.18632   0.59660   0.82668   0.00000  Uiso   1.00
H1196  H     0.17131   0.64193   0.84187   0.00000  Uiso   1.00
H1197  H     0.31521   0.90374   0.17290   0.00000  Uiso   1.00
H1198  H     0.28124   0.87021   0.16243   0.00000  Uiso   1.00
H1199  H     0.32840   0.85787   0.15769   0.00000  Uiso   1.00
H1200  H     0.16230   0.75870   0.77655   0.00000  Uiso   1.00
H1201  H     0.12028   0.77984   0.79159   0.00000  Uiso   1.00
H1202  H     0.16393   0.80170   0.80073   0.00000  Uiso   1.00
H1203  H     0.05042   0.71924   0.59770   0.00000  Uiso   1.00
H1204  H     0.38016   0.72018   0.20824   0.00000  Uiso   1.00
H1205  H     0.33801   0.74132   0.22285   0.00000  Uiso   1.00
H1206  H     0.33660   0.69828   0.19873   0.00000  Uiso   1.00
H1207  H     0.28107   0.86851   0.83738   0.00000  Uiso   1.00
H1208  H     0.31362   0.90336   0.82665   0.00000  Uiso   1.00
H1209  H     0.32867   0.85804   0.84183   0.00000  Uiso   1.00
H1210  H     0.16821   0.61183   0.16433   0.00000  Uiso   1.00
H1211  H     0.21124   0.59380   0.18262   0.00000  Uiso   1.00
H1212  H     0.20998   0.63610   0.15684   0.00000  Uiso   1.00
H1213  H     0.33765   0.74129   0.77649   0.00000  Uiso   1.00
H1214  H     0.44862   0.72196   0.40213   0.00000  Uiso   1.00
H1215  H     0.37968   0.72018   0.79154   0.00000  Uiso   1.00
H1216  H     0.33604   0.69829   0.80068   0.00000  Uiso   1.00
H1217  H     0.14387   0.80279   0.19420   0.00000  Uiso   1.00
H1218  H     0.11767   0.76784   0.21857   0.00000  Uiso   1.00
H1219  H     0.16647   0.76472   0.21665   0.00000  Uiso   1.00
H1220  H     0.49131   0.58765   0.72346   0.00000  Uiso   1.00
H1221  H     0.47028   0.62974   0.70848   0.00000  Uiso   1.00
H1222  H     0.44829   0.58618   0.69926   0.00000  Uiso   1.00
H1223  H     0.05275   0.89346   0.30597   0.00000  Uiso   1.00
H1224  H     0.01769   0.86754   0.28145   0.00000  Uiso   1.00
H1225  H     0.27855   0.55131   0.59756   0.00000  Uiso   1.00
H1226  H     0.01472   0.91631   0.28370   0.00000  Uiso   1.00
H1227  H     0.38156   0.96896   0.66271   0.00000  Uiso   1.00
H1228  H     0.34669   0.93641   0.67338   0.00000  Uiso   1.00
H1229  H     0.39203   0.92139   0.65820   0.00000  Uiso   1.00
H1230  H     0.13990   0.58065   0.33469   0.00000  Uiso   1.00
H1231  H     0.15564   0.53682   0.31609   0.00000  Uiso   1.00
H1232  H     0.11390   0.54004   0.34274   0.00000  Uiso   1.00
H1233  H     0.00873   0.91237   0.72336   0.00000  Uiso   1.00
H1234  H     0.02973   0.87026   0.70844   0.00000  Uiso   1.00
H1235  H     0.05177   0.91378   0.69919   0.00000  Uiso   1.00
H1236  H     0.28033   0.94959   0.40197   0.00000  Uiso   1.00
H1237  H     0.44706   0.60699   0.30645   0.00000  Uiso   1.00
H1238  H     0.48227   0.63260   0.28177   0.00000  Uiso   1.00
H1239  H     0.48509   0.58384   0.28452   0.00000  Uiso   1.00
H1240  H     0.11850   0.53108   0.66268   0.00000  Uiso   1.00
H1241  H     0.15334   0.56364   0.67336   0.00000  Uiso   1.00
H1242  H     0.10800   0.57866   0.65818   0.00000  Uiso   1.00
H1243  H     0.36012   0.91941   0.33490   0.00000  Uiso   1.00
H1244  H     0.34435   0.96315   0.31601   0.00000  Uiso   1.00
H1245  H     0.38594   0.96013   0.34294   0.00000  Uiso   1.00
H1246  H     0.46878   0.88072   0.33767   0.00000  Uiso   1.00
H1247  H     0.22005   0.58577   0.03771   0.00000  Uiso   1.00
H1248  H     0.43557   0.84648   0.32703   0.00000  Uiso   1.00
H1249  H     0.42137   0.89210   0.34210   0.00000  Uiso   1.00
H1250  H     0.08041   0.63954   0.66535   0.00000  Uiso   1.00
H1251  H     0.03668   0.65549   0.68407   0.00000  Uiso   1.00
H1252  H     0.03967   0.61367   0.65757   0.00000  Uiso   1.00
H1253  H     0.41197   0.50874   0.27724   0.00000  Uiso   1.00
H1254  H     0.37008   0.53022   0.29214   0.00000  Uiso   1.00
H1255  H     0.41387   0.55188   0.30112   0.00000  Uiso   1.00
H1256  H     0.10672   0.94715   0.69390   0.00000  Uiso   1.00
H1257  H     0.13244   0.98231   0.71848   0.00000  Uiso   1.00
H1258  H     0.17534   0.57648   0.05828   0.00000  Uiso   1.00
H1259  H     0.08364   0.98510   0.71603   0.00000  Uiso   1.00
H1260  H     0.03131   0.61882   0.33763   0.00000  Uiso   1.00
H1261  H     0.06397   0.65353   0.32680   0.00000  Uiso   1.00
H1262  H     0.07889   0.60819   0.34202   0.00000  Uiso   1.00
H1263  H     0.41963   0.86051   0.66536   0.00000  Uiso   1.00
H1264  H     0.46335   0.84455   0.68409   0.00000  Uiso   1.00
H1265  H     0.46038   0.88639   0.65761   0.00000  Uiso   1.00
H1266  H     0.08779   0.99150   0.27599   0.00000  Uiso   1.00
H1267  H     0.12960   0.97016   0.29136   0.00000  Uiso   1.00
H1268  H     0.08577   0.94856   0.30031   0.00000  Uiso   1.00
H1269  H     0.14700   0.58515   0.99359   0.00000  Uiso   1.00
H1270  H     0.39332   0.55286   0.69392   0.00000  Uiso   1.00
H1271  H     0.36758   0.51770   0.71850   0.00000  Uiso   1.00
H1272  H     0.41638   0.51490   0.71608   0.00000  Uiso   1.00
H1273  H     0.30146   0.52802   0.90252   0.00000  Uiso   1.00
H1274  H     0.17308   0.62473   0.00775   0.00000  Uiso   1.00
H1275  H     0.19159   0.59305   0.97254   0.00000  Uiso   1.00
H1276  H     0.27260   0.57751   0.99119   0.00000  Uiso   1.00
H1277  H     0.30260   0.58302   0.94960   0.00000  Uiso   1.00
H1278  H     0.35637   0.58389   0.99368   0.00000  Uiso   1.00
H1279  H     0.32348   0.61900   0.00624   0.00000  Uiso   1.00
H1280  H     0.32652   0.57784   0.03506   0.00000  Uiso   1.00
H1281  H     0.41527   0.71742   0.03526   0.00000  Uiso   1.00
H1282  H     0.42620   0.67415   0.05854   0.00000  Uiso   1.00
H1283  H     0.42069   0.64251   0.99515   0.00000  Uiso   1.00
H1284  H     0.47182   0.69854   0.09797   0.00000  Uiso   1.00
H1285  H     0.37935   0.66730   0.00720   0.00000  Uiso   1.00
H1286  H     0.41061   0.68568   0.97171   0.00000  Uiso   1.00
H1287  H     0.41930   0.77038   0.98854   0.00000  Uiso   1.00
H1288  H     0.41435   0.80113   0.94743   0.00000  Uiso   1.00
H1289  H     0.41073   0.85398   0.99266   0.00000  Uiso   1.00
H1290  H     0.37594   0.82056   0.00297   0.00000  Uiso   1.00
H1291  H     0.41596   0.82333   0.03354   0.00000  Uiso   1.00
H1292  H     0.27036   0.91943   0.01139   0.00000  Uiso   1.00
H1293  H     0.30111   0.91444   0.05251   0.00000  Uiso   1.00
H1294  H     0.32335   0.91609   0.96641   0.00000  Uiso   1.00
H1295  H     0.46898   0.80025   0.90220   0.00000  Uiso   1.00
H1296  H     0.35400   0.91082   0.00730   0.00000  Uiso   1.00
H1297  H     0.32055   0.87607   0.99696   0.00000  Uiso   1.00
H1298  H     0.21734   0.91538   0.96474   0.00000  Uiso   1.00
H1299  H     0.17403   0.92634   0.94153   0.00000  Uiso   1.00
H1300  H     0.18566   0.91072   0.02833   0.00000  Uiso   1.00
H1301  H     0.16720   0.87950   0.99286   0.00000  Uiso   1.00
H1302  H     0.14245   0.92083   0.00497   0.00000  Uiso   1.00
H1303  H     0.07750   0.77263   0.00882   0.00000  Uiso   1.00
H1304  H     0.08296   0.80266   0.05038   0.00000  Uiso   1.00
H1305  H     0.07780   0.82649   0.96489   0.00000  Uiso   1.00
H1306  H     0.30028   0.96903   0.09777   0.00000  Uiso   1.00
H1307  H     0.11896   0.82352   0.99373   0.00000  Uiso   1.00
H1308  H     0.08381   0.85637   0.00623   0.00000  Uiso   1.00
H1309  H     0.08572   0.72009   0.96238   0.00000  Uiso   1.00
H1310  H     0.07647   0.67540   0.94178   0.00000  Uiso   1.00
H1311  H     0.09295   0.69160   0.02754   0.00000  Uiso   1.00
H1312  H     0.08508   0.64704   0.00647   0.00000  Uiso   1.00
H1313  H     0.12468   0.67313   0.99236   0.00000  Uiso   1.00
H1314  H     0.47976   0.82934   0.50979   0.00000  Uiso   1.00
H1315  H     0.44946   0.83562   0.55109   0.00000  Uiso   1.00
H1316  H     0.39621   0.83898   0.50639   0.00000  Uiso   1.00
H1317  H     0.19850   0.97187   0.90206   0.00000  Uiso   1.00
H1318  H     0.43010   0.87290   0.49458   0.00000  Uiso   1.00
H1319  H     0.42633   0.83214   0.46531   0.00000  Uiso   1.00
H1320  H     0.03281   0.83446   0.46338   0.00000  Uiso   1.00
H1321  H     0.07663   0.82306   0.44151   0.00000  Uiso   1.00
H1322  H     0.10670   0.82941   0.50567   0.00000  Uiso   1.00
H1323  H     0.08235   0.87062   0.49224   0.00000  Uiso   1.00
H1324  H     0.06298   0.83995   0.52771   0.00000  Uiso   1.00
H1325  H     0.17237   0.97759   0.50785   0.00000  Uiso   1.00
H1326  H     0.16622   0.94837   0.54996   0.00000  Uiso   1.00
H1327  H     0.16521   0.89389   0.50689   0.00000  Uiso   1.00
H1328  H     0.02799   0.80146   0.09745   0.00000  Uiso   1.00
H1329  H     0.13050   0.92686   0.49340   0.00000  Uiso   1.00
H1330  H     0.17188   0.92297   0.46502   0.00000  Uiso   1.00
H1331  H     0.16399   0.53091   0.46193   0.00000  Uiso   1.00
H1332  H     0.17422   0.57536   0.44123   0.00000  Uiso   1.00
H1333  H     0.16579   0.60401   0.50587   0.00000  Uiso   1.00
H1334  H     0.12566   0.57902   0.49122   0.00000  Uiso   1.00
H1335  H     0.15648   0.55968   0.52681   0.00000  Uiso   1.00
H1336  H     0.02022   0.67074   0.50960   0.00000  Uiso   1.00
H1337  H     0.05036   0.66434   0.55100   0.00000  Uiso   1.00
H1338  H     0.07380   0.66792   0.46531   0.00000  Uiso   1.00
H1339  H     0.03058   0.69975   0.90205   0.00000  Uiso   1.00
H1340  H     0.10376   0.66096   0.50650   0.00000  Uiso   1.00
H1341  H     0.06985   0.62712   0.49450   0.00000  Uiso   1.00
H1342  H     0.46710   0.66554   0.46327   0.00000  Uiso   1.00
H1343  H     0.42325   0.67701   0.44154   0.00000  Uiso   1.00
H1344  H     0.43707   0.65997   0.52767   0.00000  Uiso   1.00
H1345  H     0.41759   0.62938   0.49221   0.00000  Uiso   1.00
H1346  H     0.39331   0.67059   0.50576   0.00000  Uiso   1.00
H1347  H     0.32762   0.52240   0.50782   0.00000  Uiso   1.00
H1348  H     0.33378   0.55162   0.54992   0.00000  Uiso   1.00
H1349  H     0.36950   0.57312   0.49334   0.00000  Uiso   1.00
H1350  H     0.44959   0.78076   0.59770   0.00000  Uiso   1.00
H1351  H     0.33480   0.60610   0.50684   0.00000  Uiso   1.00
H1352  H     0.32812   0.57703   0.46498   0.00000  Uiso   1.00
H1353  H     0.33601   0.96909   0.46191   0.00000  Uiso   1.00
H1354  H     0.32578   0.92464   0.44124   0.00000  Uiso   1.00
H1355  H     0.33422   0.89599   0.50588   0.00000  Uiso   1.00
H1356  H     0.37434   0.92098   0.49121   0.00000  Uiso   1.00
H1357  H     0.34353   0.94033   0.52680   0.00000  Uiso   1.00
H1358  H     0.24138   0.83737   0.22421   0.00000  Uiso   1.00
H1359  H     0.22091   0.87973   0.20927   0.00000  Uiso   1.00
H1360  H     0.19854   0.83646   0.19960   0.00000  Uiso   1.00
O1361  O     0.25000   0.50000   0.25000   0.00000  Uiso   1.00
O1362  O     0.25000   0.96964   0.66317   0.00000  Uiso   1.00
O1363  O     0.39603   0.55164   0.75579   0.00000  Uiso   1.00
O1364  O     0.46964   0.75000   0.33683   0.00000  Uiso   1.00
O1365  O     0.03036   0.75000   0.66317   0.00000  Uiso   1.00
O1366  O     0.00000   0.71964   0.83683   0.00000  Uiso   1.00
O1367  O     0.00000   0.78036   0.16317   0.00000  Uiso   1.00
O1368  O     0.28036   0.50000   0.83683   0.00000  Uiso   1.00
O1369  O     0.21964   0.50000   0.16317   0.00000  Uiso   1.00
O1370  O     0.00000   0.78036   0.83683   0.00000  Uiso   1.00
O1371  O     0.00000   0.71964   0.16317   0.00000  Uiso   1.00
O1372  O     0.21964   0.50000   0.83683   0.00000  Uiso   1.00
O1373  O     0.25000   0.50000   0.75000   0.00000  Uiso   1.00
O1374  O     0.28036   0.50000   0.16317   0.00000  Uiso   1.00
O1375  O     0.20725   0.57307   0.27282   0.00000  Uiso   1.00
O1376  O     0.29274   0.92693   0.72718   0.00000  Uiso   1.00
O1377  O     0.42693   0.70725   0.27282   0.00000  Uiso   1.00
O1378  O     0.07307   0.79275   0.72718   0.00000  Uiso   1.00
O1379  O     0.29274   0.92693   0.27282   0.00000  Uiso   1.00
O1380  O     0.20725   0.57307   0.72718   0.00000  Uiso   1.00
O1381  O     0.07307   0.79275   0.27282   0.00000  Uiso   1.00
O1382  O     0.42693   0.70725   0.72718   0.00000  Uiso   1.00
O1383  O     0.20725   0.92693   0.72718   0.00000  Uiso   1.00
O1384  O     0.00000   0.75000   0.25000   0.00000  Uiso   1.00
O1385  O     0.29274   0.57307   0.27282   0.00000  Uiso   1.00
O1386  O     0.42693   0.79274   0.72718   0.00000  Uiso   1.00
O1387  O     0.07307   0.70726   0.27282   0.00000  Uiso   1.00
O1388  O     0.29274   0.57307   0.72718   0.00000  Uiso   1.00
O1389  O     0.20725   0.92693   0.27282   0.00000  Uiso   1.00
O1390  O     0.07307   0.70726   0.72718   0.00000  Uiso   1.00
O1391  O     0.42693   0.79274   0.27282   0.00000  Uiso   1.00
O1392  O     0.45725   0.82307   0.77282   0.00000  Uiso   1.00
O1393  O     0.04274   0.67693   0.22718   0.00000  Uiso   1.00
O1394  O     0.17693   0.95726   0.77282   0.00000  Uiso   1.00
O1395  O     0.00000   0.75000   0.75000   0.00000  Uiso   1.00
O1396  O     0.32307   0.54274   0.22718   0.00000  Uiso   1.00
O1397  O     0.04274   0.67693   0.77282   0.00000  Uiso   1.00
O1398  O     0.45725   0.82307   0.22718   0.00000  Uiso   1.00
O1399  O     0.32307   0.54274   0.77282   0.00000  Uiso   1.00
O1400  O     0.17693   0.95726   0.22718   0.00000  Uiso   1.00
O1401  O     0.45725   0.67693   0.22718   0.00000  Uiso   1.00
O1402  O     0.04274   0.82307   0.77282   0.00000  Uiso   1.00
O1403  O     0.17693   0.54274   0.22718   0.00000  Uiso   1.00
O1404  O     0.32307   0.95726   0.77282   0.00000  Uiso   1.00
O1405  O     0.04274   0.82307   0.22718   0.00000  Uiso   1.00
O1406  O     0.25000   0.96964   0.33683   0.00000  Uiso   1.00
O1407  O     0.45725   0.67693   0.77282   0.00000  Uiso   1.00
O1408  O     0.32307   0.95726   0.22718   0.00000  Uiso   1.00
O1409  O     0.17693   0.54274   0.77282   0.00000  Uiso   1.00
O1410  O     0.19500   0.53659   0.02074   0.00000  Uiso   1.00
O1411  O     0.30677   0.53309   0.97830   0.00000  Uiso   1.00
O1412  O     0.46597   0.69344   0.02089   0.00000  Uiso   1.00
O1413  O     0.46322   0.80533   0.97809   0.00000  Uiso   1.00
O1414  O     0.30535   0.96330   0.02188   0.00000  Uiso   1.00
O1415  O     0.19339   0.96607   0.97915   0.00000  Uiso   1.00
O1416  O     0.03302   0.80677   0.02166   0.00000  Uiso   1.00
O1417  O     0.25000   0.53036   0.66317   0.00000  Uiso   1.00
O1418  O     0.03652   0.69501   0.97929   0.00000  Uiso   1.00
O1419  O     0.44435   0.78614   0.52183   0.00000  Uiso   1.00
O1420  O     0.05630   0.78391   0.47924   0.00000  Uiso   1.00
O1421  O     0.21637   0.94325   0.52181   0.00000  Uiso   1.00
O1422  O     0.21348   0.55511   0.47921   0.00000  Uiso   1.00
O1423  O     0.05566   0.71386   0.52184   0.00000  Uiso   1.00
O1424  O     0.44370   0.71608   0.47927   0.00000  Uiso   1.00
O1425  O     0.28363   0.55675   0.52179   0.00000  Uiso   1.00
O1426  O     0.28652   0.94489   0.47922   0.00000  Uiso   1.00
O1427  O     0.19823   0.85437   0.25769   0.00000  Uiso   1.00
O1428  O     0.03036   0.75000   0.33683   0.00000  Uiso   1.00
O1429  O     0.30160   0.64599   0.74424   0.00000  Uiso   1.00
O1430  O     0.13835   0.69215   0.21437   0.00000  Uiso   1.00
O1431  O     0.36097   0.80820   0.78619   0.00000  Uiso   1.00
O1432  O     0.30161   0.64613   0.25524   0.00000  Uiso   1.00
O1433  O     0.19840   0.85401   0.74430   0.00000  Uiso   1.00
O1434  O     0.36091   0.80849   0.21341   0.00000  Uiso   1.00
O1435  O     0.13899   0.69176   0.78627   0.00000  Uiso   1.00
O1436  O     0.19216   0.63830   0.78552   0.00000  Uiso   1.00
O1437  O     0.30801   0.86223   0.21410   0.00000  Uiso   1.00
O1438  O     0.14569   0.80177   0.74278   0.00000  Uiso   1.00
O1439  O     0.46964   0.75000   0.66317   0.00000  Uiso   1.00
O1440  O     0.35437   0.69830   0.25684   0.00000  Uiso   1.00
O1441  O     0.30782   0.86168   0.78549   0.00000  Uiso   1.00
O1442  O     0.19164   0.63871   0.21312   0.00000  Uiso   1.00
O1443  O     0.35432   0.69822   0.74274   0.00000  Uiso   1.00
O1444  O     0.14601   0.80167   0.25608   0.00000  Uiso   1.00
O1445  O     0.44826   0.60435   0.75724   0.00000  Uiso   1.00
O1446  O     0.05160   0.89599   0.24410   0.00000  Uiso   1.00
O1447  O     0.38837   0.94217   0.71457   0.00000  Uiso   1.00
O1448  O     0.11114   0.55836   0.28647   0.00000  Uiso   1.00
O1449  O     0.05174   0.89565   0.75719   0.00000  Uiso   1.00
O1450  O     0.25000   0.53036   0.33683   0.00000  Uiso   1.00
O1451  O     0.44838   0.60392   0.24461   0.00000  Uiso   1.00
O1452  O     0.11165   0.55786   0.71454   0.00000  Uiso   1.00
O1453  O     0.38909   0.94157   0.28679   0.00000  Uiso   1.00
O1454  O     0.44215   0.88799   0.28578   0.00000  Uiso   1.00
O1455  O     0.05820   0.61103   0.71377   0.00000  Uiso   1.00
O1456  O     0.39562   0.55172   0.24319   0.00000  Uiso   1.00
O1457  O     0.10397   0.94836   0.75576   0.00000  Uiso   1.00
O1458  O     0.05796   0.61181   0.28571   0.00000  Uiso   1.00
O1459  O     0.44182   0.88899   0.71380   0.00000  Uiso   1.00
O1460  O     0.10433   0.94821   0.24249   0.00000  Uiso   1.00
Zn1461 Zn    0.20660   0.50000   0.21760   0.00000  Uiso   1.00
Zn1462 Zn    0.04340   0.75000   0.28240   0.00000  Uiso   1.00
Zn1463 Zn    0.25000   0.95660   0.71760   0.00000  Uiso   1.00
Zn1464 Zn    0.25000   0.54340   0.28240   0.00000  Uiso   1.00
Zn1465 Zn    0.04340   0.75000   0.71760   0.00000  Uiso   1.00
Zn1466 Zn    0.45660   0.75000   0.28240   0.00000  Uiso   1.00
Zn1467 Zn    0.25000   0.54340   0.71760   0.00000  Uiso   1.00
Zn1468 Zn    0.25000   0.95660   0.28240   0.00000  Uiso   1.00
Zn1469 Zn    0.29340   0.50000   0.78240   0.00000  Uiso   1.00
Zn1470 Zn   -0.00000   0.70660   0.21760   0.00000  Uiso   1.00
Zn1471 Zn    0.00000   0.79340   0.78240   0.00000  Uiso   1.00
Zn1472 Zn    0.29340   0.50000   0.21760   0.00000  Uiso   1.00
Zn1473 Zn    0.20660   0.50000   0.78240   0.00000  Uiso   1.00
Zn1474 Zn    0.00000   0.79340   0.21760   0.00000  Uiso   1.00
Zn1475 Zn    0.00000   0.70660   0.78240   0.00000  Uiso   1.00
Zn1476 Zn    0.45660   0.75000   0.71760   0.00000  Uiso   1.00
C1477  C     0.72223   0.51871   0.04152   0.00000  Uiso   1.00
C1478  C     0.52836   0.76749   0.45851   0.00000  Uiso   1.00
C1479  C     0.84806   0.90195   0.75002   0.00000  Uiso   1.00
C1480  C     0.90195   0.65189   0.25020   0.00000  Uiso   1.00
C1481  C     0.59811   0.84811   0.74999   0.00000  Uiso   1.00
C1482  C     0.84810   0.90204   0.25026   0.00000  Uiso   1.00
C1483  C     0.65194   0.59805   0.75002   0.00000  Uiso   1.00
C1484  C     0.59802   0.65199   0.75000   0.00000  Uiso   1.00
C1485  C     0.90198   0.84805   0.24980   0.00000  Uiso   1.00
C1486  C     0.65195   0.90195   0.75002   0.00000  Uiso   1.00
C1487  C     0.84804   0.59813   0.24975   0.00000  Uiso   1.00
C1488  C     0.90198   0.84801   0.74999   0.00000  Uiso   1.00
C1489  C     0.73288   0.97152   0.54161   0.00000  Uiso   1.00
C1490  C     0.59809   0.65198   0.24997   0.00000  Uiso   1.00
C1491  C     0.84805   0.59805   0.75001   0.00000  Uiso   1.00
C1492  C     0.65189   0.90190   0.25001   0.00000  Uiso   1.00
C1493  C     0.75002   0.50000   0.10246   0.00000  Uiso   1.00
C1494  C     0.75002   0.99975   0.89761   0.00000  Uiso   1.00
C1495  C     0.99971   0.75003   0.10239   0.00000  Uiso   1.00
C1496  C     0.99996   0.75001   0.89754   0.00000  Uiso   1.00
C1497  C     0.50000   0.75000   0.60246   0.00000  Uiso   1.00
C1498  C     0.50000   0.75000   0.39762   0.00000  Uiso   1.00
C1499  C     0.75000   0.50000   0.60240   0.00000  Uiso   1.00
C1500  C     0.73120   0.52776   0.45843   0.00000  Uiso   1.00
C1501  C     0.75000   0.50000   0.39755   0.00000  Uiso   1.00
C1502  C     0.69266   0.57368   0.03194   0.00000  Uiso   1.00
C1503  C     0.67494   0.59550   0.99937   0.00000  Uiso   1.00
C1504  C     0.80020   0.57111   0.97921   0.00000  Uiso   1.00
C1505  C     0.82846   0.58906   0.00519   0.00000  Uiso   1.00
C1506  C     0.92878   0.69025   0.03134   0.00000  Uiso   1.00
C1507  C     0.90862   0.67015   0.99931   0.00000  Uiso   1.00
C1508  C     0.92535   0.79829   0.97740   0.00000  Uiso   1.00
C1509  C     0.90579   0.82580   0.00329   0.00000  Uiso   1.00
C1510  C     0.79829   0.92545   0.02254   0.00000  Uiso   1.00
C1511  C     0.52794   0.73162   0.54169   0.00000  Uiso   1.00
C1512  C     0.82581   0.90590   0.99666   0.00000  Uiso   1.00
C1513  C     0.69017   0.92890   0.96870   0.00000  Uiso   1.00
C1514  C     0.67009   0.90874   0.00076   0.00000  Uiso   1.00
C1515  C     0.57107   0.80024   0.02077   0.00000  Uiso   1.00
C1516  C     0.58901   0.82847   0.99476   0.00000  Uiso   1.00
C1517  C     0.57364   0.69270   0.96812   0.00000  Uiso   1.00
C1518  C     0.59543   0.67497   0.00071   0.00000  Uiso   1.00
C1519  C     0.95187   0.82390   0.52139   0.00000  Uiso   1.00
C1520  C     0.92436   0.84316   0.49526   0.00000  Uiso   1.00
C1521  C     0.55984   0.82093   0.46828   0.00000  Uiso   1.00
C1522  C     0.97164   0.73251   0.45852   0.00000  Uiso   1.00
C1523  C     0.57921   0.84150   0.50053   0.00000  Uiso   1.00
C1524  C     0.67840   0.95014   0.52042   0.00000  Uiso   1.00
C1525  C     0.66039   0.92163   0.49481   0.00000  Uiso   1.00
C1526  C     0.67651   0.55809   0.46766   0.00000  Uiso   1.00
C1527  C     0.65477   0.57637   0.49995   0.00000  Uiso   1.00
C1528  C     0.54808   0.67611   0.52131   0.00000  Uiso   1.00
C1529  C     0.57565   0.65684   0.49526   0.00000  Uiso   1.00
C1530  C     0.94010   0.67908   0.46827   0.00000  Uiso   1.00
C1531  C     0.92078   0.65849   0.50054   0.00000  Uiso   1.00
C1532  C     0.82160   0.54985   0.52039   0.00000  Uiso   1.00
C1533  C     0.76712   0.52848   0.54160   0.00000  Uiso   1.00
C1534  C     0.83961   0.57836   0.49477   0.00000  Uiso   1.00
C1535  C     0.82349   0.94190   0.46766   0.00000  Uiso   1.00
C1536  C     0.84524   0.92363   0.49995   0.00000  Uiso   1.00
C1537  C     0.71502   0.85210   0.22091   0.00000  Uiso   1.00
C1538  C     0.78401   0.64291   0.78064   0.00000  Uiso   1.00
C1539  C     0.62608   0.69194   0.17558   0.00000  Uiso   1.00
C1540  C     0.88098   0.80407   0.82104   0.00000  Uiso   1.00
C1541  C     0.78417   0.64283   0.21878   0.00000  Uiso   1.00
C1542  C     0.71597   0.85710   0.78071   0.00000  Uiso   1.00
C1543  C     0.88112   0.80431   0.17869   0.00000  Uiso   1.00
C1544  C     0.76879   0.97223   0.45843   0.00000  Uiso   1.00
C1545  C     0.61896   0.69584   0.82111   0.00000  Uiso   1.00
C1546  C     0.69166   0.62640   0.82445   0.00000  Uiso   1.00
C1547  C     0.80874   0.87417   0.17520   0.00000  Uiso   1.00
C1548  C     0.64794   0.78526   0.77970   0.00000  Uiso   1.00
C1549  C     0.85241   0.71476   0.21988   0.00000  Uiso   1.00
C1550  C     0.80831   0.87356   0.82441   0.00000  Uiso   1.00
C1551  C     0.69487   0.61903   0.17795   0.00000  Uiso   1.00
C1552  C     0.85204   0.71474   0.77965   0.00000  Uiso   1.00
C1553  C     0.64316   0.78403   0.21969   0.00000  Uiso   1.00
C1554  C     0.96478   0.60210   0.72032   0.00000  Uiso   1.00
C1555  C     0.72175   0.51745   0.08218   0.00000  Uiso   1.00
C1556  C     0.53397   0.89297   0.28048   0.00000  Uiso   1.00
C1557  C     0.87650   0.94172   0.67564   0.00000  Uiso   1.00
C1558  C     0.63127   0.55434   0.32127   0.00000  Uiso   1.00
C1559  C     0.53525   0.89790   0.72026   0.00000  Uiso   1.00
C1560  C     0.96592   0.60720   0.28101   0.00000  Uiso   1.00
C1561  C     0.62353   0.55832   0.67561   0.00000  Uiso   1.00
C1562  C     0.86874   0.94570   0.32142   0.00000  Uiso   1.00
C1563  C     0.94144   0.87617   0.32472   0.00000  Uiso   1.00
C1564  C     0.55411   0.63105   0.67891   0.00000  Uiso   1.00
C1565  C     0.89777   0.53540   0.28021   0.00000  Uiso   1.00
C1566  C     0.77897   0.51556   0.91796   0.00000  Uiso   1.00
C1567  C     0.60705   0.96595   0.71936   0.00000  Uiso   1.00
C1568  C     0.55855   0.62375   0.32462   0.00000  Uiso   1.00
C1569  C     0.94593   0.86899   0.67894   0.00000  Uiso   1.00
C1570  C     0.60198   0.96486   0.27933   0.00000  Uiso   1.00
C1571  C     0.89297   0.53405   0.71939   0.00000  Uiso   1.00
C1572  C     0.98366   0.72111   0.08217   0.00000  Uiso   1.00
C1573  C     0.77850   0.51663   0.95843   0.00000  Uiso   1.00
C1574  C     0.98248   0.77827   0.91777   0.00000  Uiso   1.00
C1575  C     0.77829   0.98254   0.08221   0.00000  Uiso   1.00
C1576  C     0.72108   0.98372   0.91785   0.00000  Uiso   1.00
C1577  C     0.51552   0.77897   0.08202   0.00000  Uiso   1.00
C1578  C     0.51740   0.72175   0.91783   0.00000  Uiso   1.00
C1579  C     0.97162   0.76729   0.58218   0.00000  Uiso   1.00
C1580  C     0.52886   0.76606   0.41789   0.00000  Uiso   1.00
C1581  C     0.73396   0.97113   0.58210   0.00000  Uiso   1.00
C1582  C     0.73265   0.52831   0.41779   0.00000  Uiso   1.00
C1583  C     0.52839   0.73271   0.58218   0.00000  Uiso   1.00
C1584  C     0.98221   0.72153   0.04152   0.00000  Uiso   1.00
C1585  C     0.97114   0.73394   0.41790   0.00000  Uiso   1.00
C1586  C     0.76604   0.52888   0.58208   0.00000  Uiso   1.00
C1587  C     0.76735   0.97168   0.41780   0.00000  Uiso   1.00
C1588  C     0.74991   0.99975   0.02137   0.00000  Uiso   1.00
C1589  C     0.74994   0.99958   0.97874   0.00000  Uiso   1.00
C1590  C     0.99950   0.74996   0.02126   0.00000  Uiso   1.00
C1591  C     0.99967   0.74991   0.97863   0.00000  Uiso   1.00
C1592  C     0.50000   0.75000   0.52134   0.00000  Uiso   1.00
C1593  C     0.50000   0.75000   0.47871   0.00000  Uiso   1.00
C1594  C     0.75000   0.50000   0.52125   0.00000  Uiso   1.00
C1595  C     0.98116   0.77773   0.95824   0.00000  Uiso   1.00
C1596  C     0.75000   0.50000   0.47862   0.00000  Uiso   1.00
C1597  C     0.75000   0.50000   0.35521   0.00000  Uiso   1.00
C1598  C     0.75000   0.50000   0.64477   0.00000  Uiso   1.00
C1599  C     0.50000   0.75000   0.35524   0.00000  Uiso   1.00
C1600  C     0.50000   0.75000   0.64479   0.00000  Uiso   1.00
C1601  C     0.99998   0.75000   0.85521   0.00000  Uiso   1.00
C1602  C     0.99996   0.75000   0.14477   0.00000  Uiso   1.00
C1603  C     0.75000   0.99997   0.85524   0.00000  Uiso   1.00
C1604  C     0.75000   0.99999   0.14479   0.00000  Uiso   1.00
C1605  C     0.68004   0.57002   0.24995   0.00000  Uiso   1.00
C1606  C     0.77774   0.98124   0.04174   0.00000  Uiso   1.00
C1607  C     0.82000   0.93000   0.75001   0.00000  Uiso   1.00
C1608  C     0.92997   0.67994   0.25006   0.00000  Uiso   1.00
C1609  C     0.57005   0.82005   0.74999   0.00000  Uiso   1.00
C1610  C     0.82000   0.93001   0.25001   0.00000  Uiso   1.00
C1611  C     0.68000   0.57000   0.75001   0.00000  Uiso   1.00
C1612  C     0.57003   0.82004   0.25001   0.00000  Uiso   1.00
C1613  C     0.92995   0.67995   0.75000   0.00000  Uiso   1.00
C1614  C     0.67996   0.92997   0.75001   0.00000  Uiso   1.00
C1615  C     0.82004   0.57005   0.24995   0.00000  Uiso   1.00
C1616  C     0.93001   0.81999   0.75000   0.00000  Uiso   1.00
C1617  C     0.72150   0.98229   0.95850   0.00000  Uiso   1.00
C1618  C     0.57001   0.68001   0.24999   0.00000  Uiso   1.00
C1619  C     0.82003   0.57003   0.75000   0.00000  Uiso   1.00
C1620  C     0.67994   0.92995   0.25000   0.00000  Uiso   1.00
C1621  C     0.56999   0.68001   0.75000   0.00000  Uiso   1.00
C1622  C     0.93004   0.82004   0.25004   0.00000  Uiso   1.00
C1623  C     0.66206   0.86480   0.25305   0.00000  Uiso   1.00
C1624  C     0.83785   0.63520   0.74741   0.00000  Uiso   1.00
C1625  C     0.63134   0.65846   0.23088   0.00000  Uiso   1.00
C1626  C     0.86859   0.84155   0.76910   0.00000  Uiso   1.00
C1627  C     0.83786   0.63528   0.25228   0.00000  Uiso   1.00
C1628  C     0.51656   0.77851   0.04155   0.00000  Uiso   1.00
C1629  C     0.66215   0.86480   0.74745   0.00000  Uiso   1.00
C1630  C     0.86863   0.84176   0.23061   0.00000  Uiso   1.00
C1631  C     0.63139   0.65843   0.76913   0.00000  Uiso   1.00
C1632  C     0.65848   0.63134   0.76895   0.00000  Uiso   1.00
C1633  C     0.84163   0.86894   0.23089   0.00000  Uiso   1.00
C1634  C     0.63523   0.83795   0.74716   0.00000  Uiso   1.00
C1635  C     0.86481   0.66210   0.25264   0.00000  Uiso   1.00
C1636  C     0.84150   0.86865   0.76892   0.00000  Uiso   1.00
C1637  C     0.65841   0.63133   0.23064   0.00000  Uiso   1.00
C1638  C     0.86477   0.66205   0.74713   0.00000  Uiso   1.00
C1639  C     0.51864   0.72224   0.95849   0.00000  Uiso   1.00
C1640  C     0.63521   0.83789   0.25276   0.00000  Uiso   1.00
C1641  C     0.91206   0.61479   0.75286   0.00000  Uiso   1.00
C1642  C     0.58785   0.88520   0.24734   0.00000  Uiso   1.00
C1643  C     0.88138   0.90849   0.73110   0.00000  Uiso   1.00
C1644  C     0.61871   0.59166   0.26923   0.00000  Uiso   1.00
C1645  C     0.58793   0.88521   0.75284   0.00000  Uiso   1.00
C1646  C     0.91213   0.61474   0.24763   0.00000  Uiso   1.00
C1647  C     0.61863   0.59153   0.73109   0.00000  Uiso   1.00
C1648  C     0.88144   0.90834   0.26946   0.00000  Uiso   1.00
C1649  C     0.90849   0.88121   0.26908   0.00000  Uiso   1.00
C1650  C     0.97206   0.76838   0.54168   0.00000  Uiso   1.00
C1651  C     0.59155   0.61863   0.73088   0.00000  Uiso   1.00
C1652  C     0.88518   0.58792   0.24732   0.00000  Uiso   1.00
C1653  C     0.61478   0.91213   0.75259   0.00000  Uiso   1.00
C1654  C     0.59161   0.61874   0.26903   0.00000  Uiso   1.00
C1655  C     0.90846   0.88139   0.73090   0.00000  Uiso   1.00
C1656  C     0.61477   0.91205   0.24704   0.00000  Uiso   1.00
C1657  C     0.88522   0.58787   0.75260   0.00000  Uiso   1.00
C1658  C     0.59805   0.84806   0.25003   0.00000  Uiso   1.00
C1659  C     0.90189   0.65189   0.74999   0.00000  Uiso   1.00
C1660  C     0.65202   0.59804   0.24994   0.00000  Uiso   1.00
H1661  H     0.69974   0.53062   0.09798   0.00000  Uiso   1.00
H1662  H     0.55138   0.77804   0.40211   0.00000  Uiso   1.00
H1663  H     0.80282   0.64327   0.80610   0.00000  Uiso   1.00
H1664  H     0.76767   0.61751   0.78154   0.00000  Uiso   1.00
H1665  H     0.76483   0.66629   0.78397   0.00000  Uiso   1.00
H1666  H     0.63054   0.71940   0.16294   0.00000  Uiso   1.00
H1667  H     0.59635   0.68614   0.17351   0.00000  Uiso   1.00
H1668  H     0.64181   0.67209   0.15774   0.00000  Uiso   1.00
H1669  H     0.88951   0.83034   0.83461   0.00000  Uiso   1.00
H1670  H     0.90541   0.78662   0.81588   0.00000  Uiso   1.00
H1671  H     0.86356   0.78965   0.84238   0.00000  Uiso   1.00
H1672  H     0.76856   0.61700   0.21762   0.00000  Uiso   1.00
H1673  H     0.72144   0.94870   0.59759   0.00000  Uiso   1.00
H1674  H     0.80304   0.64394   0.19340   0.00000  Uiso   1.00
H1675  H     0.76435   0.66569   0.21561   0.00000  Uiso   1.00
H1676  H     0.69713   0.85674   0.80616   0.00000  Uiso   1.00
H1677  H     0.73229   0.88251   0.78161   0.00000  Uiso   1.00
H1678  H     0.73516   0.83373   0.78406   0.00000  Uiso   1.00
H1679  H     0.90559   0.78697   0.18405   0.00000  Uiso   1.00
H1680  H     0.88958   0.83058   0.16506   0.00000  Uiso   1.00
H1681  H     0.86387   0.78974   0.15732   0.00000  Uiso   1.00
H1682  H     0.61042   0.66955   0.83465   0.00000  Uiso   1.00
H1683  H     0.59453   0.71330   0.81596   0.00000  Uiso   1.00
H1684  H     0.71966   0.55040   0.40197   0.00000  Uiso   1.00
H1685  H     0.63635   0.71024   0.84248   0.00000  Uiso   1.00
H1686  H     0.71891   0.63142   0.83740   0.00000  Uiso   1.00
H1687  H     0.68632   0.59660   0.82668   0.00000  Uiso   1.00
H1688  H     0.67131   0.64193   0.84187   0.00000  Uiso   1.00
H1689  H     0.81521   0.90374   0.17290   0.00000  Uiso   1.00
H1690  H     0.78124   0.87021   0.16243   0.00000  Uiso   1.00
H1691  H     0.82840   0.85787   0.15769   0.00000  Uiso   1.00
H1692  H     0.66230   0.75870   0.77655   0.00000  Uiso   1.00
H1693  H     0.62028   0.77984   0.79159   0.00000  Uiso   1.00
H1694  H     0.66393   0.80170   0.80073   0.00000  Uiso   1.00
H1695  H     0.55042   0.71924   0.59770   0.00000  Uiso   1.00
H1696  H     0.88016   0.72018   0.20824   0.00000  Uiso   1.00
H1697  H     0.83801   0.74132   0.22285   0.00000  Uiso   1.00
H1698  H     0.83660   0.69828   0.19873   0.00000  Uiso   1.00
H1699  H     0.78107   0.86851   0.83738   0.00000  Uiso   1.00
H1700  H     0.81362   0.90336   0.82665   0.00000  Uiso   1.00
H1701  H     0.82867   0.85804   0.84183   0.00000  Uiso   1.00
H1702  H     0.66821   0.61183   0.16433   0.00000  Uiso   1.00
H1703  H     0.71124   0.59380   0.18262   0.00000  Uiso   1.00
H1704  H     0.70998   0.63610   0.15684   0.00000  Uiso   1.00
H1705  H     0.83765   0.74129   0.77649   0.00000  Uiso   1.00
H1706  H     0.94862   0.72196   0.40213   0.00000  Uiso   1.00
H1707  H     0.87968   0.72018   0.79154   0.00000  Uiso   1.00
H1708  H     0.83604   0.69829   0.80068   0.00000  Uiso   1.00
H1709  H     0.64387   0.80279   0.19420   0.00000  Uiso   1.00
H1710  H     0.61767   0.76784   0.21857   0.00000  Uiso   1.00
H1711  H     0.66647   0.76472   0.21665   0.00000  Uiso   1.00
H1712  H     0.99131   0.58765   0.72346   0.00000  Uiso   1.00
H1713  H     0.97028   0.62974   0.70848   0.00000  Uiso   1.00
H1714  H     0.94829   0.58618   0.69926   0.00000  Uiso   1.00
H1715  H     0.55275   0.89346   0.30597   0.00000  Uiso   1.00
H1716  H     0.51769   0.86754   0.28145   0.00000  Uiso   1.00
H1717  H     0.77855   0.55131   0.59756   0.00000  Uiso   1.00
H1718  H     0.51472   0.91631   0.28370   0.00000  Uiso   1.00
H1719  H     0.88156   0.96896   0.66271   0.00000  Uiso   1.00
H1720  H     0.84669   0.93641   0.67338   0.00000  Uiso   1.00
H1721  H     0.89203   0.92139   0.65820   0.00000  Uiso   1.00
H1722  H     0.63990   0.58065   0.33469   0.00000  Uiso   1.00
H1723  H     0.65564   0.53682   0.31609   0.00000  Uiso   1.00
H1724  H     0.61390   0.54004   0.34274   0.00000  Uiso   1.00
H1725  H     0.50873   0.91237   0.72336   0.00000  Uiso   1.00
H1726  H     0.52973   0.87026   0.70844   0.00000  Uiso   1.00
H1727  H     0.55177   0.91378   0.69919   0.00000  Uiso   1.00
H1728  H     0.78033   0.94959   0.40197   0.00000  Uiso   1.00
H1729  H     0.94706   0.60699   0.30645   0.00000  Uiso   1.00
H1730  H     0.98227   0.63260   0.28177   0.00000  Uiso   1.00
H1731  H     0.98509   0.58384   0.28452   0.00000  Uiso   1.00
H1732  H     0.61850   0.53108   0.66268   0.00000  Uiso   1.00
H1733  H     0.65334   0.56364   0.67336   0.00000  Uiso   1.00
H1734  H     0.60800   0.57866   0.65818   0.00000  Uiso   1.00
H1735  H     0.86012   0.91941   0.33490   0.00000  Uiso   1.00
H1736  H     0.84435   0.96315   0.31601   0.00000  Uiso   1.00
H1737  H     0.88594   0.96013   0.34294   0.00000  Uiso   1.00
H1738  H     0.96878   0.88072   0.33767   0.00000  Uiso   1.00
H1739  H     0.72005   0.58577   0.03771   0.00000  Uiso   1.00
H1740  H     0.93557   0.84648   0.32703   0.00000  Uiso   1.00
H1741  H     0.92137   0.89210   0.34210   0.00000  Uiso   1.00
H1742  H     0.58041   0.63954   0.66535   0.00000  Uiso   1.00
H1743  H     0.53668   0.65549   0.68407   0.00000  Uiso   1.00
H1744  H     0.53967   0.61367   0.65757   0.00000  Uiso   1.00
H1745  H     0.91197   0.50874   0.27724   0.00000  Uiso   1.00
H1746  H     0.87008   0.53022   0.29214   0.00000  Uiso   1.00
H1747  H     0.91387   0.55188   0.30112   0.00000  Uiso   1.00
H1748  H     0.60672   0.94715   0.69390   0.00000  Uiso   1.00
H1749  H     0.63244   0.98231   0.71848   0.00000  Uiso   1.00
H1750  H     0.67534   0.57648   0.05828   0.00000  Uiso   1.00
H1751  H     0.58364   0.98510   0.71603   0.00000  Uiso   1.00
H1752  H     0.53131   0.61882   0.33763   0.00000  Uiso   1.00
H1753  H     0.56397   0.65353   0.32680   0.00000  Uiso   1.00
H1754  H     0.57889   0.60819   0.34202   0.00000  Uiso   1.00
H1755  H     0.91963   0.86051   0.66536   0.00000  Uiso   1.00
H1756  H     0.96335   0.84455   0.68409   0.00000  Uiso   1.00
H1757  H     0.96038   0.88639   0.65761   0.00000  Uiso   1.00
H1758  H     0.58779   0.99150   0.27599   0.00000  Uiso   1.00
H1759  H     0.62960   0.97016   0.29136   0.00000  Uiso   1.00
H1760  H     0.58577   0.94856   0.30031   0.00000  Uiso   1.00
H1761  H     0.64700   0.58515   0.99359   0.00000  Uiso   1.00
H1762  H     0.89332   0.55286   0.69392   0.00000  Uiso   1.00
H1763  H     0.86758   0.51770   0.71850   0.00000  Uiso   1.00
H1764  H     0.91638   0.51490   0.71608   0.00000  Uiso   1.00
H1765  H     0.80146   0.52802   0.90252   0.00000  Uiso   1.00
H1766  H     0.67308   0.62473   0.00775   0.00000  Uiso   1.00
H1767  H     0.69159   0.59305   0.97254   0.00000  Uiso   1.00
H1768  H     0.77260   0.57751   0.99119   0.00000  Uiso   1.00
H1769  H     0.80260   0.58302   0.94960   0.00000  Uiso   1.00
H1770  H     0.85637   0.58389   0.99368   0.00000  Uiso   1.00
H1771  H     0.82348   0.61900   0.00624   0.00000  Uiso   1.00
H1772  H     0.82652   0.57784   0.03506   0.00000  Uiso   1.00
H1773  H     0.91527   0.71742   0.03526   0.00000  Uiso   1.00
H1774  H     0.92620   0.67415   0.05854   0.00000  Uiso   1.00
H1775  H     0.92069   0.64251   0.99515   0.00000  Uiso   1.00
H1776  H     0.97182   0.69854   0.09797   0.00000  Uiso   1.00
H1777  H     0.87935   0.66730   0.00720   0.00000  Uiso   1.00
H1778  H     0.91061   0.68568   0.97171   0.00000  Uiso   1.00
H1779  H     0.91930   0.77038   0.98854   0.00000  Uiso   1.00
H1780  H     0.91435   0.80113   0.94743   0.00000  Uiso   1.00
H1781  H     0.91073   0.85398   0.99266   0.00000  Uiso   1.00
H1782  H     0.87594   0.82056   0.00297   0.00000  Uiso   1.00
H1783  H     0.91596   0.82333   0.03354   0.00000  Uiso   1.00
H1784  H     0.77036   0.91943   0.01139   0.00000  Uiso   1.00
H1785  H     0.80111   0.91444   0.05251   0.00000  Uiso   1.00
H1786  H     0.82335   0.91609   0.96641   0.00000  Uiso   1.00
H1787  H     0.96898   0.80025   0.90220   0.00000  Uiso   1.00
H1788  H     0.85400   0.91082   0.00730   0.00000  Uiso   1.00
H1789  H     0.82055   0.87607   0.99696   0.00000  Uiso   1.00
H1790  H     0.71734   0.91538   0.96474   0.00000  Uiso   1.00
H1791  H     0.67403   0.92634   0.94153   0.00000  Uiso   1.00
H1792  H     0.68566   0.91072   0.02833   0.00000  Uiso   1.00
H1793  H     0.66720   0.87950   0.99286   0.00000  Uiso   1.00
H1794  H     0.64245   0.92083   0.00497   0.00000  Uiso   1.00
H1795  H     0.57750   0.77263   0.00882   0.00000  Uiso   1.00
H1796  H     0.58296   0.80266   0.05038   0.00000  Uiso   1.00
H1797  H     0.57780   0.82649   0.96489   0.00000  Uiso   1.00
H1798  H     0.80028   0.96903   0.09777   0.00000  Uiso   1.00
H1799  H     0.61896   0.82352   0.99373   0.00000  Uiso   1.00
H1800  H     0.58381   0.85637   0.00623   0.00000  Uiso   1.00
H1801  H     0.58572   0.72009   0.96238   0.00000  Uiso   1.00
H1802  H     0.57647   0.67540   0.94178   0.00000  Uiso   1.00
H1803  H     0.59295   0.69160   0.02754   0.00000  Uiso   1.00
H1804  H     0.58508   0.64704   0.00647   0.00000  Uiso   1.00
H1805  H     0.62468   0.67313   0.99236   0.00000  Uiso   1.00
H1806  H     0.97976   0.82934   0.50979   0.00000  Uiso   1.00
H1807  H     0.94946   0.83562   0.55109   0.00000  Uiso   1.00
H1808  H     0.89621   0.83898   0.50639   0.00000  Uiso   1.00
H1809  H     0.69850   0.97187   0.90206   0.00000  Uiso   1.00
H1810  H     0.93010   0.87290   0.49458   0.00000  Uiso   1.00
H1811  H     0.92633   0.83214   0.46531   0.00000  Uiso   1.00
H1812  H     0.53281   0.83446   0.46338   0.00000  Uiso   1.00
H1813  H     0.57663   0.82306   0.44151   0.00000  Uiso   1.00
H1814  H     0.60670   0.82941   0.50567   0.00000  Uiso   1.00
H1815  H     0.58235   0.87062   0.49224   0.00000  Uiso   1.00
H1816  H     0.56298   0.83995   0.52771   0.00000  Uiso   1.00
H1817  H     0.67237   0.97759   0.50785   0.00000  Uiso   1.00
H1818  H     0.66622   0.94837   0.54996   0.00000  Uiso   1.00
H1819  H     0.66521   0.89389   0.50689   0.00000  Uiso   1.00
H1820  H     0.52799   0.80146   0.09745   0.00000  Uiso   1.00
H1821  H     0.63050   0.92686   0.49340   0.00000  Uiso   1.00
H1822  H     0.67188   0.92297   0.46502   0.00000  Uiso   1.00
H1823  H     0.66399   0.53091   0.46193   0.00000  Uiso   1.00
H1824  H     0.67422   0.57536   0.44123   0.00000  Uiso   1.00
H1825  H     0.66579   0.60401   0.50587   0.00000  Uiso   1.00
H1826  H     0.62566   0.57902   0.49122   0.00000  Uiso   1.00
H1827  H     0.65648   0.55968   0.52681   0.00000  Uiso   1.00
H1828  H     0.52022   0.67074   0.50960   0.00000  Uiso   1.00
H1829  H     0.55036   0.66434   0.55100   0.00000  Uiso   1.00
H1830  H     0.57380   0.66792   0.46531   0.00000  Uiso   1.00
H1831  H     0.53058   0.69975   0.90205   0.00000  Uiso   1.00
H1832  H     0.60376   0.66096   0.50650   0.00000  Uiso   1.00
H1833  H     0.56985   0.62712   0.49450   0.00000  Uiso   1.00
H1834  H     0.96710   0.66554   0.46327   0.00000  Uiso   1.00
H1835  H     0.92325   0.67701   0.44154   0.00000  Uiso   1.00
H1836  H     0.93707   0.65997   0.52767   0.00000  Uiso   1.00
H1837  H     0.91759   0.62938   0.49221   0.00000  Uiso   1.00
H1838  H     0.89331   0.67059   0.50576   0.00000  Uiso   1.00
H1839  H     0.82762   0.52240   0.50782   0.00000  Uiso   1.00
H1840  H     0.83378   0.55162   0.54992   0.00000  Uiso   1.00
H1841  H     0.86950   0.57312   0.49334   0.00000  Uiso   1.00
H1842  H     0.94959   0.78076   0.59770   0.00000  Uiso   1.00
H1843  H     0.83480   0.60610   0.50684   0.00000  Uiso   1.00
H1844  H     0.82812   0.57703   0.46498   0.00000  Uiso   1.00
H1845  H     0.83601   0.96909   0.46191   0.00000  Uiso   1.00
H1846  H     0.82578   0.92464   0.44124   0.00000  Uiso   1.00
H1847  H     0.83422   0.89599   0.50588   0.00000  Uiso   1.00
H1848  H     0.87434   0.92098   0.49121   0.00000  Uiso   1.00
H1849  H     0.84353   0.94033   0.52680   0.00000  Uiso   1.00
H1850  H     0.74138   0.83737   0.22421   0.00000  Uiso   1.00
H1851  H     0.72091   0.87973   0.20927   0.00000  Uiso   1.00
H1852  H     0.69854   0.83646   0.19960   0.00000  Uiso   1.00
O1853  O     0.75000   0.50000   0.25000   0.00000  Uiso   1.00
O1854  O     0.75000   0.96964   0.66317   0.00000  Uiso   1.00
O1855  O     0.89603   0.55164   0.75579   0.00000  Uiso   1.00
O1856  O     0.96964   0.75000   0.33683   0.00000  Uiso   1.00
O1857  O     0.53036   0.75000   0.66317   0.00000  Uiso   1.00
O1858  O     0.50000   0.71964   0.83683   0.00000  Uiso   1.00
O1859  O     0.50000   0.78036   0.16317   0.00000  Uiso   1.00
O1860  O     0.78036   0.50000   0.83683   0.00000  Uiso   1.00
O1861  O     0.71964   0.50000   0.16317   0.00000  Uiso   1.00
O1862  O     0.50000   0.78036   0.83683   0.00000  Uiso   1.00
O1863  O     0.50000   0.71964   0.16317   0.00000  Uiso   1.00
O1864  O     0.71964   0.50000   0.83683   0.00000  Uiso   1.00
O1865  O     0.75000   0.50000   0.75000   0.00000  Uiso   1.00
O1866  O     0.78036   0.50000   0.16317   0.00000  Uiso   1.00
O1867  O     0.70725   0.57307   0.27282   0.00000  Uiso   1.00
O1868  O     0.79274   0.92693   0.72718   0.00000  Uiso   1.00
O1869  O     0.92693   0.70725   0.27282   0.00000  Uiso   1.00
O1870  O     0.57307   0.79275   0.72718   0.00000  Uiso   1.00
O1871  O     0.79274   0.92693   0.27282   0.00000  Uiso   1.00
O1872  O     0.70725   0.57307   0.72718   0.00000  Uiso   1.00
O1873  O     0.57307   0.79275   0.27282   0.00000  Uiso   1.00
O1874  O     0.92693   0.70725   0.72718   0.00000  Uiso   1.00
O1875  O     0.70725   0.92693   0.72718   0.00000  Uiso   1.00
O1876  O     0.50000   0.75000   0.25000   0.00000  Uiso   1.00
O1877  O     0.79274   0.57307   0.27282   0.00000  Uiso   1.00
O1878  O     0.92693   0.79274   0.72718   0.00000  Uiso   1.00
O1879  O     0.57307   0.70726   0.27282   0.00000  Uiso   1.00
O1880  O     0.79274   0.57307   0.72718   0.00000  Uiso   1.00
O1881  O     0.70725   0.92693   0.27282   0.00000  Uiso   1.00
O1882  O     0.57307   0.70726   0.72718   0.00000  Uiso   1.00
O1883  O     0.92693   0.79274   0.27282   0.00000  Uiso   1.00
O1884  O     0.95725   0.82307   0.77282   0.00000  Uiso   1.00
O1885  O     0.54274   0.67693   0.22718   0.00000  Uiso   1.00
O1886  O     0.67693   0.95726   0.77282   0.00000  Uiso   1.00
O1887  O     0.50000   0.75000   0.75000   0.00000  Uiso   1.00
O1888  O     0.82307   0.54274   0.22718   0.00000  Uiso   1.00
O1889  O     0.54274   0.67693   0.77282   0.00000  Uiso   1.00
O1890  O     0.95725   0.82307   0.22718   0.00000  Uiso   1.00
O1891  O     0.82307   0.54274   0.77282   0.00000  Uiso   1.00
O1892  O     0.67693   0.95726   0.22718   0.00000  Uiso   1.00
O1893  O     0.95725   0.67693   0.22718   0.00000  Uiso   1.00
O1894  O     0.54274   0.82307   0.77282   0.00000  Uiso   1.00
O1895  O     0.67693   0.54274   0.22718   0.00000  Uiso   1.00
O1896  O     0.82307   0.95726   0.77282   0.00000  Uiso   1.00
O1897  O     0.54274   0.82307   0.22718   0.00000  Uiso   1.00
O1898  O     0.75000   0.96964   0.33683   0.00000  Uiso   1.00
O1899  O     0.95725   0.67693   0.77282   0.00000  Uiso   1.00
O1900  O     0.82307   0.95726   0.22718   0.00000  Uiso   1.00
O1901  O     0.67693   0.54274   0.77282   0.00000  Uiso   1.00
O1902  O     0.69500   0.53659   0.02074   0.00000  Uiso   1.00
O1903  O     0.80677   0.53309   0.97830   0.00000  Uiso   1.00
O1904  O     0.96597   0.69344   0.02089   0.00000  Uiso   1.00
O1905  O     0.96322   0.80533   0.97809   0.00000  Uiso   1.00
O1906  O     0.80535   0.96330   0.02188   0.00000  Uiso   1.00
O1907  O     0.69339   0.96607   0.97915   0.00000  Uiso   1.00
O1908  O     0.53302   0.80677   0.02166   0.00000  Uiso   1.00
O1909  O     0.75000   0.53036   0.66317   0.00000  Uiso   1.00
O1910  O     0.53652   0.69501   0.97929   0.00000  Uiso   1.00
O1911  O     0.94435   0.78614   0.52183   0.00000  Uiso   1.00
O1912  O     0.55630   0.78391   0.47924   0.00000  Uiso   1.00
O1913  O     0.71637   0.94325   0.52181   0.00000  Uiso   1.00
O1914  O     0.71348   0.55511   0.47921   0.00000  Uiso   1.00
O1915  O     0.55566   0.71386   0.52184   0.00000  Uiso   1.00
O1916  O     0.94370   0.71608   0.47927   0.00000  Uiso   1.00
O1917  O     0.78363   0.55675   0.52179   0.00000  Uiso   1.00
O1918  O     0.78652   0.94489   0.47922   0.00000  Uiso   1.00
O1919  O     0.69823   0.85437   0.25769   0.00000  Uiso   1.00
O1920  O     0.53036   0.75000   0.33683   0.00000  Uiso   1.00
O1921  O     0.80160   0.64599   0.74424   0.00000  Uiso   1.00
O1922  O     0.63835   0.69215   0.21437   0.00000  Uiso   1.00
O1923  O     0.86097   0.80820   0.78619   0.00000  Uiso   1.00
O1924  O     0.80161   0.64613   0.25524   0.00000  Uiso   1.00
O1925  O     0.69840   0.85401   0.74430   0.00000  Uiso   1.00
O1926  O     0.86091   0.80849   0.21341   0.00000  Uiso   1.00
O1927  O     0.63899   0.69176   0.78627   0.00000  Uiso   1.00
O1928  O     0.69216   0.63830   0.78552   0.00000  Uiso   1.00
O1929  O     0.80801   0.86223   0.21410   0.00000  Uiso   1.00
O1930  O     0.64569   0.80177   0.74278   0.00000  Uiso   1.00
O1931  O     0.96964   0.75000   0.66317   0.00000  Uiso   1.00
O1932  O     0.85437   0.69830   0.25684   0.00000  Uiso   1.00
O1933  O     0.80782   0.86168   0.78549   0.00000  Uiso   1.00
O1934  O     0.69164   0.63871   0.21312   0.00000  Uiso   1.00
O1935  O     0.85432   0.69822   0.74274   0.00000  Uiso   1.00
O1936  O     0.64601   0.80167   0.25608   0.00000  Uiso   1.00
O1937  O     0.94826   0.60435   0.75724   0.00000  Uiso   1.00
O1938  O     0.55160   0.89599   0.24410   0.00000  Uiso   1.00
O1939  O     0.88837   0.94217   0.71457   0.00000  Uiso   1.00
O1940  O     0.61114   0.55836   0.28647   0.00000  Uiso   1.00
O1941  O     0.55174   0.89565   0.75719   0.00000  Uiso   1.00
O1942  O     0.75000   0.53036   0.33683   0.00000  Uiso   1.00
O1943  O     0.94838   0.60392   0.24461   0.00000  Uiso   1.00
O1944  O     0.61165   0.55786   0.71454   0.00000  Uiso   1.00
O1945  O     0.88909   0.94157   0.28679   0.00000  Uiso   1.00
O1946  O     0.94215   0.88799   0.28578   0.00000  Uiso   1.00
O1947  O     0.55820   0.61103   0.71377   0.00000  Uiso   1.00
O1948  O     0.89562   0.55172   0.24319   0.00000  Uiso   1.00
O1949  O     0.60397   0.94836   0.75576   0.00000  Uiso   1.00
O1950  O     0.55796   0.61181   0.28571   0.00000  Uiso   1.00
O1951  O     0.94182   0.88899   0.71380   0.00000  Uiso   1.00
O1952  O     0.60433   0.94821   0.24249   0.00000  Uiso   1.00
Zn1953 Zn    0.70660   0.50000   0.21760   0.00000  Uiso   1.00
Zn1954 Zn    0.54340   0.75000   0.28240   0.00000  Uiso   1.00
Zn1955 Zn    0.75000   0.95660   0.71760   0.00000  Uiso   1.00
Zn1956 Zn    0.75000   0.54340   0.28240   0.00000  Uiso   1.00
Zn1957 Zn    0.54340   0.75000   0.71760   0.00000  Uiso   1.00
Zn1958 Zn    0.95660   0.75000   0.28240   0.00000  Uiso   1.00
Zn1959 Zn    0.75000   0.54340   0.71760   0.00000  Uiso   1.00
Zn1960 Zn    0.75000   0.95660   0.28240   0.00000  Uiso   1.00
Zn1961 Zn    0.79340   0.50000   0.78240   0.00000  Uiso   1.00
Zn1962 Zn    0.50000   0.70660   0.21760   0.00000  Uiso   1.00
Zn1963 Zn    0.50000   0.79340   0.78240   0.00000  Uiso   1.00
Zn1964 Zn    0.79340   0.50000   0.21760   0.00000  Uiso   1.00
Zn1965 Zn    0.70660   0.50000   0.78240   0.00000  Uiso   1.00
Zn1966 Zn    0.50000   0.79340   0.21760   0.00000  Uiso   1.00
Zn1967 Zn    0.50000   0.70660   0.78240   0.00000  Uiso   1.00
Zn1968 Zn    0.95660   0.75000   0.71760   0.00000  Uiso   1.00
loop_
_geom_bond_atom_site_label_1
_geom_bond_atom_site_label_2
_geom_bond_distance
_geom_bond_site_symmetry_2
_ccdc_geom_bond_type
C1     C79     1.403   .     A
C1     O426    1.388   .     S
C1     C1096   1.407   1_545 S
C2     C104    1.402   .     A
C2     O436    1.388   .     S
C2     C117    1.407   .     S
C3     C131    1.447   .     S
C3     C167    1.405   .     A
C3     C160    1.405   .     A
C4     C132    1.456   .     S
C4     C170    1.410   .     A
C4     C159    1.410   .     A
C5     C158    1.409   .     A
C5     C133    1.457   .     S
C5     C169    1.409   .     A
C6     C172    1.409   .     A
C6     C157    1.405   .     A
C6     C134    1.446   .     S
C7     C156    1.405   .     A
C7     C171    1.405   .     A
C7     C135    1.447   .     S
C8     C145    1.446   .     S
C8     C175    1.409   .     A
C8     C155    1.409   .     A
C9     C146    1.447   .     S
C9     C173    1.406   .     A
C9     C154    1.409   .     A
C10    C138    1.455   .     S
C10    C177    1.411   .     A
C10    C153    1.411   .     A
C11    C176    1.410   .     A
C11    C151    1.411   .     A
C11    C139    1.456   .     S
C12    C150    1.409   .     A
C12    C140    1.446   .     S
C12    C179    1.409   .     A
C13    O437    1.382   .     S
C13    C105    1.396   .     A
C13    C1102   1.408   .     S
C14    C149    1.405   .     A
C14    C142    1.447   .     S
C14    C178    1.405   .     A
C15    C148    1.411   .     A
C15    C143    1.455   .     S
C15    C181    1.411   .     A
C16    C144    1.457   .     S
C16    C180    1.410   .     A
C16    C147    1.410   .     A
C17    C1112   1.459   1_545 S
C17    C1083   1.399   1_545 A
C17    C79     1.399   .     S
C18    C100    1.400   .     A
C18    C127    1.461   .     S
C18    C1074   1.399   .     S
C19    C126    1.461   .     S
C19    C96     1.400   .     A
C19    C593    1.399   .     S
C20    C125    1.459   .     S
C20    C98     1.399   .     A
C20    C594    1.399   .     S
C21    C124    1.459   .     S
C21    C107    1.400   .     A
C21    C595    1.400   1_455 S
C22    C123    1.461   .     S
C22    C601    1.399   1_455 A
C22    C104    1.399   .     S
C23    C122    1.461   .     S
C23    C110    1.400   .     A
C23    C1089   1.400   1_545 S
C24    O438    1.388   .     S
C24    C106    1.402   .     A
C24    C120    1.408   .     S
C25    C121    1.460   .     S
C25    C1095   1.399   1_545 A
C25    C106    1.399   .     S
C26    H263    1.116   .     S
C26    O426    1.414   .     S
C26    H274    1.112   .     S
C26    C27     1.521   1_554 S
C27    H285    1.111   .     S
C27    H291    1.111   .     S
C27    C26     1.521   1_556 S
C27    H290    1.110   1_556 S
C28    H292    1.115   .     S
C28    O427    1.412   .     S
C28    H293    1.114   .     S
C28    C29     1.521   1_556 S
C29    H296    1.111   .     S
C29    H295    1.110   .     S
C29    C28     1.521   1_554 S
C29    H294    1.111   1_554 S
C30    O428    1.414   .     S
C30    H298    1.112   .     S
C30    H297    1.116   .     S
C30    C31     1.521   1_554 S
C31    H299    1.111   .     S
C31    H302    1.111   .     S
C31    C30     1.521   1_556 S
C31    H301    1.110   1_556 S
C32    H304    1.114   .     S
C32    H303    1.115   .     S
C32    O429    1.412   .     S
C32    C33     1.521   1_556 S
C33    H307    1.111   .     S
C33    H306    1.111   .     S
C33    C32     1.521   1_554 S
C33    H305    1.111   1_554 S
C34    H309    1.114   .     S
C34    H308    1.115   .     S
C34    O430    1.412   .     S
C34    C36     1.521   1_554 S
C35    C107    1.397   .     A
C35    O439    1.382   .     S
C35    C116    1.408   .     A
C36    H313    1.111   .     S
C36    H310    1.111   .     S
C36    C34     1.521   1_556 S
C36    H312    1.111   1_556 S
C37    H315    1.112   .     S
C37    H314    1.116   .     S
C37    O431    1.414   .     S
C37    C38     1.521   1_556 S
C38    H316    1.111   .     S
C38    H318    1.111   .     S
C38    C37     1.521   1_554 S
C38    H317    1.110   1_554 S
C39    H320    1.114   .     S
C39    O432    1.412   .     S
C39    H319    1.115   .     S
C39    C40     1.521   1_554 S
C40    H323    1.110   .     S
C40    H321    1.111   .     S
C40    C39     1.521   1_556 S
C40    H324    1.111   1_556 S
C41    H326    1.112   .     S
C41    O434    1.414   .     S
C41    H325    1.116   .     S
C41    C42     1.521   1_556 S
C42    H327    1.111   .     S
C42    H328    1.111   .     S
C42    C41     1.521   1_554 S
C42    H329    1.110   1_554 S
C43    C44     1.521   .     S
C43    H330    1.115   .     S
C43    H331    1.114   .     S
C43    O435    1.412   .     S
C44    H335    1.111   .     S
C44    H332    1.111   .     S
C44    H334    1.110   .     S
C45    C47     1.521   .     S
C45    H337    1.112   .     S
C45    H336    1.116   .     S
C45    O436    1.414   .     S
C46    C609    1.407   .     A
C46    C109    1.402   .     A
C46    O440    1.388   .     S
C47    H340    1.111   .     S
C47    H338    1.111   .     S
C47    H339    1.110   .     S
C48    O437    1.411   .     S
C48    H342    1.114   .     S
C48    H341    1.115   .     S
C48    C49     1.521   .     S
C49    H346    1.111   .     S
C49    H345    1.110   .     S
C49    H343    1.111   .     S
C50    H348    1.112   .     S
C50    C51     1.521   .     S
C50    O438    1.414   .     S
C50    H347    1.116   .     S
C51    H351    1.111   .     S
C51    H350    1.110   .     S
C51    H349    1.111   .     S
C52    O439    1.411   .     S
C52    H353    1.114   .     S
C52    H352    1.115   .     S
C52    C53     1.521   .     S
C53    H354    1.111   .     S
C53    H357    1.110   .     S
C53    H356    1.111   .     S
C54    O440    1.414   .     S
C54    C55     1.521   .     S
C54    H359    1.112   .     S
C54    H358    1.116   .     S
C55    H362    1.111   .     S
C55    H361    1.110   .     S
C55    H360    1.111   .     S
C56    H364    1.114   .     S
C56    C58     1.521   .     S
C56    H363    1.115   .     S
C56    O441    1.411   .     S
C57    C118    1.408   .     A
C57    C110    1.397   .     A
C57    O441    1.382   .     S
C58    H365    1.110   .     S
C58    H368    1.111   .     S
C58    H367    1.111   .     S
C59    H370    1.112   .     S
C59    O442    1.414   .     S
C59    C60     1.521   .     S
C59    H369    1.116   .     S
C60    H371    1.111   .     S
C60    H373    1.111   .     S
C60    H372    1.110   .     S
C61    H375    1.111   .     S
C61    H374    1.108   .     S
C61    H376    1.112   .     S
C61    O443    1.411   .     S
C62    H188    1.109   .     S
C62    O445    1.415   .     S
C62    H189    1.109   .     S
C62    H187    1.116   .     S
C63    O446    1.411   .     S
C63    H192    1.110   .     S
C63    H190    1.109   .     S
C63    H191    1.112   .     S
C64    H195    1.109   .     S
C64    O447    1.415   .     S
C64    H194    1.110   .     S
C64    H193    1.116   .     S
C65    H199    1.109   .     S
C65    H198    1.116   .     S
C65    O448    1.415   .     S
C65    H196    1.109   .     S
C66    H201    1.109   .     S
C66    H200    1.116   .     S
C66    H202    1.109   .     S
C66    O449    1.415   .     S
C67    H205    1.109   .     S
C67    H203    1.110   .     S
C67    H204    1.116   .     S
C67    O450    1.415   .     S
C68    C1104   1.408   .     A
C68    O442    1.388   .     S
C68    C111    1.402   .     A
C69    H206    1.116   .     S
C69    H207    1.110   .     S
C69    O451    1.415   .     S
C69    H209    1.109   .     S
C70    H212    1.110   .     S
C70    H210    1.109   .     S
C70    H211    1.112   .     S
C70    O452    1.411   .     S
C71    H214    1.109   .     S
C71    O453    1.411   .     S
C71    H213    1.112   .     S
C71    H215    1.110   .     S
C72    H218    1.112   .     S
C72    O454    1.411   .     S
C72    H216    1.108   .     S
C72    H217    1.111   .     S
C73    O456    1.411   .     S
C73    H221    1.108   .     S
C73    H220    1.111   .     S
C73    H222    1.111   .     S
C74    H225    1.110   .     S
C74    H223    1.109   .     S
C74    H224    1.112   .     S
C74    O457    1.411   .     S
C75    H227    1.109   .     S
C75    O458    1.415   .     S
C75    H228    1.109   .     S
C75    H226    1.116   .     S
C76    H232    1.112   .     S
C76    H229    1.108   .     S
C76    H231    1.111   .     S
C76    O459    1.411   .     S
C77    H235    1.109   .     S
C77    H234    1.109   .     S
C77    O460    1.415   .     S
C77    H233    1.116   .     S
C78    H238    1.112   .     S
C78    H236    1.108   .     S
C78    O461    1.411   .     S
C78    H237    1.111   .     S
C79    H185    1.083   .     S
C80    H239    1.116   .     S
C80    H242    1.109   .     S
C80    O462    1.415   .     S
C80    H240    1.109   .     S
C81    H244    1.112   .     S
C81    O463    1.411   .     S
C81    H243    1.109   .     S
C81    H245    1.110   .     S
C82    H248    1.109   .     S
C82    O464    1.415   .     S
C82    H246    1.116   .     S
C82    H247    1.110   .     S
C83    H249    1.108   .     S
C83    H250    1.111   .     S
C83    O465    1.411   .     S
C83    H251    1.112   .     S
C84    H253    1.116   .     S
C84    H255    1.109   .     S
C84    O467    1.415   .     S
C84    H254    1.109   .     S
C85    H257    1.112   .     S
C85    O468    1.411   .     S
C85    H256    1.109   .     S
C85    H258    1.110   .     S
C86    O469    1.415   .     S
C86    H260    1.110   .     S
C86    H261    1.109   .     S
C86    H259    1.116   .     S
C87    O470    1.411   .     S
C87    H262    1.109   .     S
C87    H265    1.110   .     S
C87    H264    1.112   .     S
C88    H268    1.109   .     S
C88    O471    1.415   .     S
C88    H267    1.110   .     S
C88    H266    1.116   .     S
C89    O472    1.411   .     S
C89    H270    1.111   .     S
C89    H271    1.112   .     S
C89    H269    1.108   .     S
C90    H289    1.084   .     S
C90    C97     1.396   .     A
C90    C1002   1.399   1_545 S
C91    H272    1.116   .     S
C91    H275    1.109   .     S
C91    O473    1.415   .     S
C91    H273    1.109   .     S
C92    O474    1.411   .     S
C92    H276    1.109   .     S
C92    H278    1.111   .     S
C92    H277    1.112   .     S
C93    H279    1.116   .     S
C93    H281    1.109   .     S
C93    H280    1.110   .     S
C93    O475    1.415   .     S
C94    O476    1.411   .     S
C94    H282    1.108   .     S
C94    H283    1.111   .     S
C94    H284    1.112   .     S
C95    H288    1.109   .     S
C95    H286    1.116   .     S
C95    H287    1.109   .     S
C95    O379    1.415   .     S
C96    C108    1.402   .     A
C96    H300    1.083   .     S
C97    O427    1.382   .     S
C97    C1097   1.407   1_545 S
C98    C119    1.396   .     A
C98    H311    1.084   .     S
C99    H322    1.084   .     S
C99    C1001   1.399   .     A
C99    C130    1.396   .     A
C100   H333    1.083   .     S
C100   C141    1.402   .     A
C101   C152    1.396   .     A
C101   H344    1.084   .     S
C101   C511    1.399   1_455 S
C102   C163    1.403   .     A
C102   H355    1.083   .     S
C102   C512    1.399   1_455 S
C103   C174    1.397   .     A
C103   H366    1.084   .     S
C103   C513    1.400   .     S
C104   H186    1.083   .     S
C105   H197    1.084   .     S
C105   C1007   1.400   .     S
C106   H208    1.083   .     S
C107   H219    1.084   .     S
C108   O428    1.387   .     S
C108   C114    1.407   .     A
C109   H230    1.083   .     S
C109   C514    1.399   .     A
C110   H241    1.084   .     S
C111   H252    1.083   .     S
C111   C1009   1.399   .     A
C112   C130    1.407   .     A
C112   C985    1.407   .     S
C112   C113    1.470   1_554 S
C113   C141    1.407   .     A
C113   C112    1.470   1_556 S
C113   C1081   1.407   .     S
C114   C115    1.470   1_554 S
C114   C644    1.407   .     S
C115   C119    1.407   .     A
C115   C114    1.470   1_556 S
C115   C655    1.407   .     S
C116   C117    1.470   .     S
C116   C666    1.408   1_455 S
C117   C538    1.407   1_455 A
C118   C997    1.408   1_545 S
C118   C120    1.470   .     S
C119   O429    1.383   .     S
C120   C1052   1.408   1_545 A
C121   O1406   1.279   1_545 A
C121   O466    1.279   .     S
C122   O433    1.280   .     A
C122   O1362   1.280   1_545 S
C123   O872    1.279   1_455 A
C123   O444    1.279   .     S
C124   O381    1.279   .     A
C124   O947    1.279   1_455 S
C125   O874    1.279   .     S
C125   O878    1.279   .     S
C126   O875    1.280   .     S
C126   O879    1.280   .     S
C127   O1368   1.279   .     S
C127   O1372   1.280   .     S
C128   C1001   1.459   .     S
C128   O1369   1.279   .     A
C128   O1374   1.279   .     A
C129   O419    1.276   .     A
C129   C184    1.446   .     S
C129   O391    1.276   .     A
C130   O430    1.383   .     S
C131   O392    1.276   .     A
C131   O420    1.276   .     A
C132   O417    1.277   .     A
C132   O393    1.275   .     A
C133   O418    1.276   .     A
C133   O394    1.276   .     A
C134   O424    1.276   .     A
C134   O395    1.276   .     A
C135   O396    1.276   .     A
C135   O425    1.276   .     A
C136   C182    1.455   .     S
C136   O397    1.276   .     A
C136   O421    1.276   .     A
C137   O423    1.276   .     A
C137   C183    1.457   .     S
C137   O398    1.276   .     A
C138   O399    1.276   .     A
C138   O410    1.276   .     A
C139   O412    1.275   .     A
C139   O401    1.277   .     A
C140   O408    1.276   .     A
C140   O402    1.276   .     A
C141   O431    1.387   .     S
C142   O403    1.276   .     A
C142   O409    1.276   .     A
C143   O415    1.276   .     A
C143   O404    1.276   .     A
C144   O405    1.276   .     A
C144   O416    1.276   .     A
C145   O413    1.276   .     A
C145   O406    1.276   .     A
C146   O414    1.275   .     A
C146   O407    1.276   .     A
C147   C164    1.396   .     A
C147   O443    1.384   .     S
C148   C162    1.396   .     A
C148   O445    1.386   .     S
C149   O446    1.384   .     S
C149   C161    1.398   .     A
C150   C160    1.398   .     A
C150   O447    1.386   .     S
C151   O448    1.386   .     S
C151   C159    1.396   .     A
C152   O432    1.382   .     S
C152   C606    1.407   1_455 S
C153   O449    1.386   .     S
C153   C158    1.396   .     A
C154   C157    1.398   .     A
C154   O450    1.386   .     S
C155   O451    1.386   .     S
C155   C156    1.398   .     A
C156   O452    1.384   .     S
C157   O453    1.383   .     S
C158   O454    1.384   .     S
C159   O456    1.384   .     S
C160   O457    1.384   .     S
C161   C184    1.409   .     A
C161   O458    1.386   .     S
C162   C183    1.409   .     A
C162   O459    1.384   .     S
C163   O434    1.388   .     S
C163   C607    1.407   1_455 S
C164   O460    1.386   .     S
C164   C182    1.411   .     A
C165   C183    1.409   .     A
C165   O461    1.384   .     S
C165   C181    1.396   .     A
C166   O462    1.386   .     S
C166   C182    1.411   .     A
C166   C180    1.396   .     A
C167   O463    1.384   .     S
C167   C179    1.398   .     A
C168   O464    1.386   .     S
C168   C184    1.409   .     A
C168   C178    1.398   .     A
C169   C177    1.396   .     A
C169   O465    1.384   .     S
C170   C176    1.396   .     A
C170   O467    1.386   .     S
C171   O468    1.384   .     S
C171   C175    1.398   .     A
C172   O469    1.386   .     S
C172   C173    1.398   .     A
C173   O470    1.384   .     S
C174   O435    1.382   .     S
C174   C608    1.408   .     S
C175   O471    1.386   .     S
C176   O472    1.384   .     S
C177   O473    1.386   .     S
C178   O474    1.384   .     S
C179   O475    1.386   .     S
C180   O476    1.384   .     S
C181   O379    1.386   .     S
H290   C27     1.110   1_554 S
H294   C29     1.111   1_556 S
H301   C31     1.110   1_554 S
H305   C33     1.111   1_556 S
H312   C36     1.111   1_554 S
H317   C38     1.110   1_556 S
H324   C40     1.111   1_554 S
H329   C42     1.110   1_556 S
O377   Zn480   1.942   .     S
O377   Zn488   1.942   .     S
O377   Zn477   1.942   .     S
O377   Zn1468  1.942   1_545 S
O378   Zn479   1.936   .     S
O378   C1106   1.280   .     S
O380   C615    1.279   .     A
O380   Zn482   1.936   .     S
O381   Zn481   1.936   .     S
O382   Zn491   1.936   .     S
O382   C617    1.279   1_455 S
O383   Zn490   1.936   .     S
O383   C618    1.280   1_455 S
O384   C1111   1.279   1_545 S
O384   Zn485   1.936   .     S
O385   C1112   1.279   1_545 A
O385   Zn477   1.936   .     S
O386   Zn487   1.936   .     S
O386   C617    1.279   1_455 S
O387   C618    1.280   1_455 S
O387   Zn486   1.936   .     S
O388   C1111   1.280   1_545 S
O388   Zn489   1.936   .     S
O389   Zn483   1.942   .     S
O389   Zn1463  1.942   1_545 S
O389   Zn485   1.942   .     S
O389   Zn489   1.942   .     S
O390   C1112   1.279   1_545 A
O390   Zn488   1.936   .     S
O391   Zn480   1.927   .     S
O392   Zn479   1.927   .     S
O393   Zn482   1.939   .     S
O394   Zn481   1.939   .     S
O395   Zn484   1.927   .     S
O396   Zn483   1.927   .     S
O397   Zn478   1.939   .     S
O398   Zn492   1.939   .     S
O399   Zn479   1.939   .     S
O400   Zn478   1.942   .     S
O400   Zn490   1.942   .     S
O400   Zn974   1.942   1_455 S
O400   Zn486   1.942   .     S
O401   Zn480   1.939   .     S
O402   Zn492   1.927   .     S
O403   Zn478   1.927   .     S
O404   Zn483   1.939   .     S
O405   Zn484   1.939   .     S
O406   Zn481   1.927   .     S
O407   Zn482   1.927   .     S
O408   Zn979   1.927   .     S
O409   Zn486   1.927   .     S
O410   Zn1473  1.939   .     S
O411   Zn491   1.942   .     S
O411   Zn487   1.942   .     S
O411   Zn481   1.942   .     S
O411   Zn984   1.942   1_455 S
O412   Zn488   1.939   .     S
O413   Zn491   1.927   .     S
O414   Zn982   1.927   .     S
O415   Zn485   1.939   .     S
O416   Zn1461  1.939   .     S
O417   Zn978   1.939   .     S
O418   Zn487   1.939   .     S
O419   Zn477   1.927   .     S
O420   Zn1469  1.927   .     S
O421   Zn490   1.939   .     S
O422   Zn484   1.936   .     S
O422   C1105   1.279   .     A
O423   Zn983   1.939   .     S
O424   Zn1472  1.927   .     S
O425   Zn489   1.927   .     S
O433   Zn483   1.936   .     S
O444   Zn478   1.936   .     S
O455   Zn492   1.936   .     S
O455   C616    1.279   .     S
O466   Zn480   1.936   .     S
Zn477  O1400   1.939   1_545 S
Zn479  O1373   1.942   .     S
Zn482  O892    1.942   .     S
Zn484  O1361   1.942   .     S
Zn485  O1404   1.927   1_545 S
Zn486  O909    1.939   1_455 S
Zn487  O900    1.927   1_455 S
Zn488  O1408   1.927   1_545 S
Zn489  O1394   1.939   1_545 S
Zn490  O906    1.927   1_455 S
Zn491  O915    1.939   1_455 S
Zn492  O903    1.942   .     S
C493   C571    1.403   .     A
C493   O918    1.388   .     S
C493   C1588   1.407   1_545 S
C494   C596    1.402   .     A
C494   O928    1.388   .     S
C494   C609    1.407   .     S
C495   C623    1.447   .     S
C495   C659    1.405   .     A
C495   C652    1.405   .     A
C496   C624    1.456   .     S
C496   C662    1.410   .     A
C496   C651    1.410   .     A
C497   C650    1.409   .     A
C497   C625    1.457   .     S
C497   C661    1.409   .     A
C498   C664    1.409   .     A
C498   C649    1.405   .     A
C498   C626    1.446   .     S
C499   C648    1.405   .     A
C499   C663    1.405   .     A
C499   C627    1.447   .     S
C500   C637    1.446   .     S
C500   C667    1.409   .     A
C500   C647    1.409   .     A
C501   C638    1.447   .     S
C501   C665    1.406   .     A
C501   C646    1.409   .     A
C502   C630    1.455   .     S
C502   C669    1.411   .     A
C502   C645    1.411   .     A
C503   C668    1.410   .     A
C503   C643    1.411   .     A
C503   C631    1.456   .     S
C504   C642    1.409   .     A
C504   C632    1.446   .     S
C504   C671    1.409   .     A
C505   O929    1.382   .     S
C505   C597    1.396   .     A
C505   C1594   1.408   .     S
C506   C641    1.405   .     A
C506   C634    1.447   .     S
C506   C670    1.405   .     A
C507   C640    1.411   .     A
C507   C635    1.455   .     S
C507   C673    1.411   .     A
C508   C636    1.457   .     S
C508   C672    1.410   .     A
C508   C639    1.410   .     A
C509   C1604   1.459   1_545 S
C509   C1575   1.399   1_545 A
C509   C571    1.399   .     S
C510   C592    1.400   .     A
C510   C619    1.461   .     S
C510   C1566   1.399   .     S
C511   C618    1.461   .     S
C511   C588    1.400   .     A
C511   C101    1.399   1_655 S
C512   C617    1.459   .     S
C512   C590    1.399   .     A
C512   C102    1.399   1_655 S
C513   C616    1.459   .     S
C513   C599    1.400   .     A
C514   C615    1.461   .     S
C514   C596    1.399   .     S
C515   C614    1.461   .     S
C515   C602    1.400   .     A
C515   C1581   1.400   1_545 S
C516   O930    1.388   .     S
C516   C598    1.402   .     A
C516   C612    1.408   .     S
C517   C613    1.460   .     S
C517   C1587   1.399   1_545 A
C517   C598    1.399   .     S
C518   H755    1.116   .     S
C518   O918    1.414   .     S
C518   H766    1.112   .     S
C518   C519    1.521   1_554 S
C519   H777    1.111   .     S
C519   H783    1.111   .     S
C519   C518    1.521   1_556 S
C519   H782    1.110   1_556 S
C520   H784    1.115   .     S
C520   O919    1.412   .     S
C520   H785    1.114   .     S
C520   C521    1.521   1_556 S
C521   H788    1.111   .     S
C521   H787    1.110   .     S
C521   C520    1.521   1_554 S
C521   H786    1.111   1_554 S
C522   O920    1.414   .     S
C522   H790    1.112   .     S
C522   H789    1.116   .     S
C522   C523    1.521   1_554 S
C523   H791    1.111   .     S
C523   H794    1.111   .     S
C523   C522    1.521   1_556 S
C523   H793    1.110   1_556 S
C524   H796    1.114   .     S
C524   H795    1.115   .     S
C524   O921    1.412   .     S
C524   C525    1.521   1_556 S
C525   H799    1.111   .     S
C525   H798    1.111   .     S
C525   C524    1.521   1_554 S
C525   H797    1.111   1_554 S
C526   H801    1.114   .     S
C526   H800    1.115   .     S
C526   O922    1.412   .     S
C526   C528    1.521   1_554 S
C527   C599    1.397   .     A
C527   O931    1.382   .     S
C527   C608    1.408   .     A
C528   H805    1.111   .     S
C528   H802    1.111   .     S
C528   C526    1.521   1_556 S
C528   H804    1.111   1_556 S
C529   H807    1.112   .     S
C529   H806    1.116   .     S
C529   O923    1.414   .     S
C529   C530    1.521   1_556 S
C530   H808    1.111   .     S
C530   H810    1.111   .     S
C530   C529    1.521   1_554 S
C530   H809    1.110   1_554 S
C531   H812    1.114   .     S
C531   O924    1.412   .     S
C531   H811    1.115   .     S
C531   C532    1.521   1_554 S
C532   H815    1.110   .     S
C532   H813    1.111   .     S
C532   C531    1.521   1_556 S
C532   H816    1.111   1_556 S
C533   H818    1.112   .     S
C533   O926    1.414   .     S
C533   H817    1.116   .     S
C533   C534    1.521   1_556 S
C534   H819    1.111   .     S
C534   H820    1.111   .     S
C534   C533    1.521   1_554 S
C534   H821    1.110   1_554 S
C535   C536    1.521   .     S
C535   H822    1.115   .     S
C535   H823    1.114   .     S
C535   O927    1.412   .     S
C536   H827    1.111   .     S
C536   H824    1.111   .     S
C536   H826    1.110   .     S
C537   C539    1.521   .     S
C537   H829    1.112   .     S
C537   H828    1.116   .     S
C537   O928    1.414   .     S
C538   C117    1.407   1_655 A
C538   C601    1.402   .     A
C538   O932    1.388   .     S
C539   H832    1.111   .     S
C539   H830    1.111   .     S
C539   H831    1.110   .     S
C540   O929    1.411   .     S
C540   H834    1.114   .     S
C540   H833    1.115   .     S
C540   C541    1.521   .     S
C541   H838    1.111   .     S
C541   H837    1.110   .     S
C541   H835    1.111   .     S
C542   H840    1.112   .     S
C542   C543    1.521   .     S
C542   O930    1.414   .     S
C542   H839    1.116   .     S
C543   H843    1.111   .     S
C543   H842    1.110   .     S
C543   H841    1.111   .     S
C544   O931    1.411   .     S
C544   H845    1.114   .     S
C544   H844    1.115   .     S
C544   C545    1.521   .     S
C545   H846    1.111   .     S
C545   H849    1.110   .     S
C545   H848    1.111   .     S
C546   O932    1.414   .     S
C546   C547    1.521   .     S
C546   H851    1.112   .     S
C546   H850    1.116   .     S
C547   H854    1.111   .     S
C547   H853    1.110   .     S
C547   H852    1.111   .     S
C548   H856    1.114   .     S
C548   C550    1.521   .     S
C548   H855    1.115   .     S
C548   O933    1.411   .     S
C549   C610    1.408   .     A
C549   C602    1.397   .     A
C549   O933    1.382   .     S
C550   H857    1.110   .     S
C550   H860    1.111   .     S
C550   H859    1.111   .     S
C551   H862    1.112   .     S
C551   O934    1.414   .     S
C551   C552    1.521   .     S
C551   H861    1.116   .     S
C552   H863    1.111   .     S
C552   H865    1.111   .     S
C552   H864    1.110   .     S
C553   H867    1.111   .     S
C553   H866    1.108   .     S
C553   H868    1.112   .     S
C553   O935    1.411   .     S
C554   H680    1.109   .     S
C554   O937    1.415   .     S
C554   H681    1.109   .     S
C554   H679    1.116   .     S
C555   O938    1.411   .     S
C555   H684    1.110   .     S
C555   H682    1.109   .     S
C555   H683    1.112   .     S
C556   H687    1.109   .     S
C556   O939    1.415   .     S
C556   H686    1.110   .     S
C556   H685    1.116   .     S
C557   H691    1.109   .     S
C557   H690    1.116   .     S
C557   O940    1.415   .     S
C557   H688    1.109   .     S
C558   H693    1.109   .     S
C558   H692    1.116   .     S
C558   H694    1.109   .     S
C558   O941    1.415   .     S
C559   H697    1.109   .     S
C559   H695    1.110   .     S
C559   H696    1.116   .     S
C559   O942    1.415   .     S
C560   C1596   1.408   .     A
C560   O934    1.388   .     S
C560   C603    1.402   .     A
C561   H698    1.116   .     S
C561   H699    1.110   .     S
C561   O943    1.415   .     S
C561   H701    1.109   .     S
C562   H704    1.110   .     S
C562   H702    1.109   .     S
C562   H703    1.112   .     S
C562   O944    1.411   .     S
C563   H706    1.109   .     S
C563   O945    1.411   .     S
C563   H705    1.112   .     S
C563   H707    1.110   .     S
C564   H710    1.112   .     S
C564   O946    1.411   .     S
C564   H708    1.108   .     S
C564   H709    1.111   .     S
C565   O948    1.411   .     S
C565   H713    1.108   .     S
C565   H712    1.111   .     S
C565   H714    1.111   .     S
C566   H717    1.110   .     S
C566   H715    1.109   .     S
C566   H716    1.112   .     S
C566   O949    1.411   .     S
C567   H719    1.109   .     S
C567   O950    1.415   .     S
C567   H720    1.109   .     S
C567   H718    1.116   .     S
C568   H724    1.112   .     S
C568   H721    1.108   .     S
C568   H723    1.111   .     S
C568   O951    1.411   .     S
C569   H727    1.109   .     S
C569   H726    1.109   .     S
C569   O952    1.415   .     S
C569   H725    1.116   .     S
C570   H730    1.112   .     S
C570   H728    1.108   .     S
C570   O953    1.411   .     S
C570   H729    1.111   .     S
C571   H677    1.083   .     S
C572   H731    1.116   .     S
C572   H734    1.109   .     S
C572   O954    1.415   .     S
C572   H732    1.109   .     S
C573   H736    1.112   .     S
C573   O955    1.411   .     S
C573   H735    1.109   .     S
C573   H737    1.110   .     S
C574   H740    1.109   .     S
C574   O956    1.415   .     S
C574   H738    1.116   .     S
C574   H739    1.110   .     S
C575   H741    1.108   .     S
C575   H742    1.111   .     S
C575   O957    1.411   .     S
C575   H743    1.112   .     S
C576   H745    1.116   .     S
C576   H747    1.109   .     S
C576   O959    1.415   .     S
C576   H746    1.109   .     S
C577   H749    1.112   .     S
C577   O960    1.411   .     S
C577   H748    1.109   .     S
C577   H750    1.110   .     S
C578   O961    1.415   .     S
C578   H752    1.110   .     S
C578   H753    1.109   .     S
C578   H751    1.116   .     S
C579   O962    1.411   .     S
C579   H754    1.109   .     S
C579   H757    1.110   .     S
C579   H756    1.112   .     S
C580   H760    1.109   .     S
C580   O963    1.415   .     S
C580   H759    1.110   .     S
C580   H758    1.116   .     S
C581   O964    1.411   .     S
C581   H762    1.111   .     S
C581   H763    1.112   .     S
C581   H761    1.108   .     S
C582   H781    1.084   .     S
C582   C589    1.396   .     A
C582   C1494   1.399   1_545 S
C583   H764    1.116   .     S
C583   H767    1.109   .     S
C583   O965    1.415   .     S
C583   H765    1.109   .     S
C584   O966    1.411   .     S
C584   H768    1.109   .     S
C584   H770    1.111   .     S
C584   H769    1.112   .     S
C585   H771    1.116   .     S
C585   H773    1.109   .     S
C585   H772    1.110   .     S
C585   O967    1.415   .     S
C586   O968    1.411   .     S
C586   H774    1.108   .     S
C586   H775    1.111   .     S
C586   H776    1.112   .     S
C587   H780    1.109   .     S
C587   H778    1.116   .     S
C587   H779    1.109   .     S
C587   O871    1.415   .     S
C588   C600    1.402   .     A
C588   H792    1.083   .     S
C589   O919    1.382   .     S
C589   C1589   1.407   1_545 S
C590   C611    1.396   .     A
C590   H803    1.084   .     S
C591   H814    1.084   .     S
C591   C1493   1.399   .     A
C591   C622    1.396   .     A
C592   H825    1.083   .     S
C592   C633    1.402   .     A
C593   C644    1.396   .     A
C593   H836    1.084   .     S
C594   C655    1.403   .     A
C594   H847    1.083   .     S
C595   C666    1.397   .     A
C595   H858    1.084   .     S
C595   C21     1.400   1_655 S
C596   H678    1.083   .     S
C597   H689    1.084   .     S
C597   C1499   1.400   .     S
C598   H700    1.083   .     S
C599   H711    1.084   .     S
C600   O920    1.387   .     S
C600   C606    1.407   .     A
C601   H722    1.083   .     S
C601   C22     1.399   1_655 A
C602   H733    1.084   .     S
C603   H744    1.083   .     S
C603   C1501   1.399   .     A
C604   C622    1.407   .     A
C604   C1477   1.407   .     S
C604   C605    1.470   1_554 S
C605   C633    1.407   .     A
C605   C604    1.470   1_556 S
C605   C1573   1.407   .     S
C606   C607    1.470   1_554 S
C606   C152    1.407   1_655 S
C607   C611    1.407   .     A
C607   C606    1.470   1_556 S
C607   C163    1.407   1_655 S
C608   C609    1.470   .     S
C610   C1489   1.408   1_545 S
C610   C612    1.470   .     S
C611   O921    1.383   .     S
C612   C1544   1.408   1_545 A
C613   O1898   1.279   1_545 A
C613   O958    1.279   .     S
C614   O925    1.280   .     A
C614   O1854   1.280   1_545 S
C615   O936    1.279   .     S
C616   O873    1.279   .     A
C617   O382    1.279   1_655 S
C617   O386    1.279   1_655 S
C618   O383    1.280   1_655 S
C618   O387    1.280   1_655 S
C619   O1860   1.279   .     S
C619   O1864   1.280   .     S
C620   C1493   1.459   .     S
C620   O1861   1.279   .     A
C620   O1866   1.279   .     A
C621   O911    1.276   .     A
C621   C676    1.446   .     S
C621   O883    1.276   .     A
C622   O922    1.383   .     S
C623   O884    1.276   .     A
C623   O912    1.276   .     A
C624   O909    1.277   .     A
C624   O885    1.275   .     A
C625   O910    1.276   .     A
C625   O886    1.276   .     A
C626   O916    1.276   .     A
C626   O887    1.276   .     A
C627   O888    1.276   .     A
C627   O917    1.276   .     A
C628   C674    1.455   .     S
C628   O889    1.276   .     A
C628   O913    1.276   .     A
C629   O915    1.276   .     A
C629   C675    1.457   .     S
C629   O890    1.276   .     A
C630   O891    1.276   .     A
C630   O902    1.276   .     A
C631   O904    1.275   .     A
C631   O893    1.277   .     A
C632   O900    1.276   .     A
C632   O894    1.276   .     A
C633   O923    1.387   .     S
C634   O895    1.276   .     A
C634   O901    1.276   .     A
C635   O907    1.276   .     A
C635   O896    1.276   .     A
C636   O897    1.276   .     A
C636   O908    1.276   .     A
C637   O905    1.276   .     A
C637   O898    1.276   .     A
C638   O906    1.275   .     A
C638   O899    1.276   .     A
C639   C656    1.396   .     A
C639   O935    1.384   .     S
C640   C654    1.396   .     A
C640   O937    1.386   .     S
C641   O938    1.384   .     S
C641   C653    1.398   .     A
C642   C652    1.398   .     A
C642   O939    1.386   .     S
C643   O940    1.386   .     S
C643   C651    1.396   .     A
C644   O924    1.382   .     S
C645   O941    1.386   .     S
C645   C650    1.396   .     A
C646   C649    1.398   .     A
C646   O942    1.386   .     S
C647   O943    1.386   .     S
C647   C648    1.398   .     A
C648   O944    1.384   .     S
C649   O945    1.383   .     S
C650   O946    1.384   .     S
C651   O948    1.384   .     S
C652   O949    1.384   .     S
C653   C676    1.409   .     A
C653   O950    1.386   .     S
C654   C675    1.409   .     A
C654   O951    1.384   .     S
C655   O926    1.388   .     S
C656   O952    1.386   .     S
C656   C674    1.411   .     A
C657   C675    1.409   .     A
C657   O953    1.384   .     S
C657   C673    1.396   .     A
C658   O954    1.386   .     S
C658   C674    1.411   .     A
C658   C672    1.396   .     A
C659   O955    1.384   .     S
C659   C671    1.398   .     A
C660   O956    1.386   .     S
C660   C676    1.409   .     A
C660   C670    1.398   .     A
C661   C669    1.396   .     A
C661   O957    1.384   .     S
C662   C668    1.396   .     A
C662   O959    1.386   .     S
C663   O960    1.384   .     S
C663   C667    1.398   .     A
C664   O961    1.386   .     S
C664   C665    1.398   .     A
C665   O962    1.384   .     S
C666   O927    1.382   .     S
C666   C116    1.408   1_655 S
C667   O963    1.386   .     S
C668   O964    1.384   .     S
C669   O965    1.386   .     S
C670   O966    1.384   .     S
C671   O967    1.386   .     S
C672   O968    1.384   .     S
C673   O871    1.386   .     S
H782   C519    1.110   1_554 S
H786   C521    1.111   1_556 S
H793   C523    1.110   1_554 S
H797   C525    1.111   1_556 S
H804   C528    1.111   1_554 S
H809   C530    1.110   1_556 S
H816   C532    1.111   1_554 S
H821   C534    1.110   1_556 S
O869   Zn972   1.942   .     S
O869   Zn980   1.942   .     S
O869   Zn969   1.942   .     S
O869   Zn1960  1.942   1_545 S
O870   Zn971   1.936   .     S
O870   C1598   1.280   .     S
O872   C123    1.279   1_655 A
O872   Zn974   1.936   .     S
O873   Zn973   1.936   .     S
O874   Zn983   1.936   .     S
O875   Zn982   1.936   .     S
O876   C1603   1.279   1_545 S
O876   Zn977   1.936   .     S
O877   C1604   1.279   1_545 A
O877   Zn969   1.936   .     S
O878   Zn979   1.936   .     S
O879   Zn978   1.936   .     S
O880   C1603   1.280   1_545 S
O880   Zn981   1.936   .     S
O881   Zn975   1.942   .     S
O881   Zn1955  1.942   1_545 S
O881   Zn977   1.942   .     S
O881   Zn981   1.942   .     S
O882   C1604   1.279   1_545 A
O882   Zn980   1.936   .     S
O883   Zn972   1.927   .     S
O884   Zn971   1.927   .     S
O885   Zn974   1.939   .     S
O886   Zn973   1.939   .     S
O887   Zn976   1.927   .     S
O888   Zn975   1.927   .     S
O889   Zn970   1.939   .     S
O890   Zn984   1.939   .     S
O891   Zn971   1.939   .     S
O892   Zn970   1.942   .     S
O892   Zn982   1.942   .     S
O892   Zn978   1.942   .     S
O893   Zn972   1.939   .     S
O894   Zn984   1.927   .     S
O895   Zn970   1.927   .     S
O896   Zn975   1.939   .     S
O897   Zn976   1.939   .     S
O898   Zn973   1.927   .     S
O899   Zn974   1.927   .     S
O900   Zn487   1.927   1_655 S
O901   Zn978   1.927   .     S
O902   Zn1965  1.939   .     S
O903   Zn983   1.942   .     S
O903   Zn979   1.942   .     S
O903   Zn973   1.942   .     S
O904   Zn980   1.939   .     S
O905   Zn983   1.927   .     S
O906   Zn490   1.927   1_655 S
O907   Zn977   1.939   .     S
O908   Zn1953  1.939   .     S
O909   Zn486   1.939   1_655 S
O910   Zn979   1.939   .     S
O911   Zn969   1.927   .     S
O912   Zn1961  1.927   .     S
O913   Zn982   1.939   .     S
O914   Zn976   1.936   .     S
O914   C1597   1.279   .     A
O915   Zn491   1.939   1_655 S
O916   Zn1964  1.927   .     S
O917   Zn981   1.927   .     S
O925   Zn975   1.936   .     S
O936   Zn970   1.936   .     S
O947   Zn984   1.936   .     S
O947   C124    1.279   1_655 S
O958   Zn972   1.936   .     S
Zn969  O1892   1.939   1_545 S
Zn971  O1865   1.942   .     S
Zn974  O400    1.942   1_655 S
Zn976  O1853   1.942   .     S
Zn977  O1896   1.927   1_545 S
Zn980  O1900   1.927   1_545 S
Zn981  O1886   1.939   1_545 S
Zn984  O411    1.942   1_655 S
C985   C1063   1.403   .     A
C985   O1410   1.388   .     S
C986   C1088   1.402   .     A
C986   O1420   1.388   .     S
C986   C1101   1.407   .     S
C987   C1115   1.447   .     S
C987   C1151   1.405   .     A
C987   C1144   1.405   .     A
C988   C1116   1.456   .     S
C988   C1154   1.410   .     A
C988   C1143   1.410   .     A
C989   C1142   1.409   .     A
C989   C1117   1.457   .     S
C989   C1153   1.409   .     A
C990   C1156   1.409   .     A
C990   C1141   1.405   .     A
C990   C1118   1.446   .     S
C991   C1140   1.405   .     A
C991   C1155   1.405   .     A
C991   C1119   1.447   .     S
C992   C1129   1.446   .     S
C992   C1159   1.409   .     A
C992   C1139   1.409   .     A
C993   C1130   1.447   .     S
C993   C1157   1.406   .     A
C993   C1138   1.409   .     A
C994   C1122   1.455   .     S
C994   C1161   1.411   .     A
C994   C1137   1.411   .     A
C995   C1160   1.410   .     A
C995   C1135   1.411   .     A
C995   C1123   1.456   .     S
C996   C1134   1.409   .     A
C996   C1124   1.446   .     S
C996   C1163   1.409   .     A
C997   O1421   1.382   .     S
C997   C1089   1.396   .     A
C997   C118    1.408   1_565 S
C998   C1133   1.405   .     A
C998   C1126   1.447   .     S
C998   C1162   1.405   .     A
C999   C1132   1.411   .     A
C999   C1127   1.455   .     S
C999   C1165   1.411   .     A
C1000  C1128   1.457   .     S
C1000  C1164   1.410   .     A
C1000  C1131   1.410   .     A
C1001  C1063   1.399   .     S
C1002  C1084   1.400   .     A
C1002  C1111   1.461   .     S
C1002  C90     1.399   1_565 S
C1003  C1110   1.461   .     S
C1003  C1080   1.400   .     A
C1003  C1577   1.399   .     S
C1004  C1109   1.459   .     S
C1004  C1082   1.399   .     A
C1004  C1578   1.399   .     S
C1005  C1108   1.459   .     S
C1005  C1091   1.400   .     A
C1005  C1579   1.400   1_455 S
C1006  C1107   1.461   .     S
C1006  C1585   1.399   1_455 A
C1006  C1088   1.399   .     S
C1007  C1106   1.461   .     S
C1007  C1094   1.400   .     A
C1008  O1422   1.388   .     S
C1008  C1090   1.402   .     A
C1008  C1104   1.408   .     S
C1009  C1105   1.460   .     S
C1009  C1090   1.399   .     S
C1010  H1247   1.116   .     S
C1010  O1410   1.414   .     S
C1010  H1258   1.112   .     S
C1010  C1011   1.521   1_554 S
C1011  H1269   1.111   .     S
C1011  H1275   1.111   .     S
C1011  C1010   1.521   1_556 S
C1011  H1274   1.110   1_556 S
C1012  H1276   1.115   .     S
C1012  O1411   1.412   .     S
C1012  H1277   1.114   .     S
C1012  C1013   1.521   1_556 S
C1013  H1280   1.111   .     S
C1013  H1279   1.110   .     S
C1013  C1012   1.521   1_554 S
C1013  H1278   1.111   1_554 S
C1014  O1412   1.414   .     S
C1014  H1282   1.112   .     S
C1014  H1281   1.116   .     S
C1014  C1015   1.521   1_554 S
C1015  H1283   1.111   .     S
C1015  H1286   1.111   .     S
C1015  C1014   1.521   1_556 S
C1015  H1285   1.110   1_556 S
C1016  H1288   1.114   .     S
C1016  H1287   1.115   .     S
C1016  O1413   1.412   .     S
C1016  C1017   1.521   1_556 S
C1017  H1291   1.111   .     S
C1017  H1290   1.111   .     S
C1017  C1016   1.521   1_554 S
C1017  H1289   1.111   1_554 S
C1018  H1293   1.114   .     S
C1018  H1292   1.115   .     S
C1018  O1414   1.412   .     S
C1018  C1020   1.521   1_554 S
C1019  C1091   1.397   .     A
C1019  O1423   1.382   .     S
C1019  C1100   1.408   .     A
C1020  H1297   1.111   .     S
C1020  H1294   1.111   .     S
C1020  C1018   1.521   1_556 S
C1020  H1296   1.111   1_556 S
C1021  H1299   1.112   .     S
C1021  H1298   1.116   .     S
C1021  O1415   1.414   .     S
C1021  C1022   1.521   1_556 S
C1022  H1300   1.111   .     S
C1022  H1302   1.111   .     S
C1022  C1021   1.521   1_554 S
C1022  H1301   1.110   1_554 S
C1023  H1304   1.114   .     S
C1023  O1416   1.412   .     S
C1023  H1303   1.115   .     S
C1023  C1024   1.521   1_554 S
C1024  H1307   1.110   .     S
C1024  H1305   1.111   .     S
C1024  C1023   1.521   1_556 S
C1024  H1308   1.111   1_556 S
C1025  H1310   1.112   .     S
C1025  O1418   1.414   .     S
C1025  H1309   1.116   .     S
C1025  C1026   1.521   1_556 S
C1026  H1311   1.111   .     S
C1026  H1312   1.111   .     S
C1026  C1025   1.521   1_554 S
C1026  H1313   1.110   1_554 S
C1027  C1028   1.521   .     S
C1027  H1314   1.115   .     S
C1027  H1315   1.114   .     S
C1027  O1419   1.412   .     S
C1028  H1319   1.111   .     S
C1028  H1316   1.111   .     S
C1028  H1318   1.110   .     S
C1029  C1031   1.521   .     S
C1029  H1321   1.112   .     S
C1029  H1320   1.116   .     S
C1029  O1420   1.414   .     S
C1030  C1593   1.407   .     A
C1030  C1093   1.402   .     A
C1030  O1424   1.388   .     S
C1031  H1324   1.111   .     S
C1031  H1322   1.111   .     S
C1031  H1323   1.110   .     S
C1032  O1421   1.411   .     S
C1032  H1326   1.114   .     S
C1032  H1325   1.115   .     S
C1032  C1033   1.521   .     S
C1033  H1330   1.111   .     S
C1033  H1329   1.110   .     S
C1033  H1327   1.111   .     S
C1034  H1332   1.112   .     S
C1034  C1035   1.521   .     S
C1034  O1422   1.414   .     S
C1034  H1331   1.116   .     S
C1035  H1335   1.111   .     S
C1035  H1334   1.110   .     S
C1035  H1333   1.111   .     S
C1036  O1423   1.411   .     S
C1036  H1337   1.114   .     S
C1036  H1336   1.115   .     S
C1036  C1037   1.521   .     S
C1037  H1338   1.111   .     S
C1037  H1341   1.110   .     S
C1037  H1340   1.111   .     S
C1038  O1424   1.414   .     S
C1038  C1039   1.521   .     S
C1038  H1343   1.112   .     S
C1038  H1342   1.116   .     S
C1039  H1346   1.111   .     S
C1039  H1345   1.110   .     S
C1039  H1344   1.111   .     S
C1040  H1348   1.114   .     S
C1040  C1042   1.521   .     S
C1040  H1347   1.115   .     S
C1040  O1425   1.411   .     S
C1041  C1102   1.408   .     A
C1041  C1094   1.397   .     A
C1041  O1425   1.382   .     S
C1042  H1349   1.110   .     S
C1042  H1352   1.111   .     S
C1042  H1351   1.111   .     S
C1043  H1354   1.112   .     S
C1043  O1426   1.414   .     S
C1043  C1044   1.521   .     S
C1043  H1353   1.116   .     S
C1044  H1355   1.111   .     S
C1044  H1357   1.111   .     S
C1044  H1356   1.110   .     S
C1045  H1359   1.111   .     S
C1045  H1358   1.108   .     S
C1045  H1360   1.112   .     S
C1045  O1427   1.411   .     S
C1046  H1172   1.109   .     S
C1046  O1429   1.415   .     S
C1046  H1173   1.109   .     S
C1046  H1171   1.116   .     S
C1047  O1430   1.411   .     S
C1047  H1176   1.110   .     S
C1047  H1174   1.109   .     S
C1047  H1175   1.112   .     S
C1048  H1179   1.109   .     S
C1048  O1431   1.415   .     S
C1048  H1178   1.110   .     S
C1048  H1177   1.116   .     S
C1049  H1183   1.109   .     S
C1049  H1182   1.116   .     S
C1049  O1432   1.415   .     S
C1049  H1180   1.109   .     S
C1050  H1185   1.109   .     S
C1050  H1184   1.116   .     S
C1050  H1186   1.109   .     S
C1050  O1433   1.415   .     S
C1051  H1189   1.109   .     S
C1051  H1187   1.110   .     S
C1051  H1188   1.116   .     S
C1051  O1434   1.415   .     S
C1052  C120    1.408   1_565 A
C1052  O1426   1.388   .     S
C1052  C1095   1.402   .     A
C1053  H1190   1.116   .     S
C1053  H1191   1.110   .     S
C1053  O1435   1.415   .     S
C1053  H1193   1.109   .     S
C1054  H1196   1.110   .     S
C1054  H1194   1.109   .     S
C1054  H1195   1.112   .     S
C1054  O1436   1.411   .     S
C1055  H1198   1.109   .     S
C1055  O1437   1.411   .     S
C1055  H1197   1.112   .     S
C1055  H1199   1.110   .     S
C1056  H1202   1.112   .     S
C1056  O1438   1.411   .     S
C1056  H1200   1.108   .     S
C1056  H1201   1.111   .     S
C1057  O1440   1.411   .     S
C1057  H1205   1.108   .     S
C1057  H1204   1.111   .     S
C1057  H1206   1.111   .     S
C1058  H1209   1.110   .     S
C1058  H1207   1.109   .     S
C1058  H1208   1.112   .     S
C1058  O1441   1.411   .     S
C1059  H1211   1.109   .     S
C1059  O1442   1.415   .     S
C1059  H1212   1.109   .     S
C1059  H1210   1.116   .     S
C1060  H1216   1.112   .     S
C1060  H1213   1.108   .     S
C1060  H1215   1.111   .     S
C1060  O1443   1.411   .     S
C1061  H1219   1.109   .     S
C1061  H1218   1.109   .     S
C1061  O1444   1.415   .     S
C1061  H1217   1.116   .     S
C1062  H1222   1.112   .     S
C1062  H1220   1.108   .     S
C1062  O1445   1.411   .     S
C1062  H1221   1.111   .     S
C1063  H1169   1.083   .     S
C1064  H1223   1.116   .     S
C1064  H1226   1.109   .     S
C1064  O1446   1.415   .     S
C1064  H1224   1.109   .     S
C1065  H1228   1.112   .     S
C1065  O1447   1.411   .     S
C1065  H1227   1.109   .     S
C1065  H1229   1.110   .     S
C1066  H1232   1.109   .     S
C1066  O1448   1.415   .     S
C1066  H1230   1.116   .     S
C1066  H1231   1.110   .     S
C1067  H1233   1.108   .     S
C1067  H1234   1.111   .     S
C1067  O1449   1.411   .     S
C1067  H1235   1.112   .     S
C1068  H1237   1.116   .     S
C1068  H1239   1.109   .     S
C1068  O1451   1.415   .     S
C1068  H1238   1.109   .     S
C1069  H1241   1.112   .     S
C1069  O1452   1.411   .     S
C1069  H1240   1.109   .     S
C1069  H1242   1.110   .     S
C1070  O1453   1.415   .     S
C1070  H1244   1.110   .     S
C1070  H1245   1.109   .     S
C1070  H1243   1.116   .     S
C1071  O1454   1.411   .     S
C1071  H1246   1.109   .     S
C1071  H1249   1.110   .     S
C1071  H1248   1.112   .     S
C1072  H1252   1.109   .     S
C1072  O1455   1.415   .     S
C1072  H1251   1.110   .     S
C1072  H1250   1.116   .     S
C1073  O1456   1.411   .     S
C1073  H1254   1.111   .     S
C1073  H1255   1.112   .     S
C1073  H1253   1.108   .     S
C1074  H1273   1.084   .     S
C1074  C1081   1.396   .     A
C1075  H1256   1.116   .     S
C1075  H1259   1.109   .     S
C1075  O1457   1.415   .     S
C1075  H1257   1.109   .     S
C1076  O1458   1.411   .     S
C1076  H1260   1.109   .     S
C1076  H1262   1.111   .     S
C1076  H1261   1.112   .     S
C1077  H1263   1.116   .     S
C1077  H1265   1.109   .     S
C1077  H1264   1.110   .     S
C1077  O1459   1.415   .     S
C1078  O1460   1.411   .     S
C1078  H1266   1.108   .     S
C1078  H1267   1.111   .     S
C1078  H1268   1.112   .     S
C1079  H1272   1.109   .     S
C1079  H1270   1.116   .     S
C1079  H1271   1.109   .     S
C1079  O1363   1.415   .     S
C1080  C1092   1.402   .     A
C1080  H1284   1.083   .     S
C1081  O1411   1.382   .     S
C1082  C1103   1.396   .     A
C1082  H1295   1.084   .     S
C1083  H1306   1.084   .     S
C1083  C17     1.399   1_565 A
C1083  C1114   1.396   .     A
C1084  H1317   1.083   .     S
C1084  C1125   1.402   .     A
C1085  C1136   1.396   .     A
C1085  H1328   1.084   .     S
C1085  C1495   1.399   1_455 S
C1086  C1147   1.403   .     A
C1086  H1339   1.083   .     S
C1086  C1496   1.399   1_455 S
C1087  C1158   1.397   .     A
C1087  H1350   1.084   .     S
C1087  C1497   1.400   .     S
C1088  H1170   1.083   .     S
C1089  H1181   1.084   .     S
C1089  C23     1.400   1_565 S
C1090  H1192   1.083   .     S
C1091  H1203   1.084   .     S
C1092  O1412   1.387   .     S
C1092  C1098   1.407   .     A
C1093  H1214   1.083   .     S
C1093  C1498   1.399   .     A
C1094  H1225   1.084   .     S
C1095  H1236   1.083   .     S
C1095  C25     1.399   1_565 A
C1096  C1114   1.407   .     A
C1096  C1      1.407   1_565 S
C1096  C1097   1.470   1_554 S
C1097  C1125   1.407   .     A
C1097  C1096   1.470   1_556 S
C1097  C97     1.407   1_565 S
C1098  C1099   1.470   1_554 S
C1098  C1628   1.407   .     S
C1099  C1103   1.407   .     A
C1099  C1098   1.470   1_556 S
C1099  C1639   1.407   .     S
C1100  C1101   1.470   .     S
C1100  C1650   1.408   1_455 S
C1101  C1522   1.407   1_455 A
C1102  C1104   1.470   .     S
C1103  O1413   1.383   .     S
C1105  O1450   1.279   .     S
C1106  O1417   1.280   .     A
C1107  O1856   1.279   1_455 A
C1107  O1428   1.279   .     S
C1108  O1365   1.279   .     A
C1108  O1931   1.279   1_455 S
C1109  O1858   1.279   .     S
C1109  O1862   1.279   .     S
C1110  O1859   1.280   .     S
C1110  O1863   1.280   .     S
C1111  O384    1.279   1_565 S
C1111  O388    1.280   1_565 S
C1112  C17     1.459   1_565 S
C1112  O385    1.279   1_565 A
C1112  O390    1.279   1_565 A
C1113  O1403   1.276   .     A
C1113  C1168   1.446   .     S
C1113  O1375   1.276   .     A
C1114  O1414   1.383   .     S
C1115  O1376   1.276   .     A
C1115  O1404   1.276   .     A
C1116  O1401   1.277   .     A
C1116  O1377   1.275   .     A
C1117  O1402   1.276   .     A
C1117  O1378   1.276   .     A
C1118  O1408   1.276   .     A
C1118  O1379   1.276   .     A
C1119  O1380   1.276   .     A
C1119  O1409   1.276   .     A
C1120  C1166   1.455   .     S
C1120  O1381   1.276   .     A
C1120  O1405   1.276   .     A
C1121  O1407   1.276   .     A
C1121  C1167   1.457   .     S
C1121  O1382   1.276   .     A
C1122  O1383   1.276   .     A
C1122  O1394   1.276   .     A
C1123  O1396   1.275   .     A
C1123  O1385   1.277   .     A
C1124  O1392   1.276   .     A
C1124  O1386   1.276   .     A
C1125  O1415   1.387   .     S
C1126  O1387   1.276   .     A
C1126  O1393   1.276   .     A
C1127  O1399   1.276   .     A
C1127  O1388   1.276   .     A
C1128  O1389   1.276   .     A
C1128  O1400   1.276   .     A
C1129  O1397   1.276   .     A
C1129  O1390   1.276   .     A
C1130  O1398   1.275   .     A
C1130  O1391   1.276   .     A
C1131  C1148   1.396   .     A
C1131  O1427   1.384   .     S
C1132  C1146   1.396   .     A
C1132  O1429   1.386   .     S
C1133  O1430   1.384   .     S
C1133  C1145   1.398   .     A
C1134  C1144   1.398   .     A
C1134  O1431   1.386   .     S
C1135  O1432   1.386   .     S
C1135  C1143   1.396   .     A
C1136  O1416   1.382   .     S
C1136  C1590   1.407   1_455 S
C1137  O1433   1.386   .     S
C1137  C1142   1.396   .     A
C1138  C1141   1.398   .     A
C1138  O1434   1.386   .     S
C1139  O1435   1.386   .     S
C1139  C1140   1.398   .     A
C1140  O1436   1.384   .     S
C1141  O1437   1.383   .     S
C1142  O1438   1.384   .     S
C1143  O1440   1.384   .     S
C1144  O1441   1.384   .     S
C1145  C1168   1.409   .     A
C1145  O1442   1.386   .     S
C1146  C1167   1.409   .     A
C1146  O1443   1.384   .     S
C1147  O1418   1.388   .     S
C1147  C1591   1.407   1_455 S
C1148  O1444   1.386   .     S
C1148  C1166   1.411   .     A
C1149  C1167   1.409   .     A
C1149  O1445   1.384   .     S
C1149  C1165   1.396   .     A
C1150  O1446   1.386   .     S
C1150  C1166   1.411   .     A
C1150  C1164   1.396   .     A
C1151  O1447   1.384   .     S
C1151  C1163   1.398   .     A
C1152  O1448   1.386   .     S
C1152  C1168   1.409   .     A
C1152  C1162   1.398   .     A
C1153  C1161   1.396   .     A
C1153  O1449   1.384   .     S
C1154  C1160   1.396   .     A
C1154  O1451   1.386   .     S
C1155  O1452   1.384   .     S
C1155  C1159   1.398   .     A
C1156  O1453   1.386   .     S
C1156  C1157   1.398   .     A
C1157  O1454   1.384   .     S
C1158  O1419   1.382   .     S
C1158  C1592   1.408   .     S
C1159  O1455   1.386   .     S
C1160  O1456   1.384   .     S
C1161  O1457   1.386   .     S
C1162  O1458   1.384   .     S
C1163  O1459   1.386   .     S
C1164  O1460   1.384   .     S
C1165  O1363   1.386   .     S
H1274  C1011   1.110   1_554 S
H1278  C1013   1.111   1_556 S
H1285  C1015   1.110   1_554 S
H1289  C1017   1.111   1_556 S
H1296  C1020   1.111   1_554 S
H1301  C1022   1.110   1_556 S
H1308  C1024   1.111   1_554 S
H1313  C1026   1.110   1_556 S
O1361  Zn1464  1.942   .     S
O1361  Zn1472  1.942   .     S
O1361  Zn1461  1.942   .     S
O1362  Zn1463  1.936   .     S
O1362  C122    1.280   1_565 S
O1364  C1599   1.279   .     A
O1364  Zn1466  1.936   .     S
O1365  Zn1465  1.936   .     S
O1366  Zn1475  1.936   .     S
O1366  C1601   1.279   1_455 S
O1367  Zn1474  1.936   .     S
O1367  C1602   1.280   1_455 S
O1368  Zn1469  1.936   .     S
O1369  Zn1461  1.936   .     S
O1370  Zn1471  1.936   .     S
O1370  C1601   1.279   1_455 S
O1371  C1602   1.280   1_455 S
O1371  Zn1470  1.936   .     S
O1372  Zn1473  1.936   .     S
O1373  Zn1467  1.942   .     S
O1373  Zn1469  1.942   .     S
O1373  Zn1473  1.942   .     S
O1374  Zn1472  1.936   .     S
O1375  Zn1464  1.927   .     S
O1376  Zn1463  1.927   .     S
O1377  Zn1466  1.939   .     S
O1378  Zn1465  1.939   .     S
O1379  Zn1468  1.927   .     S
O1380  Zn1467  1.927   .     S
O1381  Zn1462  1.939   .     S
O1382  Zn1476  1.939   .     S
O1383  Zn1463  1.939   .     S
O1384  Zn1462  1.942   .     S
O1384  Zn1474  1.942   .     S
O1384  Zn1958  1.942   1_455 S
O1384  Zn1470  1.942   .     S
O1385  Zn1464  1.939   .     S
O1386  Zn1476  1.927   .     S
O1387  Zn1462  1.927   .     S
O1388  Zn1467  1.939   .     S
O1389  Zn1468  1.939   .     S
O1390  Zn1465  1.927   .     S
O1391  Zn1466  1.927   .     S
O1392  Zn1963  1.927   .     S
O1393  Zn1470  1.927   .     S
O1394  Zn489   1.939   1_565 S
O1395  Zn1475  1.942   .     S
O1395  Zn1471  1.942   .     S
O1395  Zn1465  1.942   .     S
O1395  Zn1968  1.942   1_455 S
O1396  Zn1472  1.939   .     S
O1397  Zn1475  1.927   .     S
O1398  Zn1966  1.927   .     S
O1399  Zn1469  1.939   .     S
O1400  Zn477   1.939   1_565 S
O1401  Zn1962  1.939   .     S
O1402  Zn1471  1.939   .     S
O1403  Zn1461  1.927   .     S
O1404  Zn485   1.927   1_565 S
O1405  Zn1474  1.939   .     S
O1406  Zn1468  1.936   .     S
O1406  C121    1.279   1_565 A
O1407  Zn1967  1.939   .     S
O1408  Zn488   1.927   1_565 S
O1409  Zn1473  1.927   .     S
O1417  Zn1467  1.936   .     S
O1428  Zn1462  1.936   .     S
O1439  Zn1476  1.936   .     S
O1439  C1600   1.279   .     S
O1450  Zn1464  1.936   .     S
Zn1463 O389    1.942   1_565 S
Zn1466 O1876   1.942   .     S
Zn1468 O377    1.942   1_565 S
Zn1470 O1893   1.939   1_455 S
Zn1471 O1884   1.927   1_455 S
Zn1474 O1890   1.927   1_455 S
Zn1475 O1899   1.939   1_455 S
Zn1476 O1887   1.942   .     S
C1477  C1555   1.403   .     A
C1477  O1902   1.388   .     S
C1478  C1580   1.402   .     A
C1478  O1912   1.388   .     S
C1478  C1593   1.407   .     S
C1479  C1607   1.447   .     S
C1479  C1643   1.405   .     A
C1479  C1636   1.405   .     A
C1480  C1608   1.456   .     S
C1480  C1646   1.410   .     A
C1480  C1635   1.410   .     A
C1481  C1634   1.409   .     A
C1481  C1609   1.457   .     S
C1481  C1645   1.409   .     A
C1482  C1648   1.409   .     A
C1482  C1633   1.405   .     A
C1482  C1610   1.446   .     S
C1483  C1632   1.405   .     A
C1483  C1647   1.405   .     A
C1483  C1611   1.447   .     S
C1484  C1621   1.446   .     S
C1484  C1651   1.409   .     A
C1484  C1631   1.409   .     A
C1485  C1622   1.447   .     S
C1485  C1649   1.406   .     A
C1485  C1630   1.409   .     A
C1486  C1614   1.455   .     S
C1486  C1653   1.411   .     A
C1486  C1629   1.411   .     A
C1487  C1652   1.410   .     A
C1487  C1627   1.411   .     A
C1487  C1615   1.456   .     S
C1488  C1626   1.409   .     A
C1488  C1616   1.446   .     S
C1488  C1655   1.409   .     A
C1489  O1913   1.382   .     S
C1489  C1581   1.396   .     A
C1489  C610    1.408   1_565 S
C1490  C1625   1.405   .     A
C1490  C1618   1.447   .     S
C1490  C1654   1.405   .     A
C1491  C1624   1.411   .     A
C1491  C1619   1.455   .     S
C1491  C1657   1.411   .     A
C1492  C1620   1.457   .     S
C1492  C1656   1.410   .     A
C1492  C1623   1.410   .     A
C1493  C1555   1.399   .     S
C1494  C1576   1.400   .     A
C1494  C1603   1.461   .     S
C1494  C582    1.399   1_565 S
C1495  C1602   1.461   .     S
C1495  C1572   1.400   .     A
C1495  C1085   1.399   1_655 S
C1496  C1601   1.459   .     S
C1496  C1574   1.399   .     A
C1496  C1086   1.399   1_655 S
C1497  C1600   1.459   .     S
C1497  C1583   1.400   .     A
C1498  C1599   1.461   .     S
C1498  C1580   1.399   .     S
C1499  C1598   1.461   .     S
C1499  C1586   1.400   .     A
C1500  O1914   1.388   .     S
C1500  C1582   1.402   .     A
C1500  C1596   1.408   .     S
C1501  C1597   1.460   .     S
C1501  C1582   1.399   .     S
C1502  H1739   1.116   .     S
C1502  O1902   1.414   .     S
C1502  H1750   1.112   .     S
C1502  C1503   1.521   1_554 S
C1503  H1761   1.111   .     S
C1503  H1767   1.111   .     S
C1503  C1502   1.521   1_556 S
C1503  H1766   1.110   1_556 S
C1504  H1768   1.115   .     S
C1504  O1903   1.412   .     S
C1504  H1769   1.114   .     S
C1504  C1505   1.521   1_556 S
C1505  H1772   1.111   .     S
C1505  H1771   1.110   .     S
C1505  C1504   1.521   1_554 S
C1505  H1770   1.111   1_554 S
C1506  O1904   1.414   .     S
C1506  H1774   1.112   .     S
C1506  H1773   1.116   .     S
C1506  C1507   1.521   1_554 S
C1507  H1775   1.111   .     S
C1507  H1778   1.111   .     S
C1507  C1506   1.521   1_556 S
C1507  H1777   1.110   1_556 S
C1508  H1780   1.114   .     S
C1508  H1779   1.115   .     S
C1508  O1905   1.412   .     S
C1508  C1509   1.521   1_556 S
C1509  H1783   1.111   .     S
C1509  H1782   1.111   .     S
C1509  C1508   1.521   1_554 S
C1509  H1781   1.111   1_554 S
C1510  H1785   1.114   .     S
C1510  H1784   1.115   .     S
C1510  O1906   1.412   .     S
C1510  C1512   1.521   1_554 S
C1511  C1583   1.397   .     A
C1511  O1915   1.382   .     S
C1511  C1592   1.408   .     A
C1512  H1789   1.111   .     S
C1512  H1786   1.111   .     S
C1512  C1510   1.521   1_556 S
C1512  H1788   1.111   1_556 S
C1513  H1791   1.112   .     S
C1513  H1790   1.116   .     S
C1513  O1907   1.414   .     S
C1513  C1514   1.521   1_556 S
C1514  H1792   1.111   .     S
C1514  H1794   1.111   .     S
C1514  C1513   1.521   1_554 S
C1514  H1793   1.110   1_554 S
C1515  H1796   1.114   .     S
C1515  O1908   1.412   .     S
C1515  H1795   1.115   .     S
C1515  C1516   1.521   1_554 S
C1516  H1799   1.110   .     S
C1516  H1797   1.111   .     S
C1516  C1515   1.521   1_556 S
C1516  H1800   1.111   1_556 S
C1517  H1802   1.112   .     S
C1517  O1910   1.414   .     S
C1517  H1801   1.116   .     S
C1517  C1518   1.521   1_556 S
C1518  H1803   1.111   .     S
C1518  H1804   1.111   .     S
C1518  C1517   1.521   1_554 S
C1518  H1805   1.110   1_554 S
C1519  C1520   1.521   .     S
C1519  H1806   1.115   .     S
C1519  H1807   1.114   .     S
C1519  O1911   1.412   .     S
C1520  H1811   1.111   .     S
C1520  H1808   1.111   .     S
C1520  H1810   1.110   .     S
C1521  C1523   1.521   .     S
C1521  H1813   1.112   .     S
C1521  H1812   1.116   .     S
C1521  O1912   1.414   .     S
C1522  C1101   1.407   1_655 A
C1522  C1585   1.402   .     A
C1522  O1916   1.388   .     S
C1523  H1816   1.111   .     S
C1523  H1814   1.111   .     S
C1523  H1815   1.110   .     S
C1524  O1913   1.411   .     S
C1524  H1818   1.114   .     S
C1524  H1817   1.115   .     S
C1524  C1525   1.521   .     S
C1525  H1822   1.111   .     S
C1525  H1821   1.110   .     S
C1525  H1819   1.111   .     S
C1526  H1824   1.112   .     S
C1526  C1527   1.521   .     S
C1526  O1914   1.414   .     S
C1526  H1823   1.116   .     S
C1527  H1827   1.111   .     S
C1527  H1826   1.110   .     S
C1527  H1825   1.111   .     S
C1528  O1915   1.411   .     S
C1528  H1829   1.114   .     S
C1528  H1828   1.115   .     S
C1528  C1529   1.521   .     S
C1529  H1830   1.111   .     S
C1529  H1833   1.110   .     S
C1529  H1832   1.111   .     S
C1530  O1916   1.414   .     S
C1530  C1531   1.521   .     S
C1530  H1835   1.112   .     S
C1530  H1834   1.116   .     S
C1531  H1838   1.111   .     S
C1531  H1837   1.110   .     S
C1531  H1836   1.111   .     S
C1532  H1840   1.114   .     S
C1532  C1534   1.521   .     S
C1532  H1839   1.115   .     S
C1532  O1917   1.411   .     S
C1533  C1594   1.408   .     A
C1533  C1586   1.397   .     A
C1533  O1917   1.382   .     S
C1534  H1841   1.110   .     S
C1534  H1844   1.111   .     S
C1534  H1843   1.111   .     S
C1535  H1846   1.112   .     S
C1535  O1918   1.414   .     S
C1535  C1536   1.521   .     S
C1535  H1845   1.116   .     S
C1536  H1847   1.111   .     S
C1536  H1849   1.111   .     S
C1536  H1848   1.110   .     S
C1537  H1851   1.111   .     S
C1537  H1850   1.108   .     S
C1537  H1852   1.112   .     S
C1537  O1919   1.411   .     S
C1538  H1664   1.109   .     S
C1538  O1921   1.415   .     S
C1538  H1665   1.109   .     S
C1538  H1663   1.116   .     S
C1539  O1922   1.411   .     S
C1539  H1668   1.110   .     S
C1539  H1666   1.109   .     S
C1539  H1667   1.112   .     S
C1540  H1671   1.109   .     S
C1540  O1923   1.415   .     S
C1540  H1670   1.110   .     S
C1540  H1669   1.116   .     S
C1541  H1675   1.109   .     S
C1541  H1674   1.116   .     S
C1541  O1924   1.415   .     S
C1541  H1672   1.109   .     S
C1542  H1677   1.109   .     S
C1542  H1676   1.116   .     S
C1542  H1678   1.109   .     S
C1542  O1925   1.415   .     S
C1543  H1681   1.109   .     S
C1543  H1679   1.110   .     S
C1543  H1680   1.116   .     S
C1543  O1926   1.415   .     S
C1544  C612    1.408   1_565 A
C1544  O1918   1.388   .     S
C1544  C1587   1.402   .     A
C1545  H1682   1.116   .     S
C1545  H1683   1.110   .     S
C1545  O1927   1.415   .     S
C1545  H1685   1.109   .     S
C1546  H1688   1.110   .     S
C1546  H1686   1.109   .     S
C1546  H1687   1.112   .     S
C1546  O1928   1.411   .     S
C1547  H1690   1.109   .     S
C1547  O1929   1.411   .     S
C1547  H1689   1.112   .     S
C1547  H1691   1.110   .     S
C1548  H1694   1.112   .     S
C1548  O1930   1.411   .     S
C1548  H1692   1.108   .     S
C1548  H1693   1.111   .     S
C1549  O1932   1.411   .     S
C1549  H1697   1.108   .     S
C1549  H1696   1.111   .     S
C1549  H1698   1.111   .     S
C1550  H1701   1.110   .     S
C1550  H1699   1.109   .     S
C1550  H1700   1.112   .     S
C1550  O1933   1.411   .     S
C1551  H1703   1.109   .     S
C1551  O1934   1.415   .     S
C1551  H1704   1.109   .     S
C1551  H1702   1.116   .     S
C1552  H1708   1.112   .     S
C1552  H1705   1.108   .     S
C1552  H1707   1.111   .     S
C1552  O1935   1.411   .     S
C1553  H1711   1.109   .     S
C1553  H1710   1.109   .     S
C1553  O1936   1.415   .     S
C1553  H1709   1.116   .     S
C1554  H1714   1.112   .     S
C1554  H1712   1.108   .     S
C1554  O1937   1.411   .     S
C1554  H1713   1.111   .     S
C1555  H1661   1.083   .     S
C1556  H1715   1.116   .     S
C1556  H1718   1.109   .     S
C1556  O1938   1.415   .     S
C1556  H1716   1.109   .     S
C1557  H1720   1.112   .     S
C1557  O1939   1.411   .     S
C1557  H1719   1.109   .     S
C1557  H1721   1.110   .     S
C1558  H1724   1.109   .     S
C1558  O1940   1.415   .     S
C1558  H1722   1.116   .     S
C1558  H1723   1.110   .     S
C1559  H1725   1.108   .     S
C1559  H1726   1.111   .     S
C1559  O1941   1.411   .     S
C1559  H1727   1.112   .     S
C1560  H1729   1.116   .     S
C1560  H1731   1.109   .     S
C1560  O1943   1.415   .     S
C1560  H1730   1.109   .     S
C1561  H1733   1.112   .     S
C1561  O1944   1.411   .     S
C1561  H1732   1.109   .     S
C1561  H1734   1.110   .     S
C1562  O1945   1.415   .     S
C1562  H1736   1.110   .     S
C1562  H1737   1.109   .     S
C1562  H1735   1.116   .     S
C1563  O1946   1.411   .     S
C1563  H1738   1.109   .     S
C1563  H1741   1.110   .     S
C1563  H1740   1.112   .     S
C1564  H1744   1.109   .     S
C1564  O1947   1.415   .     S
C1564  H1743   1.110   .     S
C1564  H1742   1.116   .     S
C1565  O1948   1.411   .     S
C1565  H1746   1.111   .     S
C1565  H1747   1.112   .     S
C1565  H1745   1.108   .     S
C1566  H1765   1.084   .     S
C1566  C1573   1.396   .     A
C1567  H1748   1.116   .     S
C1567  H1751   1.109   .     S
C1567  O1949   1.415   .     S
C1567  H1749   1.109   .     S
C1568  O1950   1.411   .     S
C1568  H1752   1.109   .     S
C1568  H1754   1.111   .     S
C1568  H1753   1.112   .     S
C1569  H1755   1.116   .     S
C1569  H1757   1.109   .     S
C1569  H1756   1.110   .     S
C1569  O1951   1.415   .     S
C1570  O1952   1.411   .     S
C1570  H1758   1.108   .     S
C1570  H1759   1.111   .     S
C1570  H1760   1.112   .     S
C1571  H1764   1.109   .     S
C1571  H1762   1.116   .     S
C1571  H1763   1.109   .     S
C1571  O1855   1.415   .     S
C1572  C1584   1.402   .     A
C1572  H1776   1.083   .     S
C1573  O1903   1.382   .     S
C1574  C1595   1.396   .     A
C1574  H1787   1.084   .     S
C1575  H1798   1.084   .     S
C1575  C509    1.399   1_565 A
C1575  C1606   1.396   .     A
C1576  H1809   1.083   .     S
C1576  C1617   1.402   .     A
C1577  C1628   1.396   .     A
C1577  H1820   1.084   .     S
C1578  C1639   1.403   .     A
C1578  H1831   1.083   .     S
C1579  C1650   1.397   .     A
C1579  H1842   1.084   .     S
C1579  C1005   1.400   1_655 S
C1580  H1662   1.083   .     S
C1581  H1673   1.084   .     S
C1581  C515    1.400   1_565 S
C1582  H1684   1.083   .     S
C1583  H1695   1.084   .     S
C1584  O1904   1.387   .     S
C1584  C1590   1.407   .     A
C1585  H1706   1.083   .     S
C1585  C1006   1.399   1_655 A
C1586  H1717   1.084   .     S
C1587  H1728   1.083   .     S
C1587  C517    1.399   1_565 A
C1588  C1606   1.407   .     A
C1588  C493    1.407   1_565 S
C1588  C1589   1.470   1_554 S
C1589  C1617   1.407   .     A
C1589  C1588   1.470   1_556 S
C1589  C589    1.407   1_565 S
C1590  C1591   1.470   1_554 S
C1590  C1136   1.407   1_655 S
C1591  C1595   1.407   .     A
C1591  C1590   1.470   1_556 S
C1591  C1147   1.407   1_655 S
C1592  C1593   1.470   .     S
C1594  C1596   1.470   .     S
C1595  O1905   1.383   .     S
C1597  O1942   1.279   .     S
C1598  O1909   1.280   .     A
C1599  O1920   1.279   .     S
C1600  O1857   1.279   .     A
C1601  O1366   1.279   1_655 S
C1601  O1370   1.279   1_655 S
C1602  O1367   1.280   1_655 S
C1602  O1371   1.280   1_655 S
C1603  O876    1.279   1_565 S
C1603  O880    1.280   1_565 S
C1604  C509    1.459   1_565 S
C1604  O877    1.279   1_565 A
C1604  O882    1.279   1_565 A
C1605  O1895   1.276   .     A
C1605  C1660   1.446   .     S
C1605  O1867   1.276   .     A
C1606  O1906   1.383   .     S
C1607  O1868   1.276   .     A
C1607  O1896   1.276   .     A
C1608  O1893   1.277   .     A
C1608  O1869   1.275   .     A
C1609  O1894   1.276   .     A
C1609  O1870   1.276   .     A
C1610  O1900   1.276   .     A
C1610  O1871   1.276   .     A
C1611  O1872   1.276   .     A
C1611  O1901   1.276   .     A
C1612  C1658   1.455   .     S
C1612  O1873   1.276   .     A
C1612  O1897   1.276   .     A
C1613  O1899   1.276   .     A
C1613  C1659   1.457   .     S
C1613  O1874   1.276   .     A
C1614  O1875   1.276   .     A
C1614  O1886   1.276   .     A
C1615  O1888   1.275   .     A
C1615  O1877   1.277   .     A
C1616  O1884   1.276   .     A
C1616  O1878   1.276   .     A
C1617  O1907   1.387   .     S
C1618  O1879   1.276   .     A
C1618  O1885   1.276   .     A
C1619  O1891   1.276   .     A
C1619  O1880   1.276   .     A
C1620  O1881   1.276   .     A
C1620  O1892   1.276   .     A
C1621  O1889   1.276   .     A
C1621  O1882   1.276   .     A
C1622  O1890   1.275   .     A
C1622  O1883   1.276   .     A
C1623  C1640   1.396   .     A
C1623  O1919   1.384   .     S
C1624  C1638   1.396   .     A
C1624  O1921   1.386   .     S
C1625  O1922   1.384   .     S
C1625  C1637   1.398   .     A
C1626  C1636   1.398   .     A
C1626  O1923   1.386   .     S
C1627  O1924   1.386   .     S
C1627  C1635   1.396   .     A
C1628  O1908   1.382   .     S
C1629  O1925   1.386   .     S
C1629  C1634   1.396   .     A
C1630  C1633   1.398   .     A
C1630  O1926   1.386   .     S
C1631  O1927   1.386   .     S
C1631  C1632   1.398   .     A
C1632  O1928   1.384   .     S
C1633  O1929   1.383   .     S
C1634  O1930   1.384   .     S
C1635  O1932   1.384   .     S
C1636  O1933   1.384   .     S
C1637  C1660   1.409   .     A
C1637  O1934   1.386   .     S
C1638  C1659   1.409   .     A
C1638  O1935   1.384   .     S
C1639  O1910   1.388   .     S
C1640  O1936   1.386   .     S
C1640  C1658   1.411   .     A
C1641  C1659   1.409   .     A
C1641  O1937   1.384   .     S
C1641  C1657   1.396   .     A
C1642  O1938   1.386   .     S
C1642  C1658   1.411   .     A
C1642  C1656   1.396   .     A
C1643  O1939   1.384   .     S
C1643  C1655   1.398   .     A
C1644  O1940   1.386   .     S
C1644  C1660   1.409   .     A
C1644  C1654   1.398   .     A
C1645  C1653   1.396   .     A
C1645  O1941   1.384   .     S
C1646  C1652   1.396   .     A
C1646  O1943   1.386   .     S
C1647  O1944   1.384   .     S
C1647  C1651   1.398   .     A
C1648  O1945   1.386   .     S
C1648  C1649   1.398   .     A
C1649  O1946   1.384   .     S
C1650  O1911   1.382   .     S
C1650  C1100   1.408   1_655 S
C1651  O1947   1.386   .     S
C1652  O1948   1.384   .     S
C1653  O1949   1.386   .     S
C1654  O1950   1.384   .     S
C1655  O1951   1.386   .     S
C1656  O1952   1.384   .     S
C1657  O1855   1.386   .     S
H1766  C1503   1.110   1_554 S
H1770  C1505   1.111   1_556 S
H1777  C1507   1.110   1_554 S
H1781  C1509   1.111   1_556 S
H1788  C1512   1.111   1_554 S
H1793  C1514   1.110   1_556 S
H1800  C1516   1.111   1_554 S
H1805  C1518   1.110   1_556 S
O1853  Zn1956  1.942   .     S
O1853  Zn1964  1.942   .     S
O1853  Zn1953  1.942   .     S
O1854  Zn1955  1.936   .     S
O1854  C614    1.280   1_565 S
O1856  C1107   1.279   1_655 A
O1856  Zn1958  1.936   .     S
O1857  Zn1957  1.936   .     S
O1858  Zn1967  1.936   .     S
O1859  Zn1966  1.936   .     S
O1860  Zn1961  1.936   .     S
O1861  Zn1953  1.936   .     S
O1862  Zn1963  1.936   .     S
O1863  Zn1962  1.936   .     S
O1864  Zn1965  1.936   .     S
O1865  Zn1959  1.942   .     S
O1865  Zn1961  1.942   .     S
O1865  Zn1965  1.942   .     S
O1866  Zn1964  1.936   .     S
O1867  Zn1956  1.927   .     S
O1868  Zn1955  1.927   .     S
O1869  Zn1958  1.939   .     S
O1870  Zn1957  1.939   .     S
O1871  Zn1960  1.927   .     S
O1872  Zn1959  1.927   .     S
O1873  Zn1954  1.939   .     S
O1874  Zn1968  1.939   .     S
O1875  Zn1955  1.939   .     S
O1876  Zn1954  1.942   .     S
O1876  Zn1966  1.942   .     S
O1876  Zn1962  1.942   .     S
O1877  Zn1956  1.939   .     S
O1878  Zn1968  1.927   .     S
O1879  Zn1954  1.927   .     S
O1880  Zn1959  1.939   .     S
O1881  Zn1960  1.939   .     S
O1882  Zn1957  1.927   .     S
O1883  Zn1958  1.927   .     S
O1884  Zn1471  1.927   1_655 S
O1885  Zn1962  1.927   .     S
O1886  Zn981   1.939   1_565 S
O1887  Zn1967  1.942   .     S
O1887  Zn1963  1.942   .     S
O1887  Zn1957  1.942   .     S
O1888  Zn1964  1.939   .     S
O1889  Zn1967  1.927   .     S
O1890  Zn1474  1.927   1_655 S
O1891  Zn1961  1.939   .     S
O1892  Zn969   1.939   1_565 S
O1893  Zn1470  1.939   1_655 S
O1894  Zn1963  1.939   .     S
O1895  Zn1953  1.927   .     S
O1896  Zn977   1.927   1_565 S
O1897  Zn1966  1.939   .     S
O1898  Zn1960  1.936   .     S
O1898  C613    1.279   1_565 A
O1899  Zn1475  1.939   1_655 S
O1900  Zn980   1.927   1_565 S
O1901  Zn1965  1.927   .     S
O1909  Zn1959  1.936   .     S
O1920  Zn1954  1.936   .     S
O1931  Zn1968  1.936   .     S
O1931  C1108   1.279   1_655 S
O1942  Zn1956  1.936   .     S
Zn1955 O881    1.942   1_565 S
Zn1958 O1384   1.942   1_655 S
Zn1960 O869    1.942   1_565 S
Zn1968 O1395   1.942   1_655 S
