data_str_m3_o1_o16_pcu_sym.186
_audit_creation_date              2020-01-03
_audit_creation_method            'Materials Studio'
_symmetry_space_group_name_H-M    'P1'
_symmetry_Int_Tables_number       1
_symmetry_cell_setting            triclinic
loop_
_symmetry_equiv_pos_as_xyz
  x,y,z
_cell_length_a                    29.5152
_cell_length_b                    32.1582
_cell_length_c                    26.1123
_cell_angle_alpha                 90.0975
_cell_angle_beta                  70.3261
_cell_angle_gamma                 90.0318
loop_
_atom_site_label
_atom_site_type_symbol
_atom_site_fract_x
_atom_site_fract_y
_atom_site_fract_z
_atom_site_U_iso_or_equiv
_atom_site_adp_type
_atom_site_occupancy
O1     O     0.12846   0.22775   0.25001   0.00000  Uiso   1.00
O2     O     0.20490   0.22774   0.25001   0.00000  Uiso   1.00
C3     C     0.16665   0.24672   0.25013   0.00000  Uiso   1.00
O4     O     0.10947   0.16666   0.32681   0.00000  Uiso   1.00
O5     O     0.18591   0.16665   0.32681   0.00000  Uiso   1.00
C6     C     0.14010   0.16421   0.35216   0.00000  Uiso   1.00
Zn7    Zn    0.11562   0.16667   0.25000   0.00000  Uiso   1.00
Zn8    Zn    0.21771   0.16666   0.25000   0.00000  Uiso   1.00
O9     O     0.12843   0.10559   0.25000   0.00000  Uiso   1.00
O10    O     0.20488   0.10558   0.25000   0.00000  Uiso   1.00
O11    O     0.14742   0.16668   0.17319   0.00000  Uiso   1.00
O12    O     0.22387   0.16667   0.17319   0.00000  Uiso   1.00
C13    C     0.16661   0.08662   0.25010   0.00000  Uiso   1.00
C14    C     0.19326   0.16629   0.14763   0.00000  Uiso   1.00
C15    C     0.25846   0.12071   0.01041   0.00000  Uiso   1.00
H16    H     0.27748   0.13043   0.08200   0.00000  Uiso   1.00
H17    H     0.29180   0.10454   0.48997   0.00000  Uiso   1.00
C18    C     0.20899   0.15859   0.08936   0.00000  Uiso   1.00
C19    C     0.07677   0.17322   0.44139   0.00000  Uiso   1.00
C20    C     0.06091   0.17158   0.49771   0.00000  Uiso   1.00
C21    C     0.09203   0.15869   0.02501   0.00000  Uiso   1.00
C22    C     0.14072   0.14826   0.49405   0.00000  Uiso   1.00
C23    C     0.15267   0.14155   0.43784   0.00000  Uiso   1.00
C24    C     0.17859   0.14538   0.01577   0.00000  Uiso   1.00
C25    C     0.22232   0.12475   0.48657   0.00000  Uiso   1.00
C26    C     0.22873   0.10944   0.43424   0.00000  Uiso   1.00
C27    C     0.19449   0.11847   0.41003   0.00000  Uiso   1.00
C28    C     0.17555   0.16591   0.06370   0.00000  Uiso   1.00
C29    C     0.25115   0.13653   0.06239   0.00000  Uiso   1.00
C30    C     0.12262   0.15852   0.41108   0.00000  Uiso   1.00
H31    H     0.14608   0.18692   0.08281   0.00000  Uiso   1.00
H32    H     0.05283   0.18552   0.42148   0.00000  Uiso   1.00
H33    H     0.02407   0.18035   0.01994   0.00000  Uiso   1.00
H34    H     0.20079   0.10674   0.36938   0.00000  Uiso   1.00
C35    C     0.20426   0.31209   0.26000   0.00000  Uiso   1.00
H36    H     0.23352   0.29591   0.26771   0.00000  Uiso   1.00
C37    C     0.20423   0.02136   0.26004   0.00000  Uiso   1.00
H38    H     0.23346   0.03761   0.26780   0.00000  Uiso   1.00
C39    C     0.16651   0.04248   0.25040   0.00000  Uiso   1.00
C40    C     0.12872   0.02127   0.24100   0.00000  Uiso   1.00
H41    H     0.09945   0.03743   0.23328   0.00000  Uiso   1.00
C42    C     0.12874   0.31201   0.24101   0.00000  Uiso   1.00
H43    H     0.09947   0.29578   0.23331   0.00000  Uiso   1.00
C44    C     0.16656   0.29087   0.25038   0.00000  Uiso   1.00
C45    C     0.31563   0.13386   0.22889   0.00000  Uiso   1.00
H46    H     0.30266   0.10773   0.21163   0.00000  Uiso   1.00
C47    C     0.03025   0.13388   0.22887   0.00000  Uiso   1.00
H48    H     0.05349   0.10777   0.21162   0.00000  Uiso   1.00
N49    N     0.04760   0.16668   0.25002   0.00000  Uiso   1.00
C50    C     0.01752   0.19926   0.27169   0.00000  Uiso   1.00
H51    H     0.03046   0.22531   0.28911   0.00000  Uiso   1.00
C52    C     0.30291   0.19924   0.27169   0.00000  Uiso   1.00
H53    H     0.27961   0.22527   0.28914   0.00000  Uiso   1.00
N54    N     0.28573   0.16665   0.25001   0.00000  Uiso   1.00
Br55   Br    0.28514   0.07933   0.39166   0.00000  Uiso   1.00
C56    C     0.07088   0.15094   0.08438   0.00000  Uiso   1.00
H57    H     0.08889   0.13055   0.10448   0.00000  Uiso   1.00
O58    O     0.03274   0.16685   0.11139   0.00000  Uiso   1.00
O59    O     0.46179   0.22775   0.25001   0.00000  Uiso   1.00
O60    O     0.53823   0.22774   0.25001   0.00000  Uiso   1.00
C61    C     0.49998   0.24672   0.25013   0.00000  Uiso   1.00
O62    O     0.44280   0.16666   0.32681   0.00000  Uiso   1.00
O63    O     0.51924   0.16665   0.32681   0.00000  Uiso   1.00
C64    C     0.47344   0.16421   0.35216   0.00000  Uiso   1.00
Zn65   Zn    0.44896   0.16667   0.25000   0.00000  Uiso   1.00
Zn66   Zn    0.55104   0.16666   0.25000   0.00000  Uiso   1.00
O67    O     0.46177   0.10559   0.25000   0.00000  Uiso   1.00
O68    O     0.53821   0.10558   0.25000   0.00000  Uiso   1.00
O69    O     0.48076   0.16668   0.17319   0.00000  Uiso   1.00
O70    O     0.55720   0.16667   0.17319   0.00000  Uiso   1.00
C71    C     0.49995   0.08662   0.25010   0.00000  Uiso   1.00
C72    C     0.52659   0.16629   0.14763   0.00000  Uiso   1.00
C73    C     0.59180   0.12071   0.01041   0.00000  Uiso   1.00
H74    H     0.61081   0.13043   0.08200   0.00000  Uiso   1.00
H75    H     0.62514   0.10454   0.48997   0.00000  Uiso   1.00
C76    C     0.54233   0.15859   0.08936   0.00000  Uiso   1.00
C77    C     0.41010   0.17322   0.44139   0.00000  Uiso   1.00
C78    C     0.39424   0.17158   0.49771   0.00000  Uiso   1.00
C79    C     0.42536   0.15869   0.02501   0.00000  Uiso   1.00
C80    C     0.47405   0.14826   0.49405   0.00000  Uiso   1.00
C81    C     0.48600   0.14155   0.43784   0.00000  Uiso   1.00
C82    C     0.51193   0.14538   0.01577   0.00000  Uiso   1.00
C83    C     0.55566   0.12475   0.48657   0.00000  Uiso   1.00
C84    C     0.56207   0.10944   0.43424   0.00000  Uiso   1.00
C85    C     0.52782   0.11847   0.41003   0.00000  Uiso   1.00
C86    C     0.50889   0.16591   0.06370   0.00000  Uiso   1.00
C87    C     0.58448   0.13653   0.06239   0.00000  Uiso   1.00
C88    C     0.45595   0.15852   0.41108   0.00000  Uiso   1.00
H89    H     0.47942   0.18692   0.08281   0.00000  Uiso   1.00
H90    H     0.38616   0.18552   0.42148   0.00000  Uiso   1.00
H91    H     0.35740   0.18035   0.01994   0.00000  Uiso   1.00
H92    H     0.53412   0.10674   0.36938   0.00000  Uiso   1.00
C93    C     0.53759   0.31209   0.26000   0.00000  Uiso   1.00
H94    H     0.56685   0.29591   0.26771   0.00000  Uiso   1.00
C95    C     0.53756   0.02136   0.26004   0.00000  Uiso   1.00
H96    H     0.56679   0.03761   0.26780   0.00000  Uiso   1.00
C97    C     0.49985   0.04248   0.25040   0.00000  Uiso   1.00
C98    C     0.46205   0.02127   0.24100   0.00000  Uiso   1.00
H99    H     0.43279   0.03743   0.23328   0.00000  Uiso   1.00
C100   C     0.46207   0.31201   0.24101   0.00000  Uiso   1.00
H101   H     0.43280   0.29578   0.23331   0.00000  Uiso   1.00
C102   C     0.49989   0.29087   0.25038   0.00000  Uiso   1.00
C103   C     0.64896   0.13386   0.22889   0.00000  Uiso   1.00
H104   H     0.63599   0.10773   0.21163   0.00000  Uiso   1.00
C105   C     0.36359   0.13388   0.22887   0.00000  Uiso   1.00
H106   H     0.38682   0.10777   0.21162   0.00000  Uiso   1.00
N107   N     0.38093   0.16668   0.25002   0.00000  Uiso   1.00
C108   C     0.35086   0.19926   0.27169   0.00000  Uiso   1.00
H109   H     0.36379   0.22531   0.28911   0.00000  Uiso   1.00
C110   C     0.63624   0.19924   0.27169   0.00000  Uiso   1.00
H111   H     0.61294   0.22527   0.28914   0.00000  Uiso   1.00
N112   N     0.61906   0.16665   0.25001   0.00000  Uiso   1.00
Br113  Br    0.61847   0.07933   0.39166   0.00000  Uiso   1.00
C114   C     0.40422   0.15094   0.08438   0.00000  Uiso   1.00
H115   H     0.42222   0.13055   0.10448   0.00000  Uiso   1.00
O116   O     0.36607   0.16685   0.11139   0.00000  Uiso   1.00
O117   O     0.79512   0.22775   0.25001   0.00000  Uiso   1.00
O118   O     0.87157   0.22774   0.25001   0.00000  Uiso   1.00
C119   C     0.83332   0.24672   0.25013   0.00000  Uiso   1.00
O120   O     0.77613   0.16666   0.32681   0.00000  Uiso   1.00
O121   O     0.85258   0.16665   0.32681   0.00000  Uiso   1.00
C122   C     0.80677   0.16421   0.35216   0.00000  Uiso   1.00
Zn123  Zn    0.78229   0.16667   0.25000   0.00000  Uiso   1.00
Zn124  Zn    0.88438   0.16666   0.25000   0.00000  Uiso   1.00
O125   O     0.79510   0.10559   0.25000   0.00000  Uiso   1.00
O126   O     0.87154   0.10558   0.25000   0.00000  Uiso   1.00
O127   O     0.81409   0.16668   0.17319   0.00000  Uiso   1.00
O128   O     0.89053   0.16667   0.17319   0.00000  Uiso   1.00
C129   C     0.83328   0.08662   0.25010   0.00000  Uiso   1.00
C130   C     0.85992   0.16629   0.14763   0.00000  Uiso   1.00
C131   C     0.92513   0.12071   0.01041   0.00000  Uiso   1.00
H132   H     0.94415   0.13043   0.08200   0.00000  Uiso   1.00
H133   H     0.95847   0.10454   0.48997   0.00000  Uiso   1.00
C134   C     0.87566   0.15859   0.08936   0.00000  Uiso   1.00
C135   C     0.74343   0.17322   0.44139   0.00000  Uiso   1.00
C136   C     0.72758   0.17158   0.49771   0.00000  Uiso   1.00
C137   C     0.75869   0.15869   0.02501   0.00000  Uiso   1.00
C138   C     0.80739   0.14826   0.49405   0.00000  Uiso   1.00
C139   C     0.81934   0.14155   0.43784   0.00000  Uiso   1.00
C140   C     0.84526   0.14538   0.01577   0.00000  Uiso   1.00
C141   C     0.88899   0.12475   0.48657   0.00000  Uiso   1.00
C142   C     0.89540   0.10944   0.43424   0.00000  Uiso   1.00
C143   C     0.86116   0.11847   0.41003   0.00000  Uiso   1.00
C144   C     0.84222   0.16591   0.06370   0.00000  Uiso   1.00
C145   C     0.91781   0.13653   0.06239   0.00000  Uiso   1.00
C146   C     0.78929   0.15852   0.41108   0.00000  Uiso   1.00
H147   H     0.81275   0.18692   0.08281   0.00000  Uiso   1.00
H148   H     0.71949   0.18552   0.42148   0.00000  Uiso   1.00
H149   H     0.69074   0.18035   0.01994   0.00000  Uiso   1.00
H150   H     0.86745   0.10674   0.36938   0.00000  Uiso   1.00
C151   C     0.87093   0.31209   0.26000   0.00000  Uiso   1.00
H152   H     0.90019   0.29591   0.26771   0.00000  Uiso   1.00
C153   C     0.87089   0.02136   0.26004   0.00000  Uiso   1.00
H154   H     0.90012   0.03761   0.26780   0.00000  Uiso   1.00
C155   C     0.83318   0.04248   0.25040   0.00000  Uiso   1.00
C156   C     0.79539   0.02127   0.24100   0.00000  Uiso   1.00
H157   H     0.76612   0.03743   0.23328   0.00000  Uiso   1.00
C158   C     0.79540   0.31201   0.24101   0.00000  Uiso   1.00
H159   H     0.76613   0.29578   0.23331   0.00000  Uiso   1.00
C160   C     0.83323   0.29087   0.25038   0.00000  Uiso   1.00
C161   C     0.98230   0.13386   0.22889   0.00000  Uiso   1.00
H162   H     0.96932   0.10773   0.21163   0.00000  Uiso   1.00
C163   C     0.69692   0.13388   0.22887   0.00000  Uiso   1.00
H164   H     0.72015   0.10777   0.21162   0.00000  Uiso   1.00
N165   N     0.71426   0.16668   0.25002   0.00000  Uiso   1.00
C166   C     0.68419   0.19926   0.27169   0.00000  Uiso   1.00
H167   H     0.69712   0.22531   0.28911   0.00000  Uiso   1.00
C168   C     0.96957   0.19924   0.27169   0.00000  Uiso   1.00
H169   H     0.94627   0.22527   0.28914   0.00000  Uiso   1.00
N170   N     0.95239   0.16665   0.25001   0.00000  Uiso   1.00
Br171  Br    0.95180   0.07933   0.39166   0.00000  Uiso   1.00
C172   C     0.73755   0.15094   0.08438   0.00000  Uiso   1.00
H173   H     0.75556   0.13055   0.10448   0.00000  Uiso   1.00
O174   O     0.69941   0.16685   0.11139   0.00000  Uiso   1.00
O175   O     0.12846   0.56108   0.25001   0.00000  Uiso   1.00
O176   O     0.20490   0.56107   0.25001   0.00000  Uiso   1.00
C177   C     0.16665   0.58005   0.25013   0.00000  Uiso   1.00
O178   O     0.10947   0.50000   0.32681   0.00000  Uiso   1.00
O179   O     0.18591   0.49999   0.32681   0.00000  Uiso   1.00
C180   C     0.14010   0.49754   0.35216   0.00000  Uiso   1.00
Zn181  Zn    0.11562   0.50001   0.25000   0.00000  Uiso   1.00
Zn182  Zn    0.21771   0.49999   0.25000   0.00000  Uiso   1.00
O183   O     0.12843   0.43893   0.25000   0.00000  Uiso   1.00
O184   O     0.20488   0.43892   0.25000   0.00000  Uiso   1.00
O185   O     0.14742   0.50001   0.17319   0.00000  Uiso   1.00
O186   O     0.22387   0.50000   0.17319   0.00000  Uiso   1.00
C187   C     0.16661   0.41995   0.25010   0.00000  Uiso   1.00
C188   C     0.19326   0.49963   0.14763   0.00000  Uiso   1.00
C189   C     0.25846   0.45404   0.01041   0.00000  Uiso   1.00
H190   H     0.27748   0.46376   0.08200   0.00000  Uiso   1.00
H191   H     0.29180   0.43787   0.48997   0.00000  Uiso   1.00
C192   C     0.20899   0.49192   0.08936   0.00000  Uiso   1.00
C193   C     0.07677   0.50655   0.44139   0.00000  Uiso   1.00
C194   C     0.06091   0.50491   0.49771   0.00000  Uiso   1.00
C195   C     0.09203   0.49203   0.02501   0.00000  Uiso   1.00
C196   C     0.14072   0.48159   0.49405   0.00000  Uiso   1.00
C197   C     0.15267   0.47488   0.43784   0.00000  Uiso   1.00
C198   C     0.17859   0.47871   0.01577   0.00000  Uiso   1.00
C199   C     0.22232   0.45809   0.48657   0.00000  Uiso   1.00
C200   C     0.22873   0.44277   0.43424   0.00000  Uiso   1.00
C201   C     0.19449   0.45181   0.41003   0.00000  Uiso   1.00
C202   C     0.17555   0.49924   0.06370   0.00000  Uiso   1.00
C203   C     0.25115   0.46987   0.06239   0.00000  Uiso   1.00
C204   C     0.12262   0.49185   0.41108   0.00000  Uiso   1.00
H205   H     0.14608   0.52026   0.08281   0.00000  Uiso   1.00
H206   H     0.05283   0.51885   0.42148   0.00000  Uiso   1.00
H207   H     0.02407   0.51369   0.01994   0.00000  Uiso   1.00
H208   H     0.20079   0.44007   0.36938   0.00000  Uiso   1.00
C209   C     0.20426   0.64542   0.26000   0.00000  Uiso   1.00
H210   H     0.23352   0.62924   0.26771   0.00000  Uiso   1.00
C211   C     0.20423   0.35469   0.26004   0.00000  Uiso   1.00
H212   H     0.23346   0.37095   0.26780   0.00000  Uiso   1.00
C213   C     0.16651   0.37582   0.25040   0.00000  Uiso   1.00
C214   C     0.12872   0.35460   0.24100   0.00000  Uiso   1.00
H215   H     0.09945   0.37077   0.23328   0.00000  Uiso   1.00
C216   C     0.12874   0.64534   0.24101   0.00000  Uiso   1.00
H217   H     0.09947   0.62911   0.23331   0.00000  Uiso   1.00
C218   C     0.16656   0.62420   0.25038   0.00000  Uiso   1.00
C219   C     0.31563   0.46719   0.22889   0.00000  Uiso   1.00
H220   H     0.30266   0.44107   0.21163   0.00000  Uiso   1.00
C221   C     0.03025   0.46721   0.22887   0.00000  Uiso   1.00
H222   H     0.05349   0.44110   0.21162   0.00000  Uiso   1.00
N223   N     0.04760   0.50001   0.25002   0.00000  Uiso   1.00
C224   C     0.01752   0.53259   0.27169   0.00000  Uiso   1.00
H225   H     0.03046   0.55864   0.28911   0.00000  Uiso   1.00
C226   C     0.30291   0.53257   0.27169   0.00000  Uiso   1.00
H227   H     0.27961   0.55861   0.28914   0.00000  Uiso   1.00
N228   N     0.28573   0.49998   0.25001   0.00000  Uiso   1.00
Br229  Br    0.28514   0.41266   0.39166   0.00000  Uiso   1.00
C230   C     0.07088   0.48427   0.08438   0.00000  Uiso   1.00
H231   H     0.08889   0.46389   0.10448   0.00000  Uiso   1.00
O232   O     0.03274   0.50018   0.11139   0.00000  Uiso   1.00
O233   O     0.46179   0.56108   0.25001   0.00000  Uiso   1.00
O234   O     0.53823   0.56107   0.25001   0.00000  Uiso   1.00
C235   C     0.49998   0.58005   0.25013   0.00000  Uiso   1.00
O236   O     0.44280   0.50000   0.32681   0.00000  Uiso   1.00
O237   O     0.51924   0.49999   0.32681   0.00000  Uiso   1.00
C238   C     0.47344   0.49754   0.35216   0.00000  Uiso   1.00
Zn239  Zn    0.44896   0.50001   0.25000   0.00000  Uiso   1.00
Zn240  Zn    0.55104   0.49999   0.25000   0.00000  Uiso   1.00
O241   O     0.46177   0.43893   0.25000   0.00000  Uiso   1.00
O242   O     0.53821   0.43892   0.25000   0.00000  Uiso   1.00
O243   O     0.48076   0.50001   0.17319   0.00000  Uiso   1.00
O244   O     0.55720   0.50000   0.17319   0.00000  Uiso   1.00
C245   C     0.49995   0.41995   0.25010   0.00000  Uiso   1.00
C246   C     0.52659   0.49963   0.14763   0.00000  Uiso   1.00
C247   C     0.59180   0.45404   0.01041   0.00000  Uiso   1.00
H248   H     0.61081   0.46376   0.08200   0.00000  Uiso   1.00
H249   H     0.62514   0.43787   0.48997   0.00000  Uiso   1.00
C250   C     0.54233   0.49192   0.08936   0.00000  Uiso   1.00
C251   C     0.41010   0.50655   0.44139   0.00000  Uiso   1.00
C252   C     0.39424   0.50491   0.49771   0.00000  Uiso   1.00
C253   C     0.42536   0.49203   0.02501   0.00000  Uiso   1.00
C254   C     0.47405   0.48159   0.49405   0.00000  Uiso   1.00
C255   C     0.48600   0.47488   0.43784   0.00000  Uiso   1.00
C256   C     0.51193   0.47871   0.01577   0.00000  Uiso   1.00
C257   C     0.55566   0.45809   0.48657   0.00000  Uiso   1.00
C258   C     0.56207   0.44277   0.43424   0.00000  Uiso   1.00
C259   C     0.52782   0.45181   0.41003   0.00000  Uiso   1.00
C260   C     0.50889   0.49924   0.06370   0.00000  Uiso   1.00
C261   C     0.58448   0.46987   0.06239   0.00000  Uiso   1.00
C262   C     0.45595   0.49185   0.41108   0.00000  Uiso   1.00
H263   H     0.47942   0.52026   0.08281   0.00000  Uiso   1.00
H264   H     0.38616   0.51885   0.42148   0.00000  Uiso   1.00
H265   H     0.35740   0.51369   0.01994   0.00000  Uiso   1.00
H266   H     0.53412   0.44007   0.36938   0.00000  Uiso   1.00
C267   C     0.53759   0.64542   0.26000   0.00000  Uiso   1.00
H268   H     0.56685   0.62924   0.26771   0.00000  Uiso   1.00
C269   C     0.53756   0.35469   0.26004   0.00000  Uiso   1.00
H270   H     0.56679   0.37095   0.26780   0.00000  Uiso   1.00
C271   C     0.49985   0.37582   0.25040   0.00000  Uiso   1.00
C272   C     0.46205   0.35460   0.24100   0.00000  Uiso   1.00
H273   H     0.43279   0.37077   0.23328   0.00000  Uiso   1.00
C274   C     0.46207   0.64534   0.24101   0.00000  Uiso   1.00
H275   H     0.43280   0.62911   0.23331   0.00000  Uiso   1.00
C276   C     0.49989   0.62420   0.25038   0.00000  Uiso   1.00
C277   C     0.64896   0.46719   0.22889   0.00000  Uiso   1.00
H278   H     0.63599   0.44107   0.21163   0.00000  Uiso   1.00
C279   C     0.36359   0.46721   0.22887   0.00000  Uiso   1.00
H280   H     0.38682   0.44110   0.21162   0.00000  Uiso   1.00
N281   N     0.38093   0.50001   0.25002   0.00000  Uiso   1.00
C282   C     0.35086   0.53259   0.27169   0.00000  Uiso   1.00
H283   H     0.36379   0.55864   0.28911   0.00000  Uiso   1.00
C284   C     0.63624   0.53257   0.27169   0.00000  Uiso   1.00
H285   H     0.61294   0.55861   0.28914   0.00000  Uiso   1.00
N286   N     0.61906   0.49998   0.25001   0.00000  Uiso   1.00
Br287  Br    0.61847   0.41266   0.39166   0.00000  Uiso   1.00
C288   C     0.40422   0.48427   0.08438   0.00000  Uiso   1.00
H289   H     0.42222   0.46389   0.10448   0.00000  Uiso   1.00
O290   O     0.36607   0.50018   0.11139   0.00000  Uiso   1.00
O291   O     0.79512   0.56108   0.25001   0.00000  Uiso   1.00
O292   O     0.87157   0.56107   0.25001   0.00000  Uiso   1.00
C293   C     0.83332   0.58005   0.25013   0.00000  Uiso   1.00
O294   O     0.77613   0.50000   0.32681   0.00000  Uiso   1.00
O295   O     0.85258   0.49999   0.32681   0.00000  Uiso   1.00
C296   C     0.80677   0.49754   0.35216   0.00000  Uiso   1.00
Zn297  Zn    0.78229   0.50001   0.25000   0.00000  Uiso   1.00
Zn298  Zn    0.88438   0.49999   0.25000   0.00000  Uiso   1.00
O299   O     0.79510   0.43893   0.25000   0.00000  Uiso   1.00
O300   O     0.87154   0.43892   0.25000   0.00000  Uiso   1.00
O301   O     0.81409   0.50001   0.17319   0.00000  Uiso   1.00
O302   O     0.89053   0.50000   0.17319   0.00000  Uiso   1.00
C303   C     0.83328   0.41995   0.25010   0.00000  Uiso   1.00
C304   C     0.85992   0.49963   0.14763   0.00000  Uiso   1.00
C305   C     0.92513   0.45404   0.01041   0.00000  Uiso   1.00
H306   H     0.94415   0.46376   0.08200   0.00000  Uiso   1.00
H307   H     0.95847   0.43787   0.48997   0.00000  Uiso   1.00
C308   C     0.87566   0.49192   0.08936   0.00000  Uiso   1.00
C309   C     0.74343   0.50655   0.44139   0.00000  Uiso   1.00
C310   C     0.72758   0.50491   0.49771   0.00000  Uiso   1.00
C311   C     0.75869   0.49203   0.02501   0.00000  Uiso   1.00
C312   C     0.80739   0.48159   0.49405   0.00000  Uiso   1.00
C313   C     0.81934   0.47488   0.43784   0.00000  Uiso   1.00
C314   C     0.84526   0.47871   0.01577   0.00000  Uiso   1.00
C315   C     0.88899   0.45809   0.48657   0.00000  Uiso   1.00
C316   C     0.89540   0.44277   0.43424   0.00000  Uiso   1.00
C317   C     0.86116   0.45181   0.41003   0.00000  Uiso   1.00
C318   C     0.84222   0.49924   0.06370   0.00000  Uiso   1.00
C319   C     0.91781   0.46987   0.06239   0.00000  Uiso   1.00
C320   C     0.78929   0.49185   0.41108   0.00000  Uiso   1.00
H321   H     0.81275   0.52026   0.08281   0.00000  Uiso   1.00
H322   H     0.71949   0.51885   0.42148   0.00000  Uiso   1.00
H323   H     0.69074   0.51369   0.01994   0.00000  Uiso   1.00
H324   H     0.86745   0.44007   0.36938   0.00000  Uiso   1.00
C325   C     0.87093   0.64542   0.26000   0.00000  Uiso   1.00
H326   H     0.90019   0.62924   0.26771   0.00000  Uiso   1.00
C327   C     0.87089   0.35469   0.26004   0.00000  Uiso   1.00
H328   H     0.90012   0.37095   0.26780   0.00000  Uiso   1.00
C329   C     0.83318   0.37582   0.25040   0.00000  Uiso   1.00
C330   C     0.79539   0.35460   0.24100   0.00000  Uiso   1.00
H331   H     0.76612   0.37077   0.23328   0.00000  Uiso   1.00
C332   C     0.79540   0.64534   0.24101   0.00000  Uiso   1.00
H333   H     0.76613   0.62911   0.23331   0.00000  Uiso   1.00
C334   C     0.83323   0.62420   0.25038   0.00000  Uiso   1.00
C335   C     0.98230   0.46719   0.22889   0.00000  Uiso   1.00
H336   H     0.96932   0.44107   0.21163   0.00000  Uiso   1.00
C337   C     0.69692   0.46721   0.22887   0.00000  Uiso   1.00
H338   H     0.72015   0.44110   0.21162   0.00000  Uiso   1.00
N339   N     0.71426   0.50001   0.25002   0.00000  Uiso   1.00
C340   C     0.68419   0.53259   0.27169   0.00000  Uiso   1.00
H341   H     0.69712   0.55864   0.28911   0.00000  Uiso   1.00
C342   C     0.96957   0.53257   0.27169   0.00000  Uiso   1.00
H343   H     0.94627   0.55861   0.28914   0.00000  Uiso   1.00
N344   N     0.95239   0.49998   0.25001   0.00000  Uiso   1.00
Br345  Br    0.95180   0.41266   0.39166   0.00000  Uiso   1.00
C346   C     0.73755   0.48427   0.08438   0.00000  Uiso   1.00
H347   H     0.75556   0.46389   0.10448   0.00000  Uiso   1.00
O348   O     0.69941   0.50018   0.11139   0.00000  Uiso   1.00
O349   O     0.12846   0.89442   0.25001   0.00000  Uiso   1.00
O350   O     0.20490   0.89441   0.25001   0.00000  Uiso   1.00
C351   C     0.16665   0.91339   0.25013   0.00000  Uiso   1.00
O352   O     0.10947   0.83333   0.32681   0.00000  Uiso   1.00
O353   O     0.18591   0.83332   0.32681   0.00000  Uiso   1.00
C354   C     0.14010   0.83088   0.35216   0.00000  Uiso   1.00
Zn355  Zn    0.11562   0.83334   0.25000   0.00000  Uiso   1.00
Zn356  Zn    0.21771   0.83333   0.25000   0.00000  Uiso   1.00
O357   O     0.12843   0.77226   0.25000   0.00000  Uiso   1.00
O358   O     0.20488   0.77225   0.25000   0.00000  Uiso   1.00
O359   O     0.14742   0.83335   0.17319   0.00000  Uiso   1.00
O360   O     0.22387   0.83334   0.17319   0.00000  Uiso   1.00
C361   C     0.16661   0.75329   0.25010   0.00000  Uiso   1.00
C362   C     0.19326   0.83296   0.14763   0.00000  Uiso   1.00
C363   C     0.25846   0.78737   0.01041   0.00000  Uiso   1.00
H364   H     0.27748   0.79710   0.08200   0.00000  Uiso   1.00
H365   H     0.29180   0.77120   0.48997   0.00000  Uiso   1.00
C366   C     0.20899   0.82525   0.08936   0.00000  Uiso   1.00
C367   C     0.07677   0.83989   0.44139   0.00000  Uiso   1.00
C368   C     0.06091   0.83824   0.49771   0.00000  Uiso   1.00
C369   C     0.09203   0.82536   0.02501   0.00000  Uiso   1.00
C370   C     0.14072   0.81492   0.49405   0.00000  Uiso   1.00
C371   C     0.15267   0.80822   0.43784   0.00000  Uiso   1.00
C372   C     0.17859   0.81205   0.01577   0.00000  Uiso   1.00
C373   C     0.22232   0.79142   0.48657   0.00000  Uiso   1.00
C374   C     0.22873   0.77610   0.43424   0.00000  Uiso   1.00
C375   C     0.19449   0.78514   0.41003   0.00000  Uiso   1.00
C376   C     0.17555   0.83257   0.06370   0.00000  Uiso   1.00
C377   C     0.25115   0.80320   0.06239   0.00000  Uiso   1.00
C378   C     0.12262   0.82518   0.41108   0.00000  Uiso   1.00
H379   H     0.14608   0.85359   0.08281   0.00000  Uiso   1.00
H380   H     0.05283   0.85218   0.42148   0.00000  Uiso   1.00
H381   H     0.02407   0.84702   0.01994   0.00000  Uiso   1.00
H382   H     0.20079   0.77341   0.36938   0.00000  Uiso   1.00
C383   C     0.20426   0.97876   0.26000   0.00000  Uiso   1.00
H384   H     0.23352   0.96258   0.26771   0.00000  Uiso   1.00
C385   C     0.20423   0.68803   0.26004   0.00000  Uiso   1.00
H386   H     0.23346   0.70428   0.26780   0.00000  Uiso   1.00
C387   C     0.16651   0.70915   0.25040   0.00000  Uiso   1.00
C388   C     0.12872   0.68793   0.24100   0.00000  Uiso   1.00
H389   H     0.09945   0.70410   0.23328   0.00000  Uiso   1.00
C390   C     0.12874   0.97868   0.24101   0.00000  Uiso   1.00
H391   H     0.09947   0.96244   0.23331   0.00000  Uiso   1.00
C392   C     0.16656   0.95754   0.25038   0.00000  Uiso   1.00
C393   C     0.31563   0.80052   0.22889   0.00000  Uiso   1.00
H394   H     0.30266   0.77440   0.21163   0.00000  Uiso   1.00
C395   C     0.03025   0.80055   0.22887   0.00000  Uiso   1.00
H396   H     0.05349   0.77444   0.21162   0.00000  Uiso   1.00
N397   N     0.04760   0.83334   0.25002   0.00000  Uiso   1.00
C398   C     0.01752   0.86592   0.27169   0.00000  Uiso   1.00
H399   H     0.03046   0.89198   0.28911   0.00000  Uiso   1.00
C400   C     0.30291   0.86590   0.27169   0.00000  Uiso   1.00
H401   H     0.27961   0.89194   0.28914   0.00000  Uiso   1.00
N402   N     0.28573   0.83331   0.25001   0.00000  Uiso   1.00
Br403  Br    0.28514   0.74599   0.39166   0.00000  Uiso   1.00
C404   C     0.07088   0.81760   0.08438   0.00000  Uiso   1.00
H405   H     0.08889   0.79722   0.10448   0.00000  Uiso   1.00
O406   O     0.03274   0.83351   0.11139   0.00000  Uiso   1.00
O407   O     0.46179   0.89442   0.25001   0.00000  Uiso   1.00
O408   O     0.53823   0.89441   0.25001   0.00000  Uiso   1.00
C409   C     0.49998   0.91339   0.25013   0.00000  Uiso   1.00
O410   O     0.44280   0.83333   0.32681   0.00000  Uiso   1.00
O411   O     0.51924   0.83332   0.32681   0.00000  Uiso   1.00
C412   C     0.47344   0.83088   0.35216   0.00000  Uiso   1.00
Zn413  Zn    0.44896   0.83334   0.25000   0.00000  Uiso   1.00
Zn414  Zn    0.55104   0.83333   0.25000   0.00000  Uiso   1.00
O415   O     0.46177   0.77226   0.25000   0.00000  Uiso   1.00
O416   O     0.53821   0.77225   0.25000   0.00000  Uiso   1.00
O417   O     0.48076   0.83335   0.17319   0.00000  Uiso   1.00
O418   O     0.55720   0.83334   0.17319   0.00000  Uiso   1.00
C419   C     0.49995   0.75329   0.25010   0.00000  Uiso   1.00
C420   C     0.52659   0.83296   0.14763   0.00000  Uiso   1.00
C421   C     0.59180   0.78737   0.01041   0.00000  Uiso   1.00
H422   H     0.61081   0.79710   0.08200   0.00000  Uiso   1.00
H423   H     0.62514   0.77120   0.48997   0.00000  Uiso   1.00
C424   C     0.54233   0.82525   0.08936   0.00000  Uiso   1.00
C425   C     0.41010   0.83989   0.44139   0.00000  Uiso   1.00
C426   C     0.39424   0.83824   0.49771   0.00000  Uiso   1.00
C427   C     0.42536   0.82536   0.02501   0.00000  Uiso   1.00
C428   C     0.47405   0.81492   0.49405   0.00000  Uiso   1.00
C429   C     0.48600   0.80822   0.43784   0.00000  Uiso   1.00
C430   C     0.51193   0.81205   0.01577   0.00000  Uiso   1.00
C431   C     0.55566   0.79142   0.48657   0.00000  Uiso   1.00
C432   C     0.56207   0.77610   0.43424   0.00000  Uiso   1.00
C433   C     0.52782   0.78514   0.41003   0.00000  Uiso   1.00
C434   C     0.50889   0.83257   0.06370   0.00000  Uiso   1.00
C435   C     0.58448   0.80320   0.06239   0.00000  Uiso   1.00
C436   C     0.45595   0.82518   0.41108   0.00000  Uiso   1.00
H437   H     0.47942   0.85359   0.08281   0.00000  Uiso   1.00
H438   H     0.38616   0.85218   0.42148   0.00000  Uiso   1.00
H439   H     0.35740   0.84702   0.01994   0.00000  Uiso   1.00
H440   H     0.53412   0.77341   0.36938   0.00000  Uiso   1.00
C441   C     0.53759   0.97876   0.26000   0.00000  Uiso   1.00
H442   H     0.56685   0.96258   0.26771   0.00000  Uiso   1.00
C443   C     0.53756   0.68803   0.26004   0.00000  Uiso   1.00
H444   H     0.56679   0.70428   0.26780   0.00000  Uiso   1.00
C445   C     0.49985   0.70915   0.25040   0.00000  Uiso   1.00
C446   C     0.46205   0.68793   0.24100   0.00000  Uiso   1.00
H447   H     0.43279   0.70410   0.23328   0.00000  Uiso   1.00
C448   C     0.46207   0.97868   0.24101   0.00000  Uiso   1.00
H449   H     0.43280   0.96244   0.23331   0.00000  Uiso   1.00
C450   C     0.49989   0.95754   0.25038   0.00000  Uiso   1.00
C451   C     0.64896   0.80052   0.22889   0.00000  Uiso   1.00
H452   H     0.63599   0.77440   0.21163   0.00000  Uiso   1.00
C453   C     0.36359   0.80055   0.22887   0.00000  Uiso   1.00
H454   H     0.38682   0.77444   0.21162   0.00000  Uiso   1.00
N455   N     0.38093   0.83334   0.25002   0.00000  Uiso   1.00
C456   C     0.35086   0.86592   0.27169   0.00000  Uiso   1.00
H457   H     0.36379   0.89198   0.28911   0.00000  Uiso   1.00
C458   C     0.63624   0.86590   0.27169   0.00000  Uiso   1.00
H459   H     0.61294   0.89194   0.28914   0.00000  Uiso   1.00
N460   N     0.61906   0.83331   0.25001   0.00000  Uiso   1.00
Br461  Br    0.61847   0.74599   0.39166   0.00000  Uiso   1.00
C462   C     0.40422   0.81760   0.08438   0.00000  Uiso   1.00
H463   H     0.42222   0.79722   0.10448   0.00000  Uiso   1.00
O464   O     0.36607   0.83351   0.11139   0.00000  Uiso   1.00
O465   O     0.79512   0.89442   0.25001   0.00000  Uiso   1.00
O466   O     0.87157   0.89441   0.25001   0.00000  Uiso   1.00
C467   C     0.83332   0.91339   0.25013   0.00000  Uiso   1.00
O468   O     0.77613   0.83333   0.32681   0.00000  Uiso   1.00
O469   O     0.85258   0.83332   0.32681   0.00000  Uiso   1.00
C470   C     0.80677   0.83088   0.35216   0.00000  Uiso   1.00
Zn471  Zn    0.78229   0.83334   0.25000   0.00000  Uiso   1.00
Zn472  Zn    0.88438   0.83333   0.25000   0.00000  Uiso   1.00
O473   O     0.79510   0.77226   0.25000   0.00000  Uiso   1.00
O474   O     0.87154   0.77225   0.25000   0.00000  Uiso   1.00
O475   O     0.81409   0.83335   0.17319   0.00000  Uiso   1.00
O476   O     0.89053   0.83334   0.17319   0.00000  Uiso   1.00
C477   C     0.83328   0.75329   0.25010   0.00000  Uiso   1.00
C478   C     0.85992   0.83296   0.14763   0.00000  Uiso   1.00
C479   C     0.92513   0.78737   0.01041   0.00000  Uiso   1.00
H480   H     0.94415   0.79710   0.08200   0.00000  Uiso   1.00
H481   H     0.95847   0.77120   0.48997   0.00000  Uiso   1.00
C482   C     0.87566   0.82525   0.08936   0.00000  Uiso   1.00
C483   C     0.74343   0.83989   0.44139   0.00000  Uiso   1.00
C484   C     0.72758   0.83824   0.49771   0.00000  Uiso   1.00
C485   C     0.75869   0.82536   0.02501   0.00000  Uiso   1.00
C486   C     0.80739   0.81492   0.49405   0.00000  Uiso   1.00
C487   C     0.81934   0.80822   0.43784   0.00000  Uiso   1.00
C488   C     0.84526   0.81205   0.01577   0.00000  Uiso   1.00
C489   C     0.88899   0.79142   0.48657   0.00000  Uiso   1.00
C490   C     0.89540   0.77610   0.43424   0.00000  Uiso   1.00
C491   C     0.86116   0.78514   0.41003   0.00000  Uiso   1.00
C492   C     0.84222   0.83257   0.06370   0.00000  Uiso   1.00
C493   C     0.91781   0.80320   0.06239   0.00000  Uiso   1.00
C494   C     0.78929   0.82518   0.41108   0.00000  Uiso   1.00
H495   H     0.81275   0.85359   0.08281   0.00000  Uiso   1.00
H496   H     0.71949   0.85218   0.42148   0.00000  Uiso   1.00
H497   H     0.69074   0.84702   0.01994   0.00000  Uiso   1.00
H498   H     0.86745   0.77341   0.36938   0.00000  Uiso   1.00
C499   C     0.87093   0.97876   0.26000   0.00000  Uiso   1.00
H500   H     0.90019   0.96258   0.26771   0.00000  Uiso   1.00
C501   C     0.87089   0.68803   0.26004   0.00000  Uiso   1.00
H502   H     0.90012   0.70428   0.26780   0.00000  Uiso   1.00
C503   C     0.83318   0.70915   0.25040   0.00000  Uiso   1.00
C504   C     0.79539   0.68793   0.24100   0.00000  Uiso   1.00
H505   H     0.76612   0.70410   0.23328   0.00000  Uiso   1.00
C506   C     0.79540   0.97868   0.24101   0.00000  Uiso   1.00
H507   H     0.76613   0.96244   0.23331   0.00000  Uiso   1.00
C508   C     0.83323   0.95754   0.25038   0.00000  Uiso   1.00
C509   C     0.98230   0.80052   0.22889   0.00000  Uiso   1.00
H510   H     0.96932   0.77440   0.21163   0.00000  Uiso   1.00
C511   C     0.69692   0.80055   0.22887   0.00000  Uiso   1.00
H512   H     0.72015   0.77444   0.21162   0.00000  Uiso   1.00
N513   N     0.71426   0.83334   0.25002   0.00000  Uiso   1.00
C514   C     0.68419   0.86592   0.27169   0.00000  Uiso   1.00
H515   H     0.69712   0.89198   0.28911   0.00000  Uiso   1.00
C516   C     0.96957   0.86590   0.27169   0.00000  Uiso   1.00
H517   H     0.94627   0.89194   0.28914   0.00000  Uiso   1.00
N518   N     0.95239   0.83331   0.25001   0.00000  Uiso   1.00
Br519  Br    0.95180   0.74599   0.39166   0.00000  Uiso   1.00
C520   C     0.73755   0.81760   0.08438   0.00000  Uiso   1.00
H521   H     0.75556   0.79722   0.10448   0.00000  Uiso   1.00
O522   O     0.69941   0.83351   0.11139   0.00000  Uiso   1.00
O523   O     0.12846   0.22775   0.75001   0.00000  Uiso   1.00
O524   O     0.20490   0.22774   0.75001   0.00000  Uiso   1.00
C525   C     0.16665   0.24672   0.75013   0.00000  Uiso   1.00
O526   O     0.10947   0.16666   0.82681   0.00000  Uiso   1.00
O527   O     0.18591   0.16665   0.82681   0.00000  Uiso   1.00
C528   C     0.14010   0.16421   0.85216   0.00000  Uiso   1.00
Zn529  Zn    0.11562   0.16667   0.75000   0.00000  Uiso   1.00
Zn530  Zn    0.21771   0.16666   0.75000   0.00000  Uiso   1.00
O531   O     0.12843   0.10559   0.75000   0.00000  Uiso   1.00
O532   O     0.20488   0.10558   0.75000   0.00000  Uiso   1.00
O533   O     0.14742   0.16668   0.67319   0.00000  Uiso   1.00
O534   O     0.22387   0.16667   0.67319   0.00000  Uiso   1.00
C535   C     0.16661   0.08662   0.75010   0.00000  Uiso   1.00
C536   C     0.19326   0.16629   0.64763   0.00000  Uiso   1.00
C537   C     0.25846   0.12071   0.51041   0.00000  Uiso   1.00
H538   H     0.27748   0.13043   0.58200   0.00000  Uiso   1.00
H539   H     0.29180   0.10454   0.98997   0.00000  Uiso   1.00
C540   C     0.20899   0.15859   0.58936   0.00000  Uiso   1.00
C541   C     0.07677   0.17322   0.94139   0.00000  Uiso   1.00
C542   C     0.06091   0.17158   0.99771   0.00000  Uiso   1.00
C543   C     0.09203   0.15869   0.52501   0.00000  Uiso   1.00
C544   C     0.14072   0.14826   0.99405   0.00000  Uiso   1.00
C545   C     0.15267   0.14155   0.93784   0.00000  Uiso   1.00
C546   C     0.17859   0.14538   0.51577   0.00000  Uiso   1.00
C547   C     0.22232   0.12475   0.98657   0.00000  Uiso   1.00
C548   C     0.22873   0.10944   0.93424   0.00000  Uiso   1.00
C549   C     0.19449   0.11847   0.91003   0.00000  Uiso   1.00
C550   C     0.17555   0.16591   0.56370   0.00000  Uiso   1.00
C551   C     0.25115   0.13653   0.56239   0.00000  Uiso   1.00
C552   C     0.12262   0.15852   0.91108   0.00000  Uiso   1.00
H553   H     0.14608   0.18692   0.58281   0.00000  Uiso   1.00
H554   H     0.05283   0.18552   0.92148   0.00000  Uiso   1.00
H555   H     0.02407   0.18035   0.51994   0.00000  Uiso   1.00
H556   H     0.20079   0.10674   0.86938   0.00000  Uiso   1.00
C557   C     0.20426   0.31209   0.76000   0.00000  Uiso   1.00
H558   H     0.23352   0.29591   0.76771   0.00000  Uiso   1.00
C559   C     0.20423   0.02136   0.76004   0.00000  Uiso   1.00
H560   H     0.23346   0.03761   0.76780   0.00000  Uiso   1.00
C561   C     0.16651   0.04248   0.75040   0.00000  Uiso   1.00
C562   C     0.12872   0.02127   0.74100   0.00000  Uiso   1.00
H563   H     0.09945   0.03743   0.73328   0.00000  Uiso   1.00
C564   C     0.12874   0.31201   0.74101   0.00000  Uiso   1.00
H565   H     0.09947   0.29578   0.73331   0.00000  Uiso   1.00
C566   C     0.16656   0.29087   0.75038   0.00000  Uiso   1.00
C567   C     0.31563   0.13386   0.72889   0.00000  Uiso   1.00
H568   H     0.30266   0.10773   0.71163   0.00000  Uiso   1.00
C569   C     0.03025   0.13388   0.72887   0.00000  Uiso   1.00
H570   H     0.05349   0.10777   0.71162   0.00000  Uiso   1.00
N571   N     0.04760   0.16668   0.75002   0.00000  Uiso   1.00
C572   C     0.01752   0.19926   0.77169   0.00000  Uiso   1.00
H573   H     0.03046   0.22531   0.78911   0.00000  Uiso   1.00
C574   C     0.30291   0.19924   0.77169   0.00000  Uiso   1.00
H575   H     0.27961   0.22527   0.78914   0.00000  Uiso   1.00
N576   N     0.28573   0.16665   0.75001   0.00000  Uiso   1.00
Br577  Br    0.28514   0.07933   0.89166   0.00000  Uiso   1.00
C578   C     0.07088   0.15094   0.58438   0.00000  Uiso   1.00
H579   H     0.08889   0.13055   0.60448   0.00000  Uiso   1.00
O580   O     0.03274   0.16685   0.61139   0.00000  Uiso   1.00
O581   O     0.46179   0.22775   0.75001   0.00000  Uiso   1.00
O582   O     0.53823   0.22774   0.75001   0.00000  Uiso   1.00
C583   C     0.49998   0.24672   0.75013   0.00000  Uiso   1.00
O584   O     0.44280   0.16666   0.82681   0.00000  Uiso   1.00
O585   O     0.51924   0.16665   0.82681   0.00000  Uiso   1.00
C586   C     0.47344   0.16421   0.85216   0.00000  Uiso   1.00
Zn587  Zn    0.44896   0.16667   0.75000   0.00000  Uiso   1.00
Zn588  Zn    0.55104   0.16666   0.75000   0.00000  Uiso   1.00
O589   O     0.46177   0.10559   0.75000   0.00000  Uiso   1.00
O590   O     0.53821   0.10558   0.75000   0.00000  Uiso   1.00
O591   O     0.48076   0.16668   0.67319   0.00000  Uiso   1.00
O592   O     0.55720   0.16667   0.67319   0.00000  Uiso   1.00
C593   C     0.49995   0.08662   0.75010   0.00000  Uiso   1.00
C594   C     0.52659   0.16629   0.64763   0.00000  Uiso   1.00
C595   C     0.59180   0.12071   0.51041   0.00000  Uiso   1.00
H596   H     0.61081   0.13043   0.58200   0.00000  Uiso   1.00
H597   H     0.62514   0.10454   0.98997   0.00000  Uiso   1.00
C598   C     0.54233   0.15859   0.58936   0.00000  Uiso   1.00
C599   C     0.41010   0.17322   0.94139   0.00000  Uiso   1.00
C600   C     0.39424   0.17158   0.99771   0.00000  Uiso   1.00
C601   C     0.42536   0.15869   0.52501   0.00000  Uiso   1.00
C602   C     0.47405   0.14826   0.99405   0.00000  Uiso   1.00
C603   C     0.48600   0.14155   0.93784   0.00000  Uiso   1.00
C604   C     0.51193   0.14538   0.51577   0.00000  Uiso   1.00
C605   C     0.55566   0.12475   0.98657   0.00000  Uiso   1.00
C606   C     0.56207   0.10944   0.93424   0.00000  Uiso   1.00
C607   C     0.52782   0.11847   0.91003   0.00000  Uiso   1.00
C608   C     0.50889   0.16591   0.56370   0.00000  Uiso   1.00
C609   C     0.58448   0.13653   0.56239   0.00000  Uiso   1.00
C610   C     0.45595   0.15852   0.91108   0.00000  Uiso   1.00
H611   H     0.47942   0.18692   0.58281   0.00000  Uiso   1.00
H612   H     0.38616   0.18552   0.92148   0.00000  Uiso   1.00
H613   H     0.35740   0.18035   0.51994   0.00000  Uiso   1.00
H614   H     0.53412   0.10674   0.86938   0.00000  Uiso   1.00
C615   C     0.53759   0.31209   0.76000   0.00000  Uiso   1.00
H616   H     0.56685   0.29591   0.76771   0.00000  Uiso   1.00
C617   C     0.53756   0.02136   0.76004   0.00000  Uiso   1.00
H618   H     0.56679   0.03761   0.76780   0.00000  Uiso   1.00
C619   C     0.49985   0.04248   0.75040   0.00000  Uiso   1.00
C620   C     0.46205   0.02127   0.74100   0.00000  Uiso   1.00
H621   H     0.43279   0.03743   0.73328   0.00000  Uiso   1.00
C622   C     0.46207   0.31201   0.74101   0.00000  Uiso   1.00
H623   H     0.43280   0.29578   0.73331   0.00000  Uiso   1.00
C624   C     0.49989   0.29087   0.75038   0.00000  Uiso   1.00
C625   C     0.64896   0.13386   0.72889   0.00000  Uiso   1.00
H626   H     0.63599   0.10773   0.71163   0.00000  Uiso   1.00
C627   C     0.36359   0.13388   0.72887   0.00000  Uiso   1.00
H628   H     0.38682   0.10777   0.71162   0.00000  Uiso   1.00
N629   N     0.38093   0.16668   0.75002   0.00000  Uiso   1.00
C630   C     0.35086   0.19926   0.77169   0.00000  Uiso   1.00
H631   H     0.36379   0.22531   0.78911   0.00000  Uiso   1.00
C632   C     0.63624   0.19924   0.77169   0.00000  Uiso   1.00
H633   H     0.61294   0.22527   0.78914   0.00000  Uiso   1.00
N634   N     0.61906   0.16665   0.75001   0.00000  Uiso   1.00
Br635  Br    0.61847   0.07933   0.89166   0.00000  Uiso   1.00
C636   C     0.40422   0.15094   0.58438   0.00000  Uiso   1.00
H637   H     0.42222   0.13055   0.60448   0.00000  Uiso   1.00
O638   O     0.36607   0.16685   0.61139   0.00000  Uiso   1.00
O639   O     0.79512   0.22775   0.75001   0.00000  Uiso   1.00
O640   O     0.87157   0.22774   0.75001   0.00000  Uiso   1.00
C641   C     0.83332   0.24672   0.75013   0.00000  Uiso   1.00
O642   O     0.77613   0.16666   0.82681   0.00000  Uiso   1.00
O643   O     0.85258   0.16665   0.82681   0.00000  Uiso   1.00
C644   C     0.80677   0.16421   0.85216   0.00000  Uiso   1.00
Zn645  Zn    0.78229   0.16667   0.75000   0.00000  Uiso   1.00
Zn646  Zn    0.88438   0.16666   0.75000   0.00000  Uiso   1.00
O647   O     0.79510   0.10559   0.75000   0.00000  Uiso   1.00
O648   O     0.87154   0.10558   0.75000   0.00000  Uiso   1.00
O649   O     0.81409   0.16668   0.67319   0.00000  Uiso   1.00
O650   O     0.89053   0.16667   0.67319   0.00000  Uiso   1.00
C651   C     0.83328   0.08662   0.75010   0.00000  Uiso   1.00
C652   C     0.85992   0.16629   0.64763   0.00000  Uiso   1.00
C653   C     0.92513   0.12071   0.51041   0.00000  Uiso   1.00
H654   H     0.94415   0.13043   0.58200   0.00000  Uiso   1.00
H655   H     0.95847   0.10454   0.98997   0.00000  Uiso   1.00
C656   C     0.87566   0.15859   0.58936   0.00000  Uiso   1.00
C657   C     0.74343   0.17322   0.94139   0.00000  Uiso   1.00
C658   C     0.72758   0.17158   0.99771   0.00000  Uiso   1.00
C659   C     0.75869   0.15869   0.52501   0.00000  Uiso   1.00
C660   C     0.80739   0.14826   0.99405   0.00000  Uiso   1.00
C661   C     0.81934   0.14155   0.93784   0.00000  Uiso   1.00
C662   C     0.84526   0.14538   0.51577   0.00000  Uiso   1.00
C663   C     0.88899   0.12475   0.98657   0.00000  Uiso   1.00
C664   C     0.89540   0.10944   0.93424   0.00000  Uiso   1.00
C665   C     0.86116   0.11847   0.91003   0.00000  Uiso   1.00
C666   C     0.84222   0.16591   0.56370   0.00000  Uiso   1.00
C667   C     0.91781   0.13653   0.56239   0.00000  Uiso   1.00
C668   C     0.78929   0.15852   0.91108   0.00000  Uiso   1.00
H669   H     0.81275   0.18692   0.58281   0.00000  Uiso   1.00
H670   H     0.71949   0.18552   0.92148   0.00000  Uiso   1.00
H671   H     0.69074   0.18035   0.51994   0.00000  Uiso   1.00
H672   H     0.86745   0.10674   0.86938   0.00000  Uiso   1.00
C673   C     0.87093   0.31209   0.76000   0.00000  Uiso   1.00
H674   H     0.90019   0.29591   0.76771   0.00000  Uiso   1.00
C675   C     0.87089   0.02136   0.76004   0.00000  Uiso   1.00
H676   H     0.90012   0.03761   0.76780   0.00000  Uiso   1.00
C677   C     0.83318   0.04248   0.75040   0.00000  Uiso   1.00
C678   C     0.79539   0.02127   0.74100   0.00000  Uiso   1.00
H679   H     0.76612   0.03743   0.73328   0.00000  Uiso   1.00
C680   C     0.79540   0.31201   0.74101   0.00000  Uiso   1.00
H681   H     0.76613   0.29578   0.73331   0.00000  Uiso   1.00
C682   C     0.83323   0.29087   0.75038   0.00000  Uiso   1.00
C683   C     0.98230   0.13386   0.72889   0.00000  Uiso   1.00
H684   H     0.96932   0.10773   0.71163   0.00000  Uiso   1.00
C685   C     0.69692   0.13388   0.72887   0.00000  Uiso   1.00
H686   H     0.72015   0.10777   0.71162   0.00000  Uiso   1.00
N687   N     0.71426   0.16668   0.75002   0.00000  Uiso   1.00
C688   C     0.68419   0.19926   0.77169   0.00000  Uiso   1.00
H689   H     0.69712   0.22531   0.78911   0.00000  Uiso   1.00
C690   C     0.96957   0.19924   0.77169   0.00000  Uiso   1.00
H691   H     0.94627   0.22527   0.78914   0.00000  Uiso   1.00
N692   N     0.95239   0.16665   0.75001   0.00000  Uiso   1.00
Br693  Br    0.95180   0.07933   0.89166   0.00000  Uiso   1.00
C694   C     0.73755   0.15094   0.58438   0.00000  Uiso   1.00
H695   H     0.75556   0.13055   0.60448   0.00000  Uiso   1.00
O696   O     0.69941   0.16685   0.61139   0.00000  Uiso   1.00
O697   O     0.12846   0.56108   0.75001   0.00000  Uiso   1.00
O698   O     0.20490   0.56107   0.75001   0.00000  Uiso   1.00
C699   C     0.16665   0.58005   0.75013   0.00000  Uiso   1.00
O700   O     0.10947   0.50000   0.82681   0.00000  Uiso   1.00
O701   O     0.18591   0.49999   0.82681   0.00000  Uiso   1.00
C702   C     0.14010   0.49754   0.85216   0.00000  Uiso   1.00
Zn703  Zn    0.11562   0.50001   0.75000   0.00000  Uiso   1.00
Zn704  Zn    0.21771   0.49999   0.75000   0.00000  Uiso   1.00
O705   O     0.12843   0.43893   0.75000   0.00000  Uiso   1.00
O706   O     0.20488   0.43892   0.75000   0.00000  Uiso   1.00
O707   O     0.14742   0.50001   0.67319   0.00000  Uiso   1.00
O708   O     0.22387   0.50000   0.67319   0.00000  Uiso   1.00
C709   C     0.16661   0.41995   0.75010   0.00000  Uiso   1.00
C710   C     0.19326   0.49963   0.64763   0.00000  Uiso   1.00
C711   C     0.25846   0.45404   0.51041   0.00000  Uiso   1.00
H712   H     0.27748   0.46376   0.58200   0.00000  Uiso   1.00
H713   H     0.29180   0.43787   0.98997   0.00000  Uiso   1.00
C714   C     0.20899   0.49192   0.58936   0.00000  Uiso   1.00
C715   C     0.07677   0.50655   0.94139   0.00000  Uiso   1.00
C716   C     0.06091   0.50491   0.99771   0.00000  Uiso   1.00
C717   C     0.09203   0.49203   0.52501   0.00000  Uiso   1.00
C718   C     0.14072   0.48159   0.99405   0.00000  Uiso   1.00
C719   C     0.15267   0.47488   0.93784   0.00000  Uiso   1.00
C720   C     0.17859   0.47871   0.51577   0.00000  Uiso   1.00
C721   C     0.22232   0.45809   0.98657   0.00000  Uiso   1.00
C722   C     0.22873   0.44277   0.93424   0.00000  Uiso   1.00
C723   C     0.19449   0.45181   0.91003   0.00000  Uiso   1.00
C724   C     0.17555   0.49924   0.56370   0.00000  Uiso   1.00
C725   C     0.25115   0.46987   0.56239   0.00000  Uiso   1.00
C726   C     0.12262   0.49185   0.91108   0.00000  Uiso   1.00
H727   H     0.14608   0.52026   0.58281   0.00000  Uiso   1.00
H728   H     0.05283   0.51885   0.92148   0.00000  Uiso   1.00
H729   H     0.02407   0.51369   0.51994   0.00000  Uiso   1.00
H730   H     0.20079   0.44007   0.86938   0.00000  Uiso   1.00
C731   C     0.20426   0.64542   0.76000   0.00000  Uiso   1.00
H732   H     0.23352   0.62924   0.76771   0.00000  Uiso   1.00
C733   C     0.20423   0.35469   0.76004   0.00000  Uiso   1.00
H734   H     0.23346   0.37095   0.76780   0.00000  Uiso   1.00
C735   C     0.16651   0.37582   0.75040   0.00000  Uiso   1.00
C736   C     0.12872   0.35460   0.74100   0.00000  Uiso   1.00
H737   H     0.09945   0.37077   0.73328   0.00000  Uiso   1.00
C738   C     0.12874   0.64534   0.74101   0.00000  Uiso   1.00
H739   H     0.09947   0.62911   0.73331   0.00000  Uiso   1.00
C740   C     0.16656   0.62420   0.75038   0.00000  Uiso   1.00
C741   C     0.31563   0.46719   0.72889   0.00000  Uiso   1.00
H742   H     0.30266   0.44107   0.71163   0.00000  Uiso   1.00
C743   C     0.03025   0.46721   0.72887   0.00000  Uiso   1.00
H744   H     0.05349   0.44110   0.71162   0.00000  Uiso   1.00
N745   N     0.04760   0.50001   0.75002   0.00000  Uiso   1.00
C746   C     0.01752   0.53259   0.77169   0.00000  Uiso   1.00
H747   H     0.03046   0.55864   0.78911   0.00000  Uiso   1.00
C748   C     0.30291   0.53257   0.77169   0.00000  Uiso   1.00
H749   H     0.27961   0.55861   0.78914   0.00000  Uiso   1.00
N750   N     0.28573   0.49998   0.75001   0.00000  Uiso   1.00
Br751  Br    0.28514   0.41266   0.89166   0.00000  Uiso   1.00
C752   C     0.07088   0.48427   0.58438   0.00000  Uiso   1.00
H753   H     0.08889   0.46389   0.60448   0.00000  Uiso   1.00
O754   O     0.03274   0.50018   0.61139   0.00000  Uiso   1.00
O755   O     0.46179   0.56108   0.75001   0.00000  Uiso   1.00
O756   O     0.53823   0.56107   0.75001   0.00000  Uiso   1.00
C757   C     0.49998   0.58005   0.75013   0.00000  Uiso   1.00
O758   O     0.44280   0.50000   0.82681   0.00000  Uiso   1.00
O759   O     0.51924   0.49999   0.82681   0.00000  Uiso   1.00
C760   C     0.47344   0.49754   0.85216   0.00000  Uiso   1.00
Zn761  Zn    0.44896   0.50001   0.75000   0.00000  Uiso   1.00
Zn762  Zn    0.55104   0.49999   0.75000   0.00000  Uiso   1.00
O763   O     0.46177   0.43893   0.75000   0.00000  Uiso   1.00
O764   O     0.53821   0.43892   0.75000   0.00000  Uiso   1.00
O765   O     0.48076   0.50001   0.67319   0.00000  Uiso   1.00
O766   O     0.55720   0.50000   0.67319   0.00000  Uiso   1.00
C767   C     0.49995   0.41995   0.75010   0.00000  Uiso   1.00
C768   C     0.52659   0.49963   0.64763   0.00000  Uiso   1.00
C769   C     0.59180   0.45404   0.51041   0.00000  Uiso   1.00
H770   H     0.61081   0.46376   0.58200   0.00000  Uiso   1.00
H771   H     0.62514   0.43787   0.98997   0.00000  Uiso   1.00
C772   C     0.54233   0.49192   0.58936   0.00000  Uiso   1.00
C773   C     0.41010   0.50655   0.94139   0.00000  Uiso   1.00
C774   C     0.39424   0.50491   0.99771   0.00000  Uiso   1.00
C775   C     0.42536   0.49203   0.52501   0.00000  Uiso   1.00
C776   C     0.47405   0.48159   0.99405   0.00000  Uiso   1.00
C777   C     0.48600   0.47488   0.93784   0.00000  Uiso   1.00
C778   C     0.51193   0.47871   0.51577   0.00000  Uiso   1.00
C779   C     0.55566   0.45809   0.98657   0.00000  Uiso   1.00
C780   C     0.56207   0.44277   0.93424   0.00000  Uiso   1.00
C781   C     0.52782   0.45181   0.91003   0.00000  Uiso   1.00
C782   C     0.50889   0.49924   0.56370   0.00000  Uiso   1.00
C783   C     0.58448   0.46987   0.56239   0.00000  Uiso   1.00
C784   C     0.45595   0.49185   0.91108   0.00000  Uiso   1.00
H785   H     0.47942   0.52026   0.58281   0.00000  Uiso   1.00
H786   H     0.38616   0.51885   0.92148   0.00000  Uiso   1.00
H787   H     0.35740   0.51369   0.51994   0.00000  Uiso   1.00
H788   H     0.53412   0.44007   0.86938   0.00000  Uiso   1.00
C789   C     0.53759   0.64542   0.76000   0.00000  Uiso   1.00
H790   H     0.56685   0.62924   0.76771   0.00000  Uiso   1.00
C791   C     0.53756   0.35469   0.76004   0.00000  Uiso   1.00
H792   H     0.56679   0.37095   0.76780   0.00000  Uiso   1.00
C793   C     0.49985   0.37582   0.75040   0.00000  Uiso   1.00
C794   C     0.46205   0.35460   0.74100   0.00000  Uiso   1.00
H795   H     0.43279   0.37077   0.73328   0.00000  Uiso   1.00
C796   C     0.46207   0.64534   0.74101   0.00000  Uiso   1.00
H797   H     0.43280   0.62911   0.73331   0.00000  Uiso   1.00
C798   C     0.49989   0.62420   0.75038   0.00000  Uiso   1.00
C799   C     0.64896   0.46719   0.72889   0.00000  Uiso   1.00
H800   H     0.63599   0.44107   0.71163   0.00000  Uiso   1.00
C801   C     0.36359   0.46721   0.72887   0.00000  Uiso   1.00
H802   H     0.38682   0.44110   0.71162   0.00000  Uiso   1.00
N803   N     0.38093   0.50001   0.75002   0.00000  Uiso   1.00
C804   C     0.35086   0.53259   0.77169   0.00000  Uiso   1.00
H805   H     0.36379   0.55864   0.78911   0.00000  Uiso   1.00
C806   C     0.63624   0.53257   0.77169   0.00000  Uiso   1.00
H807   H     0.61294   0.55861   0.78914   0.00000  Uiso   1.00
N808   N     0.61906   0.49998   0.75001   0.00000  Uiso   1.00
Br809  Br    0.61847   0.41266   0.89166   0.00000  Uiso   1.00
C810   C     0.40422   0.48427   0.58438   0.00000  Uiso   1.00
H811   H     0.42222   0.46389   0.60448   0.00000  Uiso   1.00
O812   O     0.36607   0.50018   0.61139   0.00000  Uiso   1.00
O813   O     0.79512   0.56108   0.75001   0.00000  Uiso   1.00
O814   O     0.87157   0.56107   0.75001   0.00000  Uiso   1.00
C815   C     0.83332   0.58005   0.75013   0.00000  Uiso   1.00
O816   O     0.77613   0.50000   0.82681   0.00000  Uiso   1.00
O817   O     0.85258   0.49999   0.82681   0.00000  Uiso   1.00
C818   C     0.80677   0.49754   0.85216   0.00000  Uiso   1.00
Zn819  Zn    0.78229   0.50001   0.75000   0.00000  Uiso   1.00
Zn820  Zn    0.88438   0.49999   0.75000   0.00000  Uiso   1.00
O821   O     0.79510   0.43893   0.75000   0.00000  Uiso   1.00
O822   O     0.87154   0.43892   0.75000   0.00000  Uiso   1.00
O823   O     0.81409   0.50001   0.67319   0.00000  Uiso   1.00
O824   O     0.89053   0.50000   0.67319   0.00000  Uiso   1.00
C825   C     0.83328   0.41995   0.75010   0.00000  Uiso   1.00
C826   C     0.85992   0.49963   0.64763   0.00000  Uiso   1.00
C827   C     0.92513   0.45404   0.51041   0.00000  Uiso   1.00
H828   H     0.94415   0.46376   0.58200   0.00000  Uiso   1.00
H829   H     0.95847   0.43787   0.98997   0.00000  Uiso   1.00
C830   C     0.87566   0.49192   0.58936   0.00000  Uiso   1.00
C831   C     0.74343   0.50655   0.94139   0.00000  Uiso   1.00
C832   C     0.72758   0.50491   0.99771   0.00000  Uiso   1.00
C833   C     0.75869   0.49203   0.52501   0.00000  Uiso   1.00
C834   C     0.80739   0.48159   0.99405   0.00000  Uiso   1.00
C835   C     0.81934   0.47488   0.93784   0.00000  Uiso   1.00
C836   C     0.84526   0.47871   0.51577   0.00000  Uiso   1.00
C837   C     0.88899   0.45809   0.98657   0.00000  Uiso   1.00
C838   C     0.89540   0.44277   0.93424   0.00000  Uiso   1.00
C839   C     0.86116   0.45181   0.91003   0.00000  Uiso   1.00
C840   C     0.84222   0.49924   0.56370   0.00000  Uiso   1.00
C841   C     0.91781   0.46987   0.56239   0.00000  Uiso   1.00
C842   C     0.78929   0.49185   0.91108   0.00000  Uiso   1.00
H843   H     0.81275   0.52026   0.58281   0.00000  Uiso   1.00
H844   H     0.71949   0.51885   0.92148   0.00000  Uiso   1.00
H845   H     0.69074   0.51369   0.51994   0.00000  Uiso   1.00
H846   H     0.86745   0.44007   0.86938   0.00000  Uiso   1.00
C847   C     0.87093   0.64542   0.76000   0.00000  Uiso   1.00
H848   H     0.90019   0.62924   0.76771   0.00000  Uiso   1.00
C849   C     0.87089   0.35469   0.76004   0.00000  Uiso   1.00
H850   H     0.90012   0.37095   0.76780   0.00000  Uiso   1.00
C851   C     0.83318   0.37582   0.75040   0.00000  Uiso   1.00
C852   C     0.79539   0.35460   0.74100   0.00000  Uiso   1.00
H853   H     0.76612   0.37077   0.73328   0.00000  Uiso   1.00
C854   C     0.79540   0.64534   0.74101   0.00000  Uiso   1.00
H855   H     0.76613   0.62911   0.73331   0.00000  Uiso   1.00
C856   C     0.83323   0.62420   0.75038   0.00000  Uiso   1.00
C857   C     0.98230   0.46719   0.72889   0.00000  Uiso   1.00
H858   H     0.96932   0.44107   0.71163   0.00000  Uiso   1.00
C859   C     0.69692   0.46721   0.72887   0.00000  Uiso   1.00
H860   H     0.72015   0.44110   0.71162   0.00000  Uiso   1.00
N861   N     0.71426   0.50001   0.75002   0.00000  Uiso   1.00
C862   C     0.68419   0.53259   0.77169   0.00000  Uiso   1.00
H863   H     0.69712   0.55864   0.78911   0.00000  Uiso   1.00
C864   C     0.96957   0.53257   0.77169   0.00000  Uiso   1.00
H865   H     0.94627   0.55861   0.78914   0.00000  Uiso   1.00
N866   N     0.95239   0.49998   0.75001   0.00000  Uiso   1.00
Br867  Br    0.95180   0.41266   0.89166   0.00000  Uiso   1.00
C868   C     0.73755   0.48427   0.58438   0.00000  Uiso   1.00
H869   H     0.75556   0.46389   0.60448   0.00000  Uiso   1.00
O870   O     0.69941   0.50018   0.61139   0.00000  Uiso   1.00
O871   O     0.12846   0.89442   0.75001   0.00000  Uiso   1.00
O872   O     0.20490   0.89441   0.75001   0.00000  Uiso   1.00
C873   C     0.16665   0.91339   0.75013   0.00000  Uiso   1.00
O874   O     0.10947   0.83333   0.82681   0.00000  Uiso   1.00
O875   O     0.18591   0.83332   0.82681   0.00000  Uiso   1.00
C876   C     0.14010   0.83088   0.85216   0.00000  Uiso   1.00
Zn877  Zn    0.11562   0.83334   0.75000   0.00000  Uiso   1.00
Zn878  Zn    0.21771   0.83333   0.75000   0.00000  Uiso   1.00
O879   O     0.12843   0.77226   0.75000   0.00000  Uiso   1.00
O880   O     0.20488   0.77225   0.75000   0.00000  Uiso   1.00
O881   O     0.14742   0.83335   0.67319   0.00000  Uiso   1.00
O882   O     0.22387   0.83334   0.67319   0.00000  Uiso   1.00
C883   C     0.16661   0.75329   0.75010   0.00000  Uiso   1.00
C884   C     0.19326   0.83296   0.64763   0.00000  Uiso   1.00
C885   C     0.25846   0.78737   0.51041   0.00000  Uiso   1.00
H886   H     0.27748   0.79710   0.58200   0.00000  Uiso   1.00
H887   H     0.29180   0.77120   0.98997   0.00000  Uiso   1.00
C888   C     0.20899   0.82525   0.58936   0.00000  Uiso   1.00
C889   C     0.07677   0.83989   0.94139   0.00000  Uiso   1.00
C890   C     0.06091   0.83824   0.99771   0.00000  Uiso   1.00
C891   C     0.09203   0.82536   0.52501   0.00000  Uiso   1.00
C892   C     0.14072   0.81492   0.99405   0.00000  Uiso   1.00
C893   C     0.15267   0.80822   0.93784   0.00000  Uiso   1.00
C894   C     0.17859   0.81205   0.51577   0.00000  Uiso   1.00
C895   C     0.22232   0.79142   0.98657   0.00000  Uiso   1.00
C896   C     0.22873   0.77610   0.93424   0.00000  Uiso   1.00
C897   C     0.19449   0.78514   0.91003   0.00000  Uiso   1.00
C898   C     0.17555   0.83257   0.56370   0.00000  Uiso   1.00
C899   C     0.25115   0.80320   0.56239   0.00000  Uiso   1.00
C900   C     0.12262   0.82518   0.91108   0.00000  Uiso   1.00
H901   H     0.14608   0.85359   0.58281   0.00000  Uiso   1.00
H902   H     0.05283   0.85218   0.92148   0.00000  Uiso   1.00
H903   H     0.02407   0.84702   0.51994   0.00000  Uiso   1.00
H904   H     0.20079   0.77341   0.86938   0.00000  Uiso   1.00
C905   C     0.20426   0.97876   0.76000   0.00000  Uiso   1.00
H906   H     0.23352   0.96258   0.76771   0.00000  Uiso   1.00
C907   C     0.20423   0.68803   0.76004   0.00000  Uiso   1.00
H908   H     0.23346   0.70428   0.76780   0.00000  Uiso   1.00
C909   C     0.16651   0.70915   0.75040   0.00000  Uiso   1.00
C910   C     0.12872   0.68793   0.74100   0.00000  Uiso   1.00
H911   H     0.09945   0.70410   0.73328   0.00000  Uiso   1.00
C912   C     0.12874   0.97868   0.74101   0.00000  Uiso   1.00
H913   H     0.09947   0.96244   0.73331   0.00000  Uiso   1.00
C914   C     0.16656   0.95754   0.75038   0.00000  Uiso   1.00
C915   C     0.31563   0.80052   0.72889   0.00000  Uiso   1.00
H916   H     0.30266   0.77440   0.71163   0.00000  Uiso   1.00
C917   C     0.03025   0.80055   0.72887   0.00000  Uiso   1.00
H918   H     0.05349   0.77444   0.71162   0.00000  Uiso   1.00
N919   N     0.04760   0.83334   0.75002   0.00000  Uiso   1.00
C920   C     0.01752   0.86592   0.77169   0.00000  Uiso   1.00
H921   H     0.03046   0.89198   0.78911   0.00000  Uiso   1.00
C922   C     0.30291   0.86590   0.77169   0.00000  Uiso   1.00
H923   H     0.27961   0.89194   0.78914   0.00000  Uiso   1.00
N924   N     0.28573   0.83331   0.75001   0.00000  Uiso   1.00
Br925  Br    0.28514   0.74599   0.89166   0.00000  Uiso   1.00
C926   C     0.07088   0.81760   0.58438   0.00000  Uiso   1.00
H927   H     0.08889   0.79722   0.60448   0.00000  Uiso   1.00
O928   O     0.03274   0.83351   0.61139   0.00000  Uiso   1.00
O929   O     0.46179   0.89442   0.75001   0.00000  Uiso   1.00
O930   O     0.53823   0.89441   0.75001   0.00000  Uiso   1.00
C931   C     0.49998   0.91339   0.75013   0.00000  Uiso   1.00
O932   O     0.44280   0.83333   0.82681   0.00000  Uiso   1.00
O933   O     0.51924   0.83332   0.82681   0.00000  Uiso   1.00
C934   C     0.47344   0.83088   0.85216   0.00000  Uiso   1.00
Zn935  Zn    0.44896   0.83334   0.75000   0.00000  Uiso   1.00
Zn936  Zn    0.55104   0.83333   0.75000   0.00000  Uiso   1.00
O937   O     0.46177   0.77226   0.75000   0.00000  Uiso   1.00
O938   O     0.53821   0.77225   0.75000   0.00000  Uiso   1.00
O939   O     0.48076   0.83335   0.67319   0.00000  Uiso   1.00
O940   O     0.55720   0.83334   0.67319   0.00000  Uiso   1.00
C941   C     0.49995   0.75329   0.75010   0.00000  Uiso   1.00
C942   C     0.52659   0.83296   0.64763   0.00000  Uiso   1.00
C943   C     0.59180   0.78737   0.51041   0.00000  Uiso   1.00
H944   H     0.61081   0.79710   0.58200   0.00000  Uiso   1.00
H945   H     0.62514   0.77120   0.98997   0.00000  Uiso   1.00
C946   C     0.54233   0.82525   0.58936   0.00000  Uiso   1.00
C947   C     0.41010   0.83989   0.94139   0.00000  Uiso   1.00
C948   C     0.39424   0.83824   0.99771   0.00000  Uiso   1.00
C949   C     0.42536   0.82536   0.52501   0.00000  Uiso   1.00
C950   C     0.47405   0.81492   0.99405   0.00000  Uiso   1.00
C951   C     0.48600   0.80822   0.93784   0.00000  Uiso   1.00
C952   C     0.51193   0.81205   0.51577   0.00000  Uiso   1.00
C953   C     0.55566   0.79142   0.98657   0.00000  Uiso   1.00
C954   C     0.56207   0.77610   0.93424   0.00000  Uiso   1.00
C955   C     0.52782   0.78514   0.91003   0.00000  Uiso   1.00
C956   C     0.50889   0.83257   0.56370   0.00000  Uiso   1.00
C957   C     0.58448   0.80320   0.56239   0.00000  Uiso   1.00
C958   C     0.45595   0.82518   0.91108   0.00000  Uiso   1.00
H959   H     0.47942   0.85359   0.58281   0.00000  Uiso   1.00
H960   H     0.38616   0.85218   0.92148   0.00000  Uiso   1.00
H961   H     0.35740   0.84702   0.51994   0.00000  Uiso   1.00
H962   H     0.53412   0.77341   0.86938   0.00000  Uiso   1.00
C963   C     0.53759   0.97876   0.76000   0.00000  Uiso   1.00
H964   H     0.56685   0.96258   0.76771   0.00000  Uiso   1.00
C965   C     0.53756   0.68803   0.76004   0.00000  Uiso   1.00
H966   H     0.56679   0.70428   0.76780   0.00000  Uiso   1.00
C967   C     0.49985   0.70915   0.75040   0.00000  Uiso   1.00
C968   C     0.46205   0.68793   0.74100   0.00000  Uiso   1.00
H969   H     0.43279   0.70410   0.73328   0.00000  Uiso   1.00
C970   C     0.46207   0.97868   0.74101   0.00000  Uiso   1.00
H971   H     0.43280   0.96244   0.73331   0.00000  Uiso   1.00
C972   C     0.49989   0.95754   0.75038   0.00000  Uiso   1.00
C973   C     0.64896   0.80052   0.72889   0.00000  Uiso   1.00
H974   H     0.63599   0.77440   0.71163   0.00000  Uiso   1.00
C975   C     0.36359   0.80055   0.72887   0.00000  Uiso   1.00
H976   H     0.38682   0.77444   0.71162   0.00000  Uiso   1.00
N977   N     0.38093   0.83334   0.75002   0.00000  Uiso   1.00
C978   C     0.35086   0.86592   0.77169   0.00000  Uiso   1.00
H979   H     0.36379   0.89198   0.78911   0.00000  Uiso   1.00
C980   C     0.63624   0.86590   0.77169   0.00000  Uiso   1.00
H981   H     0.61294   0.89194   0.78914   0.00000  Uiso   1.00
N982   N     0.61906   0.83331   0.75001   0.00000  Uiso   1.00
Br983  Br    0.61847   0.74599   0.89166   0.00000  Uiso   1.00
C984   C     0.40422   0.81760   0.58438   0.00000  Uiso   1.00
H985   H     0.42222   0.79722   0.60448   0.00000  Uiso   1.00
O986   O     0.36607   0.83351   0.61139   0.00000  Uiso   1.00
O987   O     0.79512   0.89442   0.75001   0.00000  Uiso   1.00
O988   O     0.87157   0.89441   0.75001   0.00000  Uiso   1.00
C989   C     0.83332   0.91339   0.75013   0.00000  Uiso   1.00
O990   O     0.77613   0.83333   0.82681   0.00000  Uiso   1.00
O991   O     0.85258   0.83332   0.82681   0.00000  Uiso   1.00
C992   C     0.80677   0.83088   0.85216   0.00000  Uiso   1.00
Zn993  Zn    0.78229   0.83334   0.75000   0.00000  Uiso   1.00
Zn994  Zn    0.88438   0.83333   0.75000   0.00000  Uiso   1.00
O995   O     0.79510   0.77226   0.75000   0.00000  Uiso   1.00
O996   O     0.87154   0.77225   0.75000   0.00000  Uiso   1.00
O997   O     0.81409   0.83335   0.67319   0.00000  Uiso   1.00
O998   O     0.89053   0.83334   0.67319   0.00000  Uiso   1.00
C999   C     0.83328   0.75329   0.75010   0.00000  Uiso   1.00
C1000  C     0.85992   0.83296   0.64763   0.00000  Uiso   1.00
C1001  C     0.92513   0.78737   0.51041   0.00000  Uiso   1.00
H1002  H     0.94415   0.79710   0.58200   0.00000  Uiso   1.00
H1003  H     0.95847   0.77120   0.98997   0.00000  Uiso   1.00
C1004  C     0.87566   0.82525   0.58936   0.00000  Uiso   1.00
C1005  C     0.74343   0.83989   0.94139   0.00000  Uiso   1.00
C1006  C     0.72758   0.83824   0.99771   0.00000  Uiso   1.00
C1007  C     0.75869   0.82536   0.52501   0.00000  Uiso   1.00
C1008  C     0.80739   0.81492   0.99405   0.00000  Uiso   1.00
C1009  C     0.81934   0.80822   0.93784   0.00000  Uiso   1.00
C1010  C     0.84526   0.81205   0.51577   0.00000  Uiso   1.00
C1011  C     0.88899   0.79142   0.98657   0.00000  Uiso   1.00
C1012  C     0.89540   0.77610   0.93424   0.00000  Uiso   1.00
C1013  C     0.86116   0.78514   0.91003   0.00000  Uiso   1.00
C1014  C     0.84222   0.83257   0.56370   0.00000  Uiso   1.00
C1015  C     0.91781   0.80320   0.56239   0.00000  Uiso   1.00
C1016  C     0.78929   0.82518   0.91108   0.00000  Uiso   1.00
H1017  H     0.81275   0.85359   0.58281   0.00000  Uiso   1.00
H1018  H     0.71949   0.85218   0.92148   0.00000  Uiso   1.00
H1019  H     0.69074   0.84702   0.51994   0.00000  Uiso   1.00
H1020  H     0.86745   0.77341   0.86938   0.00000  Uiso   1.00
C1021  C     0.87093   0.97876   0.76000   0.00000  Uiso   1.00
H1022  H     0.90019   0.96258   0.76771   0.00000  Uiso   1.00
C1023  C     0.87089   0.68803   0.76004   0.00000  Uiso   1.00
H1024  H     0.90012   0.70428   0.76780   0.00000  Uiso   1.00
C1025  C     0.83318   0.70915   0.75040   0.00000  Uiso   1.00
C1026  C     0.79539   0.68793   0.74100   0.00000  Uiso   1.00
H1027  H     0.76612   0.70410   0.73328   0.00000  Uiso   1.00
C1028  C     0.79540   0.97868   0.74101   0.00000  Uiso   1.00
H1029  H     0.76613   0.96244   0.73331   0.00000  Uiso   1.00
C1030  C     0.83323   0.95754   0.75038   0.00000  Uiso   1.00
C1031  C     0.98230   0.80052   0.72889   0.00000  Uiso   1.00
H1032  H     0.96932   0.77440   0.71163   0.00000  Uiso   1.00
C1033  C     0.69692   0.80055   0.72887   0.00000  Uiso   1.00
H1034  H     0.72015   0.77444   0.71162   0.00000  Uiso   1.00
N1035  N     0.71426   0.83334   0.75002   0.00000  Uiso   1.00
C1036  C     0.68419   0.86592   0.77169   0.00000  Uiso   1.00
H1037  H     0.69712   0.89198   0.78911   0.00000  Uiso   1.00
C1038  C     0.96957   0.86590   0.77169   0.00000  Uiso   1.00
H1039  H     0.94627   0.89194   0.78914   0.00000  Uiso   1.00
N1040  N     0.95239   0.83331   0.75001   0.00000  Uiso   1.00
Br1041 Br    0.95180   0.74599   0.89166   0.00000  Uiso   1.00
C1042  C     0.73755   0.81760   0.58438   0.00000  Uiso   1.00
H1043  H     0.75556   0.79722   0.60448   0.00000  Uiso   1.00
O1044  O     0.69941   0.83351   0.61139   0.00000  Uiso   1.00
loop_
_geom_bond_atom_site_label_1
_geom_bond_atom_site_label_2
_geom_bond_distance
_geom_bond_site_symmetry_2
_ccdc_geom_bond_type
O1     Zn7     2.000   .     S
O1     C3      1.282   .     A
O2     C3      1.283   .     A
O2     Zn8     2.000   .     S
C3     C44     1.420   .     S
O4     Zn7     1.952   .     S
O4     C6      1.290   .     A
O5     Zn8     1.907   .     S
O5     C6      1.292   .     A
C6     C30     1.461   .     S
Zn7    O11     1.907   .     S
Zn7    N49     2.008   .     S
Zn7    O9      2.000   .     S
Zn8    O12     1.952   .     S
Zn8    O10     2.000   .     S
Zn8    N54     2.008   .     S
O9     C13     1.283   .     A
O10    C13     1.282   .     A
O11    C14     1.291   .     A
O12    C14     1.291   .     A
C13    C39     1.419   .     S
C14    C18     1.454   .     S
C15    C29     1.396   .     A
C15    H539    1.081   1_554 S
C15    C547    1.411   1_554 S
H16    C29     1.083   .     S
H17    C537    1.081   .     S
C18    C29     1.399   .     A
C18    C28     1.387   .     A
C19    H32     1.084   .     S
C19    C30     1.400   .     A
C19    C20     1.386   .     A
C20    C543    1.402   .     S
C20    H555    1.083   .     S
C21    C56     1.485   .     S
C21    C542    1.402   1_554 S
C21    C544    1.431   1_554 S
C22    C23     1.406   .     A
C22    C543    1.431   .     S
C22    C546    1.417   .     S
C23    C27     1.413   .     A
C23    C30     1.411   .     A
C24    C28     1.390   .     A
C24    C544    1.417   1_554 S
C24    C547    1.423   1_554 S
C25    C26     1.403   .     A
C25    C537    1.411   .     S
C25    C546    1.423   .     S
C26    Br55    1.923   .     S
C26    C27     1.392   .     A
C27    H34     1.081   .     S
C28    H31     1.081   .     S
H33    C542    1.083   1_554 S
C35    C44     1.398   .     A
C35    H36     1.084   .     S
C35    C211    1.370   .     S
C37    H38     1.084   .     S
C37    C39     1.398   .     A
C37    C383    1.370   1_545 S
C39    C40     1.397   .     A
C40    H41     1.084   .     S
C40    C390    1.370   1_545 S
C42    C44     1.398   .     A
C42    H43     1.084   .     S
C42    C214    1.370   .     S
C45    N54     1.366   .     A
C45    H46     1.082   .     S
C45    C105    1.415   .     S
C47    H48     1.081   .     S
C47    N49     1.366   .     A
C47    C161    1.415   1_455 S
N49    C50     1.366   .     A
C50    H51     1.082   .     S
C50    C168    1.415   1_455 S
C52    N54     1.366   .     A
C52    H53     1.082   .     S
C52    C108    1.415   .     S
C56    H57     1.085   .     S
C56    O58     1.221   .     D
O59    Zn65    2.000   .     S
O59    C61     1.282   .     A
O60    C61     1.283   .     A
O60    Zn66    2.000   .     S
C61    C102    1.420   .     S
O62    Zn65    1.952   .     S
O62    C64     1.290   .     A
O63    Zn66    1.907   .     S
O63    C64     1.292   .     A
C64    C88     1.461   .     S
Zn65   O69     1.907   .     S
Zn65   N107    2.008   .     S
Zn65   O67     2.000   .     S
Zn66   O70     1.952   .     S
Zn66   O68     2.000   .     S
Zn66   N112    2.008   .     S
O67    C71     1.283   .     A
O68    C71     1.282   .     A
O69    C72     1.291   .     A
O70    C72     1.291   .     A
C71    C97     1.419   .     S
C72    C76     1.454   .     S
C73    C87     1.396   .     A
C73    H597    1.081   1_554 S
C73    C605    1.411   1_554 S
H74    C87     1.083   .     S
H75    C595    1.081   .     S
C76    C87     1.399   .     A
C76    C86     1.387   .     A
C77    H90     1.084   .     S
C77    C88     1.400   .     A
C77    C78     1.386   .     A
C78    C601    1.402   .     S
C78    H613    1.083   .     S
C79    C114    1.485   .     S
C79    C600    1.402   1_554 S
C79    C602    1.431   1_554 S
C80    C81     1.406   .     A
C80    C601    1.431   .     S
C80    C604    1.417   .     S
C81    C85     1.413   .     A
C81    C88     1.411   .     A
C82    C86     1.390   .     A
C82    C602    1.417   1_554 S
C82    C605    1.423   1_554 S
C83    C84     1.403   .     A
C83    C595    1.411   .     S
C83    C604    1.423   .     S
C84    Br113   1.923   .     S
C84    C85     1.392   .     A
C85    H92     1.081   .     S
C86    H89     1.081   .     S
H91    C600    1.083   1_554 S
C93    C102    1.398   .     A
C93    H94     1.084   .     S
C93    C269    1.370   .     S
C95    H96     1.084   .     S
C95    C97     1.398   .     A
C95    C441    1.370   1_545 S
C97    C98     1.397   .     A
C98    H99     1.084   .     S
C98    C448    1.370   1_545 S
C100   C102    1.398   .     A
C100   H101    1.084   .     S
C100   C272    1.370   .     S
C103   N112    1.366   .     A
C103   H104    1.082   .     S
C103   C163    1.415   .     S
C105   H106    1.081   .     S
C105   N107    1.366   .     A
N107   C108    1.366   .     A
C108   H109    1.082   .     S
C110   N112    1.366   .     A
C110   H111    1.082   .     S
C110   C166    1.415   .     S
C114   H115    1.085   .     S
C114   O116    1.221   .     D
O117   Zn123   2.000   .     S
O117   C119    1.282   .     A
O118   C119    1.283   .     A
O118   Zn124   2.000   .     S
C119   C160    1.420   .     S
O120   Zn123   1.952   .     S
O120   C122    1.290   .     A
O121   Zn124   1.907   .     S
O121   C122    1.292   .     A
C122   C146    1.461   .     S
Zn123  O127    1.907   .     S
Zn123  N165    2.008   .     S
Zn123  O125    2.000   .     S
Zn124  O128    1.952   .     S
Zn124  O126    2.000   .     S
Zn124  N170    2.008   .     S
O125   C129    1.283   .     A
O126   C129    1.282   .     A
O127   C130    1.291   .     A
O128   C130    1.291   .     A
C129   C155    1.419   .     S
C130   C134    1.454   .     S
C131   C145    1.396   .     A
C131   H655    1.081   1_554 S
C131   C663    1.411   1_554 S
H132   C145    1.083   .     S
H133   C653    1.081   .     S
C134   C145    1.399   .     A
C134   C144    1.387   .     A
C135   H148    1.084   .     S
C135   C146    1.400   .     A
C135   C136    1.386   .     A
C136   C659    1.402   .     S
C136   H671    1.083   .     S
C137   C172    1.485   .     S
C137   C658    1.402   1_554 S
C137   C660    1.431   1_554 S
C138   C139    1.406   .     A
C138   C659    1.431   .     S
C138   C662    1.417   .     S
C139   C143    1.413   .     A
C139   C146    1.411   .     A
C140   C144    1.390   .     A
C140   C660    1.417   1_554 S
C140   C663    1.423   1_554 S
C141   C142    1.403   .     A
C141   C653    1.411   .     S
C141   C662    1.423   .     S
C142   Br171   1.923   .     S
C142   C143    1.392   .     A
C143   H150    1.081   .     S
C144   H147    1.081   .     S
H149   C658    1.083   1_554 S
C151   C160    1.398   .     A
C151   H152    1.084   .     S
C151   C327    1.370   .     S
C153   H154    1.084   .     S
C153   C155    1.398   .     A
C153   C499    1.370   1_545 S
C155   C156    1.397   .     A
C156   H157    1.084   .     S
C156   C506    1.370   1_545 S
C158   C160    1.398   .     A
C158   H159    1.084   .     S
C158   C330    1.370   .     S
C161   N170    1.366   .     A
C161   H162    1.082   .     S
C161   C47     1.415   1_655 S
C163   H164    1.081   .     S
C163   N165    1.366   .     A
N165   C166    1.366   .     A
C166   H167    1.082   .     S
C168   N170    1.366   .     A
C168   H169    1.082   .     S
C168   C50     1.415   1_655 S
C172   H173    1.085   .     S
C172   O174    1.221   .     D
O175   Zn181   2.000   .     S
O175   C177    1.282   .     A
O176   C177    1.283   .     A
O176   Zn182   2.000   .     S
C177   C218    1.420   .     S
O178   Zn181   1.952   .     S
O178   C180    1.290   .     A
O179   Zn182   1.907   .     S
O179   C180    1.292   .     A
C180   C204    1.461   .     S
Zn181  O185    1.907   .     S
Zn181  N223    2.008   .     S
Zn181  O183    2.000   .     S
Zn182  O186    1.952   .     S
Zn182  O184    2.000   .     S
Zn182  N228    2.008   .     S
O183   C187    1.283   .     A
O184   C187    1.282   .     A
O185   C188    1.291   .     A
O186   C188    1.291   .     A
C187   C213    1.419   .     S
C188   C192    1.454   .     S
C189   C203    1.396   .     A
C189   H713    1.081   1_554 S
C189   C721    1.411   1_554 S
H190   C203    1.083   .     S
H191   C711    1.081   .     S
C192   C203    1.399   .     A
C192   C202    1.387   .     A
C193   H206    1.084   .     S
C193   C204    1.400   .     A
C193   C194    1.386   .     A
C194   C717    1.402   .     S
C194   H729    1.083   .     S
C195   C230    1.485   .     S
C195   C716    1.402   1_554 S
C195   C718    1.431   1_554 S
C196   C197    1.406   .     A
C196   C717    1.431   .     S
C196   C720    1.417   .     S
C197   C201    1.413   .     A
C197   C204    1.411   .     A
C198   C202    1.390   .     A
C198   C718    1.417   1_554 S
C198   C721    1.423   1_554 S
C199   C200    1.403   .     A
C199   C711    1.411   .     S
C199   C720    1.423   .     S
C200   Br229   1.923   .     S
C200   C201    1.392   .     A
C201   H208    1.081   .     S
C202   H205    1.081   .     S
H207   C716    1.083   1_554 S
C209   C218    1.398   .     A
C209   H210    1.084   .     S
C209   C385    1.370   .     S
C211   H212    1.084   .     S
C211   C213    1.398   .     A
C213   C214    1.397   .     A
C214   H215    1.084   .     S
C216   C218    1.398   .     A
C216   H217    1.084   .     S
C216   C388    1.370   .     S
C219   N228    1.366   .     A
C219   H220    1.082   .     S
C219   C279    1.415   .     S
C221   H222    1.081   .     S
C221   N223    1.366   .     A
C221   C335    1.415   1_455 S
N223   C224    1.366   .     A
C224   H225    1.082   .     S
C224   C342    1.415   1_455 S
C226   N228    1.366   .     A
C226   H227    1.082   .     S
C226   C282    1.415   .     S
C230   H231    1.085   .     S
C230   O232    1.221   .     D
O233   Zn239   2.000   .     S
O233   C235    1.282   .     A
O234   C235    1.283   .     A
O234   Zn240   2.000   .     S
C235   C276    1.420   .     S
O236   Zn239   1.952   .     S
O236   C238    1.290   .     A
O237   Zn240   1.907   .     S
O237   C238    1.292   .     A
C238   C262    1.461   .     S
Zn239  O243    1.907   .     S
Zn239  N281    2.008   .     S
Zn239  O241    2.000   .     S
Zn240  O244    1.952   .     S
Zn240  O242    2.000   .     S
Zn240  N286    2.008   .     S
O241   C245    1.283   .     A
O242   C245    1.282   .     A
O243   C246    1.291   .     A
O244   C246    1.291   .     A
C245   C271    1.419   .     S
C246   C250    1.454   .     S
C247   C261    1.396   .     A
C247   H771    1.081   1_554 S
C247   C779    1.411   1_554 S
H248   C261    1.083   .     S
H249   C769    1.081   .     S
C250   C261    1.399   .     A
C250   C260    1.387   .     A
C251   H264    1.084   .     S
C251   C262    1.400   .     A
C251   C252    1.386   .     A
C252   C775    1.402   .     S
C252   H787    1.083   .     S
C253   C288    1.485   .     S
C253   C774    1.402   1_554 S
C253   C776    1.431   1_554 S
C254   C255    1.406   .     A
C254   C775    1.431   .     S
C254   C778    1.417   .     S
C255   C259    1.413   .     A
C255   C262    1.411   .     A
C256   C260    1.390   .     A
C256   C776    1.417   1_554 S
C256   C779    1.423   1_554 S
C257   C258    1.403   .     A
C257   C769    1.411   .     S
C257   C778    1.423   .     S
C258   Br287   1.923   .     S
C258   C259    1.392   .     A
C259   H266    1.081   .     S
C260   H263    1.081   .     S
H265   C774    1.083   1_554 S
C267   C276    1.398   .     A
C267   H268    1.084   .     S
C267   C443    1.370   .     S
C269   H270    1.084   .     S
C269   C271    1.398   .     A
C271   C272    1.397   .     A
C272   H273    1.084   .     S
C274   C276    1.398   .     A
C274   H275    1.084   .     S
C274   C446    1.370   .     S
C277   N286    1.366   .     A
C277   H278    1.082   .     S
C277   C337    1.415   .     S
C279   H280    1.081   .     S
C279   N281    1.366   .     A
N281   C282    1.366   .     A
C282   H283    1.082   .     S
C284   N286    1.366   .     A
C284   H285    1.082   .     S
C284   C340    1.415   .     S
C288   H289    1.085   .     S
C288   O290    1.221   .     D
O291   Zn297   2.000   .     S
O291   C293    1.282   .     A
O292   C293    1.283   .     A
O292   Zn298   2.000   .     S
C293   C334    1.420   .     S
O294   Zn297   1.952   .     S
O294   C296    1.290   .     A
O295   Zn298   1.907   .     S
O295   C296    1.292   .     A
C296   C320    1.461   .     S
Zn297  O301    1.907   .     S
Zn297  N339    2.008   .     S
Zn297  O299    2.000   .     S
Zn298  O302    1.952   .     S
Zn298  O300    2.000   .     S
Zn298  N344    2.008   .     S
O299   C303    1.283   .     A
O300   C303    1.282   .     A
O301   C304    1.291   .     A
O302   C304    1.291   .     A
C303   C329    1.419   .     S
C304   C308    1.454   .     S
C305   C319    1.396   .     A
C305   H829    1.081   1_554 S
C305   C837    1.411   1_554 S
H306   C319    1.083   .     S
H307   C827    1.081   .     S
C308   C319    1.399   .     A
C308   C318    1.387   .     A
C309   H322    1.084   .     S
C309   C320    1.400   .     A
C309   C310    1.386   .     A
C310   C833    1.402   .     S
C310   H845    1.083   .     S
C311   C346    1.485   .     S
C311   C832    1.402   1_554 S
C311   C834    1.431   1_554 S
C312   C313    1.406   .     A
C312   C833    1.431   .     S
C312   C836    1.417   .     S
C313   C317    1.413   .     A
C313   C320    1.411   .     A
C314   C318    1.390   .     A
C314   C834    1.417   1_554 S
C314   C837    1.423   1_554 S
C315   C316    1.403   .     A
C315   C827    1.411   .     S
C315   C836    1.423   .     S
C316   Br345   1.923   .     S
C316   C317    1.392   .     A
C317   H324    1.081   .     S
C318   H321    1.081   .     S
H323   C832    1.083   1_554 S
C325   C334    1.398   .     A
C325   H326    1.084   .     S
C325   C501    1.370   .     S
C327   H328    1.084   .     S
C327   C329    1.398   .     A
C329   C330    1.397   .     A
C330   H331    1.084   .     S
C332   C334    1.398   .     A
C332   H333    1.084   .     S
C332   C504    1.370   .     S
C335   N344    1.366   .     A
C335   H336    1.082   .     S
C335   C221    1.415   1_655 S
C337   H338    1.081   .     S
C337   N339    1.366   .     A
N339   C340    1.366   .     A
C340   H341    1.082   .     S
C342   N344    1.366   .     A
C342   H343    1.082   .     S
C342   C224    1.415   1_655 S
C346   H347    1.085   .     S
C346   O348    1.221   .     D
O349   Zn355   2.000   .     S
O349   C351    1.282   .     A
O350   C351    1.283   .     A
O350   Zn356   2.000   .     S
C351   C392    1.420   .     S
O352   Zn355   1.952   .     S
O352   C354    1.290   .     A
O353   Zn356   1.907   .     S
O353   C354    1.292   .     A
C354   C378    1.461   .     S
Zn355  O359    1.907   .     S
Zn355  N397    2.008   .     S
Zn355  O357    2.000   .     S
Zn356  O360    1.952   .     S
Zn356  O358    2.000   .     S
Zn356  N402    2.008   .     S
O357   C361    1.283   .     A
O358   C361    1.282   .     A
O359   C362    1.291   .     A
O360   C362    1.291   .     A
C361   C387    1.419   .     S
C362   C366    1.454   .     S
C363   C377    1.396   .     A
C363   H887    1.081   1_554 S
C363   C895    1.411   1_554 S
H364   C377    1.083   .     S
H365   C885    1.081   .     S
C366   C377    1.399   .     A
C366   C376    1.387   .     A
C367   H380    1.084   .     S
C367   C378    1.400   .     A
C367   C368    1.386   .     A
C368   C891    1.402   .     S
C368   H903    1.083   .     S
C369   C404    1.485   .     S
C369   C890    1.402   1_554 S
C369   C892    1.431   1_554 S
C370   C371    1.406   .     A
C370   C891    1.431   .     S
C370   C894    1.417   .     S
C371   C375    1.413   .     A
C371   C378    1.411   .     A
C372   C376    1.390   .     A
C372   C892    1.417   1_554 S
C372   C895    1.423   1_554 S
C373   C374    1.403   .     A
C373   C885    1.411   .     S
C373   C894    1.423   .     S
C374   Br403   1.923   .     S
C374   C375    1.392   .     A
C375   H382    1.081   .     S
C376   H379    1.081   .     S
H381   C890    1.083   1_554 S
C383   C392    1.398   .     A
C383   H384    1.084   .     S
C383   C37     1.370   1_565 S
C385   H386    1.084   .     S
C385   C387    1.398   .     A
C387   C388    1.397   .     A
C388   H389    1.084   .     S
C390   C392    1.398   .     A
C390   H391    1.084   .     S
C390   C40     1.370   1_565 S
C393   N402    1.366   .     A
C393   H394    1.082   .     S
C393   C453    1.415   .     S
C395   H396    1.081   .     S
C395   N397    1.366   .     A
C395   C509    1.415   1_455 S
N397   C398    1.366   .     A
C398   H399    1.082   .     S
C398   C516    1.415   1_455 S
C400   N402    1.366   .     A
C400   H401    1.082   .     S
C400   C456    1.415   .     S
C404   H405    1.085   .     S
C404   O406    1.221   .     D
O407   Zn413   2.000   .     S
O407   C409    1.282   .     A
O408   C409    1.283   .     A
O408   Zn414   2.000   .     S
C409   C450    1.420   .     S
O410   Zn413   1.952   .     S
O410   C412    1.290   .     A
O411   Zn414   1.907   .     S
O411   C412    1.292   .     A
C412   C436    1.461   .     S
Zn413  O417    1.907   .     S
Zn413  N455    2.008   .     S
Zn413  O415    2.000   .     S
Zn414  O418    1.952   .     S
Zn414  O416    2.000   .     S
Zn414  N460    2.008   .     S
O415   C419    1.283   .     A
O416   C419    1.282   .     A
O417   C420    1.291   .     A
O418   C420    1.291   .     A
C419   C445    1.419   .     S
C420   C424    1.454   .     S
C421   C435    1.396   .     A
C421   H945    1.081   1_554 S
C421   C953    1.411   1_554 S
H422   C435    1.083   .     S
H423   C943    1.081   .     S
C424   C435    1.399   .     A
C424   C434    1.387   .     A
C425   H438    1.084   .     S
C425   C436    1.400   .     A
C425   C426    1.386   .     A
C426   C949    1.402   .     S
C426   H961    1.083   .     S
C427   C462    1.485   .     S
C427   C948    1.402   1_554 S
C427   C950    1.431   1_554 S
C428   C429    1.406   .     A
C428   C949    1.431   .     S
C428   C952    1.417   .     S
C429   C433    1.413   .     A
C429   C436    1.411   .     A
C430   C434    1.390   .     A
C430   C950    1.417   1_554 S
C430   C953    1.423   1_554 S
C431   C432    1.403   .     A
C431   C943    1.411   .     S
C431   C952    1.423   .     S
C432   Br461   1.923   .     S
C432   C433    1.392   .     A
C433   H440    1.081   .     S
C434   H437    1.081   .     S
H439   C948    1.083   1_554 S
C441   C450    1.398   .     A
C441   H442    1.084   .     S
C441   C95     1.370   1_565 S
C443   H444    1.084   .     S
C443   C445    1.398   .     A
C445   C446    1.397   .     A
C446   H447    1.084   .     S
C448   C450    1.398   .     A
C448   H449    1.084   .     S
C448   C98     1.370   1_565 S
C451   N460    1.366   .     A
C451   H452    1.082   .     S
C451   C511    1.415   .     S
C453   H454    1.081   .     S
C453   N455    1.366   .     A
N455   C456    1.366   .     A
C456   H457    1.082   .     S
C458   N460    1.366   .     A
C458   H459    1.082   .     S
C458   C514    1.415   .     S
C462   H463    1.085   .     S
C462   O464    1.221   .     D
O465   Zn471   2.000   .     S
O465   C467    1.282   .     A
O466   C467    1.283   .     A
O466   Zn472   2.000   .     S
C467   C508    1.420   .     S
O468   Zn471   1.952   .     S
O468   C470    1.290   .     A
O469   Zn472   1.907   .     S
O469   C470    1.292   .     A
C470   C494    1.461   .     S
Zn471  O475    1.907   .     S
Zn471  N513    2.008   .     S
Zn471  O473    2.000   .     S
Zn472  O476    1.952   .     S
Zn472  O474    2.000   .     S
Zn472  N518    2.008   .     S
O473   C477    1.283   .     A
O474   C477    1.282   .     A
O475   C478    1.291   .     A
O476   C478    1.291   .     A
C477   C503    1.419   .     S
C478   C482    1.454   .     S
C479   C493    1.396   .     A
C479   H1003   1.081   1_554 S
C479   C1011   1.411   1_554 S
H480   C493    1.083   .     S
H481   C1001   1.081   .     S
C482   C493    1.399   .     A
C482   C492    1.387   .     A
C483   H496    1.084   .     S
C483   C494    1.400   .     A
C483   C484    1.386   .     A
C484   C1007   1.402   .     S
C484   H1019   1.083   .     S
C485   C520    1.485   .     S
C485   C1006   1.402   1_554 S
C485   C1008   1.431   1_554 S
C486   C487    1.406   .     A
C486   C1007   1.431   .     S
C486   C1010   1.417   .     S
C487   C491    1.413   .     A
C487   C494    1.411   .     A
C488   C492    1.390   .     A
C488   C1008   1.417   1_554 S
C488   C1011   1.423   1_554 S
C489   C490    1.403   .     A
C489   C1001   1.411   .     S
C489   C1010   1.423   .     S
C490   Br519   1.923   .     S
C490   C491    1.392   .     A
C491   H498    1.081   .     S
C492   H495    1.081   .     S
H497   C1006   1.083   1_554 S
C499   C508    1.398   .     A
C499   H500    1.084   .     S
C499   C153    1.370   1_565 S
C501   H502    1.084   .     S
C501   C503    1.398   .     A
C503   C504    1.397   .     A
C504   H505    1.084   .     S
C506   C508    1.398   .     A
C506   H507    1.084   .     S
C506   C156    1.370   1_565 S
C509   N518    1.366   .     A
C509   H510    1.082   .     S
C509   C395    1.415   1_655 S
C511   H512    1.081   .     S
C511   N513    1.366   .     A
N513   C514    1.366   .     A
C514   H515    1.082   .     S
C516   N518    1.366   .     A
C516   H517    1.082   .     S
C516   C398    1.415   1_655 S
C520   H521    1.085   .     S
C520   O522    1.221   .     D
O523   Zn529   2.000   .     S
O523   C525    1.282   .     A
O524   C525    1.283   .     A
O524   Zn530   2.000   .     S
C525   C566    1.420   .     S
O526   Zn529   1.952   .     S
O526   C528    1.290   .     A
O527   Zn530   1.907   .     S
O527   C528    1.292   .     A
C528   C552    1.461   .     S
Zn529  O533    1.907   .     S
Zn529  N571    2.008   .     S
Zn529  O531    2.000   .     S
Zn530  O534    1.952   .     S
Zn530  O532    2.000   .     S
Zn530  N576    2.008   .     S
O531   C535    1.283   .     A
O532   C535    1.282   .     A
O533   C536    1.291   .     A
O534   C536    1.291   .     A
C535   C561    1.419   .     S
C536   C540    1.454   .     S
C537   C551    1.396   .     A
H538   C551    1.083   .     S
H539   C15     1.081   1_556 S
C540   C551    1.399   .     A
C540   C550    1.387   .     A
C541   H554    1.084   .     S
C541   C552    1.400   .     A
C541   C542    1.386   .     A
C542   C21     1.402   1_556 S
C542   H33     1.083   1_556 S
C543   C578    1.485   .     S
C544   C545    1.406   .     A
C544   C21     1.431   1_556 S
C544   C24     1.417   1_556 S
C545   C549    1.413   .     A
C545   C552    1.411   .     A
C546   C550    1.390   .     A
C547   C548    1.403   .     A
C547   C15     1.411   1_556 S
C547   C24     1.423   1_556 S
C548   Br577   1.923   .     S
C548   C549    1.392   .     A
C549   H556    1.081   .     S
C550   H553    1.081   .     S
C557   C566    1.398   .     A
C557   H558    1.084   .     S
C557   C733    1.370   .     S
C559   H560    1.084   .     S
C559   C561    1.398   .     A
C559   C905    1.370   1_545 S
C561   C562    1.397   .     A
C562   H563    1.084   .     S
C562   C912    1.370   1_545 S
C564   C566    1.398   .     A
C564   H565    1.084   .     S
C564   C736    1.370   .     S
C567   N576    1.366   .     A
C567   H568    1.082   .     S
C567   C627    1.415   .     S
C569   H570    1.081   .     S
C569   N571    1.366   .     A
C569   C683    1.415   1_455 S
N571   C572    1.366   .     A
C572   H573    1.082   .     S
C572   C690    1.415   1_455 S
C574   N576    1.366   .     A
C574   H575    1.082   .     S
C574   C630    1.415   .     S
C578   H579    1.085   .     S
C578   O580    1.221   .     D
O581   Zn587   2.000   .     S
O581   C583    1.282   .     A
O582   C583    1.283   .     A
O582   Zn588   2.000   .     S
C583   C624    1.420   .     S
O584   Zn587   1.952   .     S
O584   C586    1.290   .     A
O585   Zn588   1.907   .     S
O585   C586    1.292   .     A
C586   C610    1.461   .     S
Zn587  O591    1.907   .     S
Zn587  N629    2.008   .     S
Zn587  O589    2.000   .     S
Zn588  O592    1.952   .     S
Zn588  O590    2.000   .     S
Zn588  N634    2.008   .     S
O589   C593    1.283   .     A
O590   C593    1.282   .     A
O591   C594    1.291   .     A
O592   C594    1.291   .     A
C593   C619    1.419   .     S
C594   C598    1.454   .     S
C595   C609    1.396   .     A
H596   C609    1.083   .     S
H597   C73     1.081   1_556 S
C598   C609    1.399   .     A
C598   C608    1.387   .     A
C599   H612    1.084   .     S
C599   C610    1.400   .     A
C599   C600    1.386   .     A
C600   C79     1.402   1_556 S
C600   H91     1.083   1_556 S
C601   C636    1.485   .     S
C602   C603    1.406   .     A
C602   C79     1.431   1_556 S
C602   C82     1.417   1_556 S
C603   C607    1.413   .     A
C603   C610    1.411   .     A
C604   C608    1.390   .     A
C605   C606    1.403   .     A
C605   C73     1.411   1_556 S
C605   C82     1.423   1_556 S
C606   Br635   1.923   .     S
C606   C607    1.392   .     A
C607   H614    1.081   .     S
C608   H611    1.081   .     S
C615   C624    1.398   .     A
C615   H616    1.084   .     S
C615   C791    1.370   .     S
C617   H618    1.084   .     S
C617   C619    1.398   .     A
C617   C963    1.370   1_545 S
C619   C620    1.397   .     A
C620   H621    1.084   .     S
C620   C970    1.370   1_545 S
C622   C624    1.398   .     A
C622   H623    1.084   .     S
C622   C794    1.370   .     S
C625   N634    1.366   .     A
C625   H626    1.082   .     S
C625   C685    1.415   .     S
C627   H628    1.081   .     S
C627   N629    1.366   .     A
N629   C630    1.366   .     A
C630   H631    1.082   .     S
C632   N634    1.366   .     A
C632   H633    1.082   .     S
C632   C688    1.415   .     S
C636   H637    1.085   .     S
C636   O638    1.221   .     D
O639   Zn645   2.000   .     S
O639   C641    1.282   .     A
O640   C641    1.283   .     A
O640   Zn646   2.000   .     S
C641   C682    1.420   .     S
O642   Zn645   1.952   .     S
O642   C644    1.290   .     A
O643   Zn646   1.907   .     S
O643   C644    1.292   .     A
C644   C668    1.461   .     S
Zn645  O649    1.907   .     S
Zn645  N687    2.008   .     S
Zn645  O647    2.000   .     S
Zn646  O650    1.952   .     S
Zn646  O648    2.000   .     S
Zn646  N692    2.008   .     S
O647   C651    1.283   .     A
O648   C651    1.282   .     A
O649   C652    1.291   .     A
O650   C652    1.291   .     A
C651   C677    1.419   .     S
C652   C656    1.454   .     S
C653   C667    1.396   .     A
H654   C667    1.083   .     S
H655   C131    1.081   1_556 S
C656   C667    1.399   .     A
C656   C666    1.387   .     A
C657   H670    1.084   .     S
C657   C668    1.400   .     A
C657   C658    1.386   .     A
C658   C137    1.402   1_556 S
C658   H149    1.083   1_556 S
C659   C694    1.485   .     S
C660   C661    1.406   .     A
C660   C137    1.431   1_556 S
C660   C140    1.417   1_556 S
C661   C665    1.413   .     A
C661   C668    1.411   .     A
C662   C666    1.390   .     A
C663   C664    1.403   .     A
C663   C131    1.411   1_556 S
C663   C140    1.423   1_556 S
C664   Br693   1.923   .     S
C664   C665    1.392   .     A
C665   H672    1.081   .     S
C666   H669    1.081   .     S
C673   C682    1.398   .     A
C673   H674    1.084   .     S
C673   C849    1.370   .     S
C675   H676    1.084   .     S
C675   C677    1.398   .     A
C675   C1021   1.370   1_545 S
C677   C678    1.397   .     A
C678   H679    1.084   .     S
C678   C1028   1.370   1_545 S
C680   C682    1.398   .     A
C680   H681    1.084   .     S
C680   C852    1.370   .     S
C683   N692    1.366   .     A
C683   H684    1.082   .     S
C683   C569    1.415   1_655 S
C685   H686    1.081   .     S
C685   N687    1.366   .     A
N687   C688    1.366   .     A
C688   H689    1.082   .     S
C690   N692    1.366   .     A
C690   H691    1.082   .     S
C690   C572    1.415   1_655 S
C694   H695    1.085   .     S
C694   O696    1.221   .     D
O697   Zn703   2.000   .     S
O697   C699    1.282   .     A
O698   C699    1.283   .     A
O698   Zn704   2.000   .     S
C699   C740    1.420   .     S
O700   Zn703   1.952   .     S
O700   C702    1.290   .     A
O701   Zn704   1.907   .     S
O701   C702    1.292   .     A
C702   C726    1.461   .     S
Zn703  O707    1.907   .     S
Zn703  N745    2.008   .     S
Zn703  O705    2.000   .     S
Zn704  O708    1.952   .     S
Zn704  O706    2.000   .     S
Zn704  N750    2.008   .     S
O705   C709    1.283   .     A
O706   C709    1.282   .     A
O707   C710    1.291   .     A
O708   C710    1.291   .     A
C709   C735    1.419   .     S
C710   C714    1.454   .     S
C711   C725    1.396   .     A
H712   C725    1.083   .     S
H713   C189    1.081   1_556 S
C714   C725    1.399   .     A
C714   C724    1.387   .     A
C715   H728    1.084   .     S
C715   C726    1.400   .     A
C715   C716    1.386   .     A
C716   C195    1.402   1_556 S
C716   H207    1.083   1_556 S
C717   C752    1.485   .     S
C718   C719    1.406   .     A
C718   C195    1.431   1_556 S
C718   C198    1.417   1_556 S
C719   C723    1.413   .     A
C719   C726    1.411   .     A
C720   C724    1.390   .     A
C721   C722    1.403   .     A
C721   C189    1.411   1_556 S
C721   C198    1.423   1_556 S
C722   Br751   1.923   .     S
C722   C723    1.392   .     A
C723   H730    1.081   .     S
C724   H727    1.081   .     S
C731   C740    1.398   .     A
C731   H732    1.084   .     S
C731   C907    1.370   .     S
C733   H734    1.084   .     S
C733   C735    1.398   .     A
C735   C736    1.397   .     A
C736   H737    1.084   .     S
C738   C740    1.398   .     A
C738   H739    1.084   .     S
C738   C910    1.370   .     S
C741   N750    1.366   .     A
C741   H742    1.082   .     S
C741   C801    1.415   .     S
C743   H744    1.081   .     S
C743   N745    1.366   .     A
C743   C857    1.415   1_455 S
N745   C746    1.366   .     A
C746   H747    1.082   .     S
C746   C864    1.415   1_455 S
C748   N750    1.366   .     A
C748   H749    1.082   .     S
C748   C804    1.415   .     S
C752   H753    1.085   .     S
C752   O754    1.221   .     D
O755   Zn761   2.000   .     S
O755   C757    1.282   .     A
O756   C757    1.283   .     A
O756   Zn762   2.000   .     S
C757   C798    1.420   .     S
O758   Zn761   1.952   .     S
O758   C760    1.290   .     A
O759   Zn762   1.907   .     S
O759   C760    1.292   .     A
C760   C784    1.461   .     S
Zn761  O765    1.907   .     S
Zn761  N803    2.008   .     S
Zn761  O763    2.000   .     S
Zn762  O766    1.952   .     S
Zn762  O764    2.000   .     S
Zn762  N808    2.008   .     S
O763   C767    1.283   .     A
O764   C767    1.282   .     A
O765   C768    1.291   .     A
O766   C768    1.291   .     A
C767   C793    1.419   .     S
C768   C772    1.454   .     S
C769   C783    1.396   .     A
H770   C783    1.083   .     S
H771   C247    1.081   1_556 S
C772   C783    1.399   .     A
C772   C782    1.387   .     A
C773   H786    1.084   .     S
C773   C784    1.400   .     A
C773   C774    1.386   .     A
C774   C253    1.402   1_556 S
C774   H265    1.083   1_556 S
C775   C810    1.485   .     S
C776   C777    1.406   .     A
C776   C253    1.431   1_556 S
C776   C256    1.417   1_556 S
C777   C781    1.413   .     A
C777   C784    1.411   .     A
C778   C782    1.390   .     A
C779   C780    1.403   .     A
C779   C247    1.411   1_556 S
C779   C256    1.423   1_556 S
C780   Br809   1.923   .     S
C780   C781    1.392   .     A
C781   H788    1.081   .     S
C782   H785    1.081   .     S
C789   C798    1.398   .     A
C789   H790    1.084   .     S
C789   C965    1.370   .     S
C791   H792    1.084   .     S
C791   C793    1.398   .     A
C793   C794    1.397   .     A
C794   H795    1.084   .     S
C796   C798    1.398   .     A
C796   H797    1.084   .     S
C796   C968    1.370   .     S
C799   N808    1.366   .     A
C799   H800    1.082   .     S
C799   C859    1.415   .     S
C801   H802    1.081   .     S
C801   N803    1.366   .     A
N803   C804    1.366   .     A
C804   H805    1.082   .     S
C806   N808    1.366   .     A
C806   H807    1.082   .     S
C806   C862    1.415   .     S
C810   H811    1.085   .     S
C810   O812    1.221   .     D
O813   Zn819   2.000   .     S
O813   C815    1.282   .     A
O814   C815    1.283   .     A
O814   Zn820   2.000   .     S
C815   C856    1.420   .     S
O816   Zn819   1.952   .     S
O816   C818    1.290   .     A
O817   Zn820   1.907   .     S
O817   C818    1.292   .     A
C818   C842    1.461   .     S
Zn819  O823    1.907   .     S
Zn819  N861    2.008   .     S
Zn819  O821    2.000   .     S
Zn820  O824    1.952   .     S
Zn820  O822    2.000   .     S
Zn820  N866    2.008   .     S
O821   C825    1.283   .     A
O822   C825    1.282   .     A
O823   C826    1.291   .     A
O824   C826    1.291   .     A
C825   C851    1.419   .     S
C826   C830    1.454   .     S
C827   C841    1.396   .     A
H828   C841    1.083   .     S
H829   C305    1.081   1_556 S
C830   C841    1.399   .     A
C830   C840    1.387   .     A
C831   H844    1.084   .     S
C831   C842    1.400   .     A
C831   C832    1.386   .     A
C832   C311    1.402   1_556 S
C832   H323    1.083   1_556 S
C833   C868    1.485   .     S
C834   C835    1.406   .     A
C834   C311    1.431   1_556 S
C834   C314    1.417   1_556 S
C835   C839    1.413   .     A
C835   C842    1.411   .     A
C836   C840    1.390   .     A
C837   C838    1.403   .     A
C837   C305    1.411   1_556 S
C837   C314    1.423   1_556 S
C838   Br867   1.923   .     S
C838   C839    1.392   .     A
C839   H846    1.081   .     S
C840   H843    1.081   .     S
C847   C856    1.398   .     A
C847   H848    1.084   .     S
C847   C1023   1.370   .     S
C849   H850    1.084   .     S
C849   C851    1.398   .     A
C851   C852    1.397   .     A
C852   H853    1.084   .     S
C854   C856    1.398   .     A
C854   H855    1.084   .     S
C854   C1026   1.370   .     S
C857   N866    1.366   .     A
C857   H858    1.082   .     S
C857   C743    1.415   1_655 S
C859   H860    1.081   .     S
C859   N861    1.366   .     A
N861   C862    1.366   .     A
C862   H863    1.082   .     S
C864   N866    1.366   .     A
C864   H865    1.082   .     S
C864   C746    1.415   1_655 S
C868   H869    1.085   .     S
C868   O870    1.221   .     D
O871   Zn877   2.000   .     S
O871   C873    1.282   .     A
O872   C873    1.283   .     A
O872   Zn878   2.000   .     S
C873   C914    1.420   .     S
O874   Zn877   1.952   .     S
O874   C876    1.290   .     A
O875   Zn878   1.907   .     S
O875   C876    1.292   .     A
C876   C900    1.461   .     S
Zn877  O881    1.907   .     S
Zn877  N919    2.008   .     S
Zn877  O879    2.000   .     S
Zn878  O882    1.952   .     S
Zn878  O880    2.000   .     S
Zn878  N924    2.008   .     S
O879   C883    1.283   .     A
O880   C883    1.282   .     A
O881   C884    1.291   .     A
O882   C884    1.291   .     A
C883   C909    1.419   .     S
C884   C888    1.454   .     S
C885   C899    1.396   .     A
H886   C899    1.083   .     S
H887   C363    1.081   1_556 S
C888   C899    1.399   .     A
C888   C898    1.387   .     A
C889   H902    1.084   .     S
C889   C900    1.400   .     A
C889   C890    1.386   .     A
C890   C369    1.402   1_556 S
C890   H381    1.083   1_556 S
C891   C926    1.485   .     S
C892   C893    1.406   .     A
C892   C369    1.431   1_556 S
C892   C372    1.417   1_556 S
C893   C897    1.413   .     A
C893   C900    1.411   .     A
C894   C898    1.390   .     A
C895   C896    1.403   .     A
C895   C363    1.411   1_556 S
C895   C372    1.423   1_556 S
C896   Br925   1.923   .     S
C896   C897    1.392   .     A
C897   H904    1.081   .     S
C898   H901    1.081   .     S
C905   C914    1.398   .     A
C905   H906    1.084   .     S
C905   C559    1.370   1_565 S
C907   H908    1.084   .     S
C907   C909    1.398   .     A
C909   C910    1.397   .     A
C910   H911    1.084   .     S
C912   C914    1.398   .     A
C912   H913    1.084   .     S
C912   C562    1.370   1_565 S
C915   N924    1.366   .     A
C915   H916    1.082   .     S
C915   C975    1.415   .     S
C917   H918    1.081   .     S
C917   N919    1.366   .     A
C917   C1031   1.415   1_455 S
N919   C920    1.366   .     A
C920   H921    1.082   .     S
C920   C1038   1.415   1_455 S
C922   N924    1.366   .     A
C922   H923    1.082   .     S
C922   C978    1.415   .     S
C926   H927    1.085   .     S
C926   O928    1.221   .     D
O929   Zn935   2.000   .     S
O929   C931    1.282   .     A
O930   C931    1.283   .     A
O930   Zn936   2.000   .     S
C931   C972    1.420   .     S
O932   Zn935   1.952   .     S
O932   C934    1.290   .     A
O933   Zn936   1.907   .     S
O933   C934    1.292   .     A
C934   C958    1.461   .     S
Zn935  O939    1.907   .     S
Zn935  N977    2.008   .     S
Zn935  O937    2.000   .     S
Zn936  O940    1.952   .     S
Zn936  O938    2.000   .     S
Zn936  N982    2.008   .     S
O937   C941    1.283   .     A
O938   C941    1.282   .     A
O939   C942    1.291   .     A
O940   C942    1.291   .     A
C941   C967    1.419   .     S
C942   C946    1.454   .     S
C943   C957    1.396   .     A
H944   C957    1.083   .     S
H945   C421    1.081   1_556 S
C946   C957    1.399   .     A
C946   C956    1.387   .     A
C947   H960    1.084   .     S
C947   C958    1.400   .     A
C947   C948    1.386   .     A
C948   C427    1.402   1_556 S
C948   H439    1.083   1_556 S
C949   C984    1.485   .     S
C950   C951    1.406   .     A
C950   C427    1.431   1_556 S
C950   C430    1.417   1_556 S
C951   C955    1.413   .     A
C951   C958    1.411   .     A
C952   C956    1.390   .     A
C953   C954    1.403   .     A
C953   C421    1.411   1_556 S
C953   C430    1.423   1_556 S
C954   Br983   1.923   .     S
C954   C955    1.392   .     A
C955   H962    1.081   .     S
C956   H959    1.081   .     S
C963   C972    1.398   .     A
C963   H964    1.084   .     S
C963   C617    1.370   1_565 S
C965   H966    1.084   .     S
C965   C967    1.398   .     A
C967   C968    1.397   .     A
C968   H969    1.084   .     S
C970   C972    1.398   .     A
C970   H971    1.084   .     S
C970   C620    1.370   1_565 S
C973   N982    1.366   .     A
C973   H974    1.082   .     S
C973   C1033   1.415   .     S
C975   H976    1.081   .     S
C975   N977    1.366   .     A
N977   C978    1.366   .     A
C978   H979    1.082   .     S
C980   N982    1.366   .     A
C980   H981    1.082   .     S
C980   C1036   1.415   .     S
C984   H985    1.085   .     S
C984   O986    1.221   .     D
O987   Zn993   2.000   .     S
O987   C989    1.282   .     A
O988   C989    1.283   .     A
O988   Zn994   2.000   .     S
C989   C1030   1.420   .     S
O990   Zn993   1.952   .     S
O990   C992    1.290   .     A
O991   Zn994   1.907   .     S
O991   C992    1.292   .     A
C992   C1016   1.461   .     S
Zn993  O997    1.907   .     S
Zn993  N1035   2.008   .     S
Zn993  O995    2.000   .     S
Zn994  O998    1.952   .     S
Zn994  O996    2.000   .     S
Zn994  N1040   2.008   .     S
O995   C999    1.283   .     A
O996   C999    1.282   .     A
O997   C1000   1.291   .     A
O998   C1000   1.291   .     A
C999   C1025   1.419   .     S
C1000  C1004   1.454   .     S
C1001  C1015   1.396   .     A
H1002  C1015   1.083   .     S
H1003  C479    1.081   1_556 S
C1004  C1015   1.399   .     A
C1004  C1014   1.387   .     A
C1005  H1018   1.084   .     S
C1005  C1016   1.400   .     A
C1005  C1006   1.386   .     A
C1006  C485    1.402   1_556 S
C1006  H497    1.083   1_556 S
C1007  C1042   1.485   .     S
C1008  C1009   1.406   .     A
C1008  C485    1.431   1_556 S
C1008  C488    1.417   1_556 S
C1009  C1013   1.413   .     A
C1009  C1016   1.411   .     A
C1010  C1014   1.390   .     A
C1011  C1012   1.403   .     A
C1011  C479    1.411   1_556 S
C1011  C488    1.423   1_556 S
C1012  Br1041  1.923   .     S
C1012  C1013   1.392   .     A
C1013  H1020   1.081   .     S
C1014  H1017   1.081   .     S
C1021  C1030   1.398   .     A
C1021  H1022   1.084   .     S
C1021  C675    1.370   1_565 S
C1023  H1024   1.084   .     S
C1023  C1025   1.398   .     A
C1025  C1026   1.397   .     A
C1026  H1027   1.084   .     S
C1028  C1030   1.398   .     A
C1028  H1029   1.084   .     S
C1028  C678    1.370   1_565 S
C1031  N1040   1.366   .     A
C1031  H1032   1.082   .     S
C1031  C917    1.415   1_655 S
C1033  H1034   1.081   .     S
C1033  N1035   1.366   .     A
N1035  C1036   1.366   .     A
C1036  H1037   1.082   .     S
C1038  N1040   1.366   .     A
C1038  H1039   1.082   .     S
C1038  C920    1.415   1_655 S
C1042  H1043   1.085   .     S
C1042  O1044   1.221   .     D
