data_str_m2_o1_o17_pcu_sym.178
_audit_creation_date              2020-01-03
_audit_creation_method            'Materials Studio'
_symmetry_space_group_name_H-M    'P1'
_symmetry_Int_Tables_number       1
_symmetry_cell_setting            triclinic
loop_
_symmetry_equiv_pos_as_xyz
  x,y,z
_cell_length_a                    32.3833
_cell_length_b                    28.5548
_cell_length_c                    30.1520
_cell_angle_alpha                 90.6155
_cell_angle_beta                  90.1357
_cell_angle_gamma                 90.1221
loop_
_atom_site_label
_atom_site_type_symbol
_atom_site_fract_x
_atom_site_fract_y
_atom_site_fract_z
_atom_site_U_iso_or_equiv
_atom_site_adp_type
_atom_site_occupancy
C1     C     0.08747   0.16663   0.24996   0.00000  Uiso   1.00
C2     C     0.24587   0.16670   0.25002   0.00000  Uiso   1.00
C3     C     0.11730   0.23114   0.02500   0.00000  Uiso   1.00
C4     C     0.21524   0.10161   0.47472   0.00000  Uiso   1.00
C5     C     0.02164   0.13868   0.28052   0.00000  Uiso   1.00
C6     C     0.31170   0.19464   0.21944   0.00000  Uiso   1.00
C7     C     0.31172   0.13874   0.28056   0.00000  Uiso   1.00
C8     C     0.02162   0.19457   0.21938   0.00000  Uiso   1.00
C9     C     0.29050   0.16674   0.25003   0.00000  Uiso   1.00
C10    C     0.04284   0.16659   0.24993   0.00000  Uiso   1.00
C11    C     0.14149   0.02443   0.22190   0.00000  Uiso   1.00
C12    C     0.19185   0.30890   0.27810   0.00000  Uiso   1.00
C13    C     0.19186   0.02518   0.27809   0.00000  Uiso   1.00
C14    C     0.14148   0.30815   0.22191   0.00000  Uiso   1.00
C15    C     0.16759   0.16637   0.16442   0.00000  Uiso   1.00
C16    C     0.16573   0.16696   0.33558   0.00000  Uiso   1.00
C17    C     0.18925   0.13514   0.40612   0.00000  Uiso   1.00
C18    C     0.14377   0.19805   0.09393   0.00000  Uiso   1.00
C19    C     0.16486   0.16759   0.38387   0.00000  Uiso   1.00
C20    C     0.16831   0.16569   0.11613   0.00000  Uiso   1.00
C21    C     0.13999   0.19960   0.40771   0.00000  Uiso   1.00
C22    C     0.19307   0.13361   0.09226   0.00000  Uiso   1.00
C23    C     0.14066   0.19916   0.45428   0.00000  Uiso   1.00
C24    C     0.19219   0.13390   0.04569   0.00000  Uiso   1.00
C25    C     0.16591   0.16656   0.47666   0.00000  Uiso   1.00
C26    C     0.16683   0.16641   0.02336   0.00000  Uiso   1.00
C27    C     0.19020   0.13414   0.45238   0.00000  Uiso   1.00
C28    C     0.14249   0.19883   0.04765   0.00000  Uiso   1.00
C29    C     0.11663   0.23095   0.47887   0.00000  Uiso   1.00
C30    C     0.21612   0.10198   0.02108   0.00000  Uiso   1.00
Cu31   Cu    0.16667   0.21355   0.25000   0.00000  Uiso   1.00
Cu32   Cu    0.16667   0.11978   0.25000   0.00000  Uiso   1.00
H33    H     0.20810   0.11112   0.38685   0.00000  Uiso   1.00
H34    H     0.12519   0.22212   0.11337   0.00000  Uiso   1.00
H35    H     0.09712   0.25622   0.46243   0.00000  Uiso   1.00
H36    H     0.23545   0.07675   0.03779   0.00000  Uiso   1.00
H37    H     0.12132   0.04283   0.19940   0.00000  Uiso   1.00
H38    H     0.21201   0.29050   0.30060   0.00000  Uiso   1.00
H39    H     0.21203   0.04418   0.30060   0.00000  Uiso   1.00
H40    H     0.12130   0.28916   0.19940   0.00000  Uiso   1.00
N41    N     0.16667   0.28402   0.25000   0.00000  Uiso   1.00
N42    N     0.16667   0.04931   0.25000   0.00000  Uiso   1.00
O43    O     0.10655   0.20625   0.25000   0.00000  Uiso   1.00
O44    O     0.22679   0.12709   0.25001   0.00000  Uiso   1.00
O45    O     0.22679   0.20625   0.25001   0.00000  Uiso   1.00
O46    O     0.10655   0.12709   0.25000   0.00000  Uiso   1.00
O47    O     0.16666   0.20627   0.18513   0.00000  Uiso   1.00
O48    O     0.16668   0.12707   0.31487   0.00000  Uiso   1.00
O49    O     0.16668   0.20627   0.31487   0.00000  Uiso   1.00
O50    O     0.16666   0.12707   0.18513   0.00000  Uiso   1.00
N51    N     0.11302   0.23154   0.38524   0.00000  Uiso   1.00
H52    H     0.13082   0.25619   0.36846   0.00000  Uiso   1.00
H53    H     0.09475   0.21282   0.36252   0.00000  Uiso   1.00
N54    N     0.22016   0.10179   0.11470   0.00000  Uiso   1.00
H55    H     0.20247   0.07713   0.13160   0.00000  Uiso   1.00
H56    H     0.23849   0.12059   0.13730   0.00000  Uiso   1.00
N57    N     0.09199   0.26470   0.04787   0.00000  Uiso   1.00
H58    H     0.11093   0.28593   0.06778   0.00000  Uiso   1.00
H59    H     0.07115   0.24678   0.06801   0.00000  Uiso   1.00
N60    N     0.23977   0.06830   0.45025   0.00000  Uiso   1.00
H61    H     0.25947   0.05008   0.47147   0.00000  Uiso   1.00
H62    H     0.21955   0.04351   0.43646   0.00000  Uiso   1.00
N63    N     0.04439   0.11157   0.31209   0.00000  Uiso   1.00
H64    H     0.03641   0.12263   0.34409   0.00000  Uiso   1.00
H65    H     0.03631   0.07631   0.30815   0.00000  Uiso   1.00
N66    N     0.28895   0.22176   0.18786   0.00000  Uiso   1.00
H67    H     0.29692   0.21069   0.15587   0.00000  Uiso   1.00
H68    H     0.29703   0.25701   0.19180   0.00000  Uiso   1.00
N69    N     0.28900   0.11162   0.31214   0.00000  Uiso   1.00
H70    H     0.29725   0.12253   0.34415   0.00000  Uiso   1.00
H71    H     0.29679   0.07634   0.30807   0.00000  Uiso   1.00
N72    N     0.04434   0.22167   0.18778   0.00000  Uiso   1.00
H73    H     0.03609   0.21073   0.15578   0.00000  Uiso   1.00
H74    H     0.03656   0.25695   0.19182   0.00000  Uiso   1.00
C75    C     0.42080   0.16663   0.24996   0.00000  Uiso   1.00
C76    C     0.57920   0.16670   0.25002   0.00000  Uiso   1.00
C77    C     0.45063   0.23114   0.02500   0.00000  Uiso   1.00
C78    C     0.54857   0.10161   0.47472   0.00000  Uiso   1.00
C79    C     0.35497   0.13868   0.28052   0.00000  Uiso   1.00
C80    C     0.64503   0.19464   0.21944   0.00000  Uiso   1.00
C81    C     0.64505   0.13874   0.28056   0.00000  Uiso   1.00
C82    C     0.35495   0.19457   0.21938   0.00000  Uiso   1.00
C83    C     0.62383   0.16674   0.25003   0.00000  Uiso   1.00
C84    C     0.37617   0.16659   0.24993   0.00000  Uiso   1.00
C85    C     0.47482   0.02443   0.22190   0.00000  Uiso   1.00
C86    C     0.52518   0.30890   0.27810   0.00000  Uiso   1.00
C87    C     0.52519   0.02518   0.27809   0.00000  Uiso   1.00
C88    C     0.47481   0.30815   0.22191   0.00000  Uiso   1.00
C89    C     0.50092   0.16637   0.16442   0.00000  Uiso   1.00
C90    C     0.49906   0.16696   0.33558   0.00000  Uiso   1.00
C91    C     0.52258   0.13514   0.40612   0.00000  Uiso   1.00
C92    C     0.47710   0.19805   0.09393   0.00000  Uiso   1.00
C93    C     0.49819   0.16759   0.38387   0.00000  Uiso   1.00
C94    C     0.50164   0.16569   0.11613   0.00000  Uiso   1.00
C95    C     0.47332   0.19960   0.40771   0.00000  Uiso   1.00
C96    C     0.52640   0.13361   0.09226   0.00000  Uiso   1.00
C97    C     0.47400   0.19916   0.45428   0.00000  Uiso   1.00
C98    C     0.52553   0.13390   0.04569   0.00000  Uiso   1.00
C99    C     0.49924   0.16656   0.47666   0.00000  Uiso   1.00
C100   C     0.50016   0.16641   0.02336   0.00000  Uiso   1.00
C101   C     0.52353   0.13414   0.45238   0.00000  Uiso   1.00
C102   C     0.47583   0.19883   0.04765   0.00000  Uiso   1.00
C103   C     0.44996   0.23095   0.47887   0.00000  Uiso   1.00
C104   C     0.54945   0.10198   0.02108   0.00000  Uiso   1.00
Cu105  Cu    0.50000   0.21355   0.25000   0.00000  Uiso   1.00
Cu106  Cu    0.50000   0.11978   0.25000   0.00000  Uiso   1.00
H107   H     0.54144   0.11112   0.38685   0.00000  Uiso   1.00
H108   H     0.45853   0.22212   0.11337   0.00000  Uiso   1.00
H109   H     0.43045   0.25622   0.46243   0.00000  Uiso   1.00
H110   H     0.56878   0.07675   0.03779   0.00000  Uiso   1.00
H111   H     0.45465   0.04283   0.19940   0.00000  Uiso   1.00
H112   H     0.54535   0.29050   0.30060   0.00000  Uiso   1.00
H113   H     0.54537   0.04418   0.30060   0.00000  Uiso   1.00
H114   H     0.45463   0.28916   0.19940   0.00000  Uiso   1.00
N115   N     0.50000   0.28402   0.25000   0.00000  Uiso   1.00
N116   N     0.50000   0.04931   0.25000   0.00000  Uiso   1.00
O117   O     0.43988   0.20625   0.25000   0.00000  Uiso   1.00
O118   O     0.56012   0.12709   0.25001   0.00000  Uiso   1.00
O119   O     0.56012   0.20625   0.25001   0.00000  Uiso   1.00
O120   O     0.43988   0.12709   0.25000   0.00000  Uiso   1.00
O121   O     0.49999   0.20627   0.18513   0.00000  Uiso   1.00
O122   O     0.50001   0.12707   0.31487   0.00000  Uiso   1.00
O123   O     0.50001   0.20627   0.31487   0.00000  Uiso   1.00
O124   O     0.49999   0.12707   0.18513   0.00000  Uiso   1.00
N125   N     0.44635   0.23154   0.38524   0.00000  Uiso   1.00
H126   H     0.46415   0.25619   0.36846   0.00000  Uiso   1.00
H127   H     0.42809   0.21282   0.36252   0.00000  Uiso   1.00
N128   N     0.55349   0.10179   0.11470   0.00000  Uiso   1.00
H129   H     0.53580   0.07713   0.13160   0.00000  Uiso   1.00
H130   H     0.57182   0.12059   0.13730   0.00000  Uiso   1.00
N131   N     0.42533   0.26470   0.04787   0.00000  Uiso   1.00
H132   H     0.44427   0.28593   0.06778   0.00000  Uiso   1.00
H133   H     0.40448   0.24678   0.06801   0.00000  Uiso   1.00
N134   N     0.57310   0.06830   0.45025   0.00000  Uiso   1.00
H135   H     0.59280   0.05008   0.47147   0.00000  Uiso   1.00
H136   H     0.55288   0.04351   0.43646   0.00000  Uiso   1.00
N137   N     0.37772   0.11157   0.31209   0.00000  Uiso   1.00
H138   H     0.36974   0.12263   0.34409   0.00000  Uiso   1.00
H139   H     0.36964   0.07631   0.30815   0.00000  Uiso   1.00
N140   N     0.62228   0.22176   0.18786   0.00000  Uiso   1.00
H141   H     0.63026   0.21069   0.15587   0.00000  Uiso   1.00
H142   H     0.63036   0.25701   0.19180   0.00000  Uiso   1.00
N143   N     0.62233   0.11162   0.31214   0.00000  Uiso   1.00
H144   H     0.63059   0.12253   0.34415   0.00000  Uiso   1.00
H145   H     0.63012   0.07634   0.30807   0.00000  Uiso   1.00
N146   N     0.37768   0.22167   0.18778   0.00000  Uiso   1.00
H147   H     0.36942   0.21073   0.15578   0.00000  Uiso   1.00
H148   H     0.36989   0.25695   0.19182   0.00000  Uiso   1.00
C149   C     0.75413   0.16663   0.24996   0.00000  Uiso   1.00
C150   C     0.91253   0.16670   0.25002   0.00000  Uiso   1.00
C151   C     0.78396   0.23114   0.02500   0.00000  Uiso   1.00
C152   C     0.88191   0.10161   0.47472   0.00000  Uiso   1.00
C153   C     0.68830   0.13868   0.28052   0.00000  Uiso   1.00
C154   C     0.97837   0.19464   0.21944   0.00000  Uiso   1.00
C155   C     0.97839   0.13874   0.28056   0.00000  Uiso   1.00
C156   C     0.68828   0.19457   0.21938   0.00000  Uiso   1.00
C157   C     0.95716   0.16674   0.25003   0.00000  Uiso   1.00
C158   C     0.70951   0.16659   0.24993   0.00000  Uiso   1.00
C159   C     0.80815   0.02443   0.22190   0.00000  Uiso   1.00
C160   C     0.85851   0.30890   0.27810   0.00000  Uiso   1.00
C161   C     0.85852   0.02518   0.27809   0.00000  Uiso   1.00
C162   C     0.80814   0.30815   0.22191   0.00000  Uiso   1.00
C163   C     0.83426   0.16637   0.16442   0.00000  Uiso   1.00
C164   C     0.83239   0.16696   0.33558   0.00000  Uiso   1.00
C165   C     0.85592   0.13514   0.40612   0.00000  Uiso   1.00
C166   C     0.81044   0.19805   0.09393   0.00000  Uiso   1.00
C167   C     0.83152   0.16759   0.38387   0.00000  Uiso   1.00
C168   C     0.83497   0.16569   0.11613   0.00000  Uiso   1.00
C169   C     0.80665   0.19960   0.40771   0.00000  Uiso   1.00
C170   C     0.85973   0.13361   0.09226   0.00000  Uiso   1.00
C171   C     0.80733   0.19916   0.45428   0.00000  Uiso   1.00
C172   C     0.85886   0.13390   0.04569   0.00000  Uiso   1.00
C173   C     0.83258   0.16656   0.47666   0.00000  Uiso   1.00
C174   C     0.83350   0.16641   0.02336   0.00000  Uiso   1.00
C175   C     0.85686   0.13414   0.45238   0.00000  Uiso   1.00
C176   C     0.80916   0.19883   0.04765   0.00000  Uiso   1.00
C177   C     0.78330   0.23095   0.47887   0.00000  Uiso   1.00
C178   C     0.88278   0.10198   0.02108   0.00000  Uiso   1.00
Cu179  Cu    0.83333   0.21355   0.25000   0.00000  Uiso   1.00
Cu180  Cu    0.83333   0.11978   0.25000   0.00000  Uiso   1.00
H181   H     0.87477   0.11112   0.38685   0.00000  Uiso   1.00
H182   H     0.79186   0.22212   0.11337   0.00000  Uiso   1.00
H183   H     0.76378   0.25622   0.46243   0.00000  Uiso   1.00
H184   H     0.90211   0.07675   0.03779   0.00000  Uiso   1.00
H185   H     0.78799   0.04283   0.19940   0.00000  Uiso   1.00
H186   H     0.87868   0.29050   0.30060   0.00000  Uiso   1.00
H187   H     0.87870   0.04418   0.30060   0.00000  Uiso   1.00
H188   H     0.78797   0.28916   0.19940   0.00000  Uiso   1.00
N189   N     0.83333   0.28402   0.25000   0.00000  Uiso   1.00
N190   N     0.83333   0.04931   0.25000   0.00000  Uiso   1.00
O191   O     0.77321   0.20625   0.25000   0.00000  Uiso   1.00
O192   O     0.89345   0.12709   0.25001   0.00000  Uiso   1.00
O193   O     0.89345   0.20625   0.25001   0.00000  Uiso   1.00
O194   O     0.77321   0.12709   0.25000   0.00000  Uiso   1.00
O195   O     0.83332   0.20627   0.18513   0.00000  Uiso   1.00
O196   O     0.83334   0.12707   0.31487   0.00000  Uiso   1.00
O197   O     0.83334   0.20627   0.31487   0.00000  Uiso   1.00
O198   O     0.83332   0.12707   0.18513   0.00000  Uiso   1.00
N199   N     0.77969   0.23154   0.38524   0.00000  Uiso   1.00
H200   H     0.79749   0.25619   0.36846   0.00000  Uiso   1.00
H201   H     0.76142   0.21282   0.36252   0.00000  Uiso   1.00
N202   N     0.88683   0.10179   0.11470   0.00000  Uiso   1.00
H203   H     0.86913   0.07713   0.13160   0.00000  Uiso   1.00
H204   H     0.90515   0.12059   0.13730   0.00000  Uiso   1.00
N205   N     0.75866   0.26470   0.04787   0.00000  Uiso   1.00
H206   H     0.77760   0.28593   0.06778   0.00000  Uiso   1.00
H207   H     0.73782   0.24678   0.06801   0.00000  Uiso   1.00
N208   N     0.90644   0.06830   0.45025   0.00000  Uiso   1.00
H209   H     0.92613   0.05008   0.47147   0.00000  Uiso   1.00
H210   H     0.88622   0.04351   0.43646   0.00000  Uiso   1.00
N211   N     0.71105   0.11157   0.31209   0.00000  Uiso   1.00
H212   H     0.70308   0.12263   0.34409   0.00000  Uiso   1.00
H213   H     0.70298   0.07631   0.30815   0.00000  Uiso   1.00
N214   N     0.95561   0.22176   0.18786   0.00000  Uiso   1.00
H215   H     0.96359   0.21069   0.15587   0.00000  Uiso   1.00
H216   H     0.96370   0.25701   0.19180   0.00000  Uiso   1.00
N217   N     0.95567   0.11162   0.31214   0.00000  Uiso   1.00
H218   H     0.96392   0.12253   0.34415   0.00000  Uiso   1.00
H219   H     0.96345   0.07634   0.30807   0.00000  Uiso   1.00
N220   N     0.71101   0.22167   0.18778   0.00000  Uiso   1.00
H221   H     0.70276   0.21073   0.15578   0.00000  Uiso   1.00
H222   H     0.70323   0.25695   0.19182   0.00000  Uiso   1.00
C223   C     0.08747   0.49996   0.24996   0.00000  Uiso   1.00
C224   C     0.24587   0.50003   0.25002   0.00000  Uiso   1.00
C225   C     0.11730   0.56448   0.02500   0.00000  Uiso   1.00
C226   C     0.21524   0.43495   0.47472   0.00000  Uiso   1.00
C227   C     0.02164   0.47201   0.28052   0.00000  Uiso   1.00
C228   C     0.31170   0.52798   0.21944   0.00000  Uiso   1.00
C229   C     0.31172   0.47207   0.28056   0.00000  Uiso   1.00
C230   C     0.02162   0.52791   0.21938   0.00000  Uiso   1.00
C231   C     0.29050   0.50007   0.25003   0.00000  Uiso   1.00
C232   C     0.04284   0.49992   0.24993   0.00000  Uiso   1.00
C233   C     0.14149   0.35776   0.22190   0.00000  Uiso   1.00
C234   C     0.19185   0.64223   0.27810   0.00000  Uiso   1.00
C235   C     0.19186   0.35851   0.27809   0.00000  Uiso   1.00
C236   C     0.14148   0.64149   0.22191   0.00000  Uiso   1.00
C237   C     0.16759   0.49970   0.16442   0.00000  Uiso   1.00
C238   C     0.16573   0.50030   0.33558   0.00000  Uiso   1.00
C239   C     0.18925   0.46847   0.40612   0.00000  Uiso   1.00
C240   C     0.14377   0.53138   0.09393   0.00000  Uiso   1.00
C241   C     0.16486   0.50092   0.38387   0.00000  Uiso   1.00
C242   C     0.16831   0.49903   0.11613   0.00000  Uiso   1.00
C243   C     0.13999   0.53293   0.40771   0.00000  Uiso   1.00
C244   C     0.19307   0.46695   0.09226   0.00000  Uiso   1.00
C245   C     0.14066   0.53249   0.45428   0.00000  Uiso   1.00
C246   C     0.19219   0.46723   0.04569   0.00000  Uiso   1.00
C247   C     0.16591   0.49990   0.47666   0.00000  Uiso   1.00
C248   C     0.16683   0.49974   0.02336   0.00000  Uiso   1.00
C249   C     0.19020   0.46747   0.45238   0.00000  Uiso   1.00
C250   C     0.14249   0.53216   0.04765   0.00000  Uiso   1.00
C251   C     0.11663   0.56429   0.47887   0.00000  Uiso   1.00
C252   C     0.21612   0.43531   0.02108   0.00000  Uiso   1.00
Cu253  Cu    0.16667   0.54689   0.25000   0.00000  Uiso   1.00
Cu254  Cu    0.16667   0.45311   0.25000   0.00000  Uiso   1.00
H255   H     0.20810   0.44446   0.38685   0.00000  Uiso   1.00
H256   H     0.12519   0.55546   0.11337   0.00000  Uiso   1.00
H257   H     0.09712   0.58955   0.46243   0.00000  Uiso   1.00
H258   H     0.23545   0.41008   0.03779   0.00000  Uiso   1.00
H259   H     0.12132   0.37617   0.19940   0.00000  Uiso   1.00
H260   H     0.21201   0.62383   0.30060   0.00000  Uiso   1.00
H261   H     0.21203   0.37751   0.30060   0.00000  Uiso   1.00
H262   H     0.12130   0.62249   0.19940   0.00000  Uiso   1.00
N263   N     0.16667   0.61736   0.25000   0.00000  Uiso   1.00
N264   N     0.16667   0.38264   0.25000   0.00000  Uiso   1.00
O265   O     0.10655   0.53958   0.25000   0.00000  Uiso   1.00
O266   O     0.22679   0.46042   0.25001   0.00000  Uiso   1.00
O267   O     0.22679   0.53958   0.25001   0.00000  Uiso   1.00
O268   O     0.10655   0.46042   0.25000   0.00000  Uiso   1.00
O269   O     0.16666   0.53960   0.18513   0.00000  Uiso   1.00
O270   O     0.16668   0.46040   0.31487   0.00000  Uiso   1.00
O271   O     0.16668   0.53960   0.31487   0.00000  Uiso   1.00
O272   O     0.16666   0.46040   0.18513   0.00000  Uiso   1.00
N273   N     0.11302   0.56487   0.38524   0.00000  Uiso   1.00
H274   H     0.13082   0.58952   0.36846   0.00000  Uiso   1.00
H275   H     0.09475   0.54615   0.36252   0.00000  Uiso   1.00
N276   N     0.22016   0.43512   0.11470   0.00000  Uiso   1.00
H277   H     0.20247   0.41046   0.13160   0.00000  Uiso   1.00
H278   H     0.23849   0.45393   0.13730   0.00000  Uiso   1.00
N279   N     0.09199   0.59803   0.04787   0.00000  Uiso   1.00
H280   H     0.11093   0.61927   0.06778   0.00000  Uiso   1.00
H281   H     0.07115   0.58012   0.06801   0.00000  Uiso   1.00
N282   N     0.23977   0.40163   0.45025   0.00000  Uiso   1.00
H283   H     0.25947   0.38342   0.47147   0.00000  Uiso   1.00
H284   H     0.21955   0.37684   0.43646   0.00000  Uiso   1.00
N285   N     0.04439   0.44490   0.31209   0.00000  Uiso   1.00
H286   H     0.03641   0.45596   0.34409   0.00000  Uiso   1.00
H287   H     0.03631   0.40964   0.30815   0.00000  Uiso   1.00
N288   N     0.28895   0.55509   0.18786   0.00000  Uiso   1.00
H289   H     0.29692   0.54402   0.15587   0.00000  Uiso   1.00
H290   H     0.29703   0.59034   0.19180   0.00000  Uiso   1.00
N291   N     0.28900   0.44495   0.31214   0.00000  Uiso   1.00
H292   H     0.29725   0.45586   0.34415   0.00000  Uiso   1.00
H293   H     0.29679   0.40967   0.30807   0.00000  Uiso   1.00
N294   N     0.04434   0.55500   0.18778   0.00000  Uiso   1.00
H295   H     0.03609   0.54407   0.15578   0.00000  Uiso   1.00
H296   H     0.03656   0.59029   0.19182   0.00000  Uiso   1.00
C297   C     0.42080   0.49996   0.24996   0.00000  Uiso   1.00
C298   C     0.57920   0.50003   0.25002   0.00000  Uiso   1.00
C299   C     0.45063   0.56448   0.02500   0.00000  Uiso   1.00
C300   C     0.54857   0.43495   0.47472   0.00000  Uiso   1.00
C301   C     0.35497   0.47201   0.28052   0.00000  Uiso   1.00
C302   C     0.64503   0.52798   0.21944   0.00000  Uiso   1.00
C303   C     0.64505   0.47207   0.28056   0.00000  Uiso   1.00
C304   C     0.35495   0.52791   0.21938   0.00000  Uiso   1.00
C305   C     0.62383   0.50007   0.25003   0.00000  Uiso   1.00
C306   C     0.37617   0.49992   0.24993   0.00000  Uiso   1.00
C307   C     0.47482   0.35776   0.22190   0.00000  Uiso   1.00
C308   C     0.52518   0.64223   0.27810   0.00000  Uiso   1.00
C309   C     0.52519   0.35851   0.27809   0.00000  Uiso   1.00
C310   C     0.47481   0.64149   0.22191   0.00000  Uiso   1.00
C311   C     0.50092   0.49970   0.16442   0.00000  Uiso   1.00
C312   C     0.49906   0.50030   0.33558   0.00000  Uiso   1.00
C313   C     0.52258   0.46847   0.40612   0.00000  Uiso   1.00
C314   C     0.47710   0.53138   0.09393   0.00000  Uiso   1.00
C315   C     0.49819   0.50092   0.38387   0.00000  Uiso   1.00
C316   C     0.50164   0.49903   0.11613   0.00000  Uiso   1.00
C317   C     0.47332   0.53293   0.40771   0.00000  Uiso   1.00
C318   C     0.52640   0.46695   0.09226   0.00000  Uiso   1.00
C319   C     0.47400   0.53249   0.45428   0.00000  Uiso   1.00
C320   C     0.52553   0.46723   0.04569   0.00000  Uiso   1.00
C321   C     0.49924   0.49990   0.47666   0.00000  Uiso   1.00
C322   C     0.50016   0.49974   0.02336   0.00000  Uiso   1.00
C323   C     0.52353   0.46747   0.45238   0.00000  Uiso   1.00
C324   C     0.47583   0.53216   0.04765   0.00000  Uiso   1.00
C325   C     0.44996   0.56429   0.47887   0.00000  Uiso   1.00
C326   C     0.54945   0.43531   0.02108   0.00000  Uiso   1.00
Cu327  Cu    0.50000   0.54689   0.25000   0.00000  Uiso   1.00
Cu328  Cu    0.50000   0.45311   0.25000   0.00000  Uiso   1.00
H329   H     0.54144   0.44446   0.38685   0.00000  Uiso   1.00
H330   H     0.45853   0.55546   0.11337   0.00000  Uiso   1.00
H331   H     0.43045   0.58955   0.46243   0.00000  Uiso   1.00
H332   H     0.56878   0.41008   0.03779   0.00000  Uiso   1.00
H333   H     0.45465   0.37617   0.19940   0.00000  Uiso   1.00
H334   H     0.54535   0.62383   0.30060   0.00000  Uiso   1.00
H335   H     0.54537   0.37751   0.30060   0.00000  Uiso   1.00
H336   H     0.45463   0.62249   0.19940   0.00000  Uiso   1.00
N337   N     0.50000   0.61736   0.25000   0.00000  Uiso   1.00
N338   N     0.50000   0.38264   0.25000   0.00000  Uiso   1.00
O339   O     0.43988   0.53958   0.25000   0.00000  Uiso   1.00
O340   O     0.56012   0.46042   0.25001   0.00000  Uiso   1.00
O341   O     0.56012   0.53958   0.25001   0.00000  Uiso   1.00
O342   O     0.43988   0.46042   0.25000   0.00000  Uiso   1.00
O343   O     0.49999   0.53960   0.18513   0.00000  Uiso   1.00
O344   O     0.50001   0.46040   0.31487   0.00000  Uiso   1.00
O345   O     0.50001   0.53960   0.31487   0.00000  Uiso   1.00
O346   O     0.49999   0.46040   0.18513   0.00000  Uiso   1.00
N347   N     0.44635   0.56487   0.38524   0.00000  Uiso   1.00
H348   H     0.46415   0.58952   0.36846   0.00000  Uiso   1.00
H349   H     0.42809   0.54615   0.36252   0.00000  Uiso   1.00
N350   N     0.55349   0.43512   0.11470   0.00000  Uiso   1.00
H351   H     0.53580   0.41046   0.13160   0.00000  Uiso   1.00
H352   H     0.57182   0.45393   0.13730   0.00000  Uiso   1.00
N353   N     0.42533   0.59803   0.04787   0.00000  Uiso   1.00
H354   H     0.44427   0.61927   0.06778   0.00000  Uiso   1.00
H355   H     0.40448   0.58012   0.06801   0.00000  Uiso   1.00
N356   N     0.57310   0.40163   0.45025   0.00000  Uiso   1.00
H357   H     0.59280   0.38342   0.47147   0.00000  Uiso   1.00
H358   H     0.55288   0.37684   0.43646   0.00000  Uiso   1.00
N359   N     0.37772   0.44490   0.31209   0.00000  Uiso   1.00
H360   H     0.36974   0.45596   0.34409   0.00000  Uiso   1.00
H361   H     0.36964   0.40964   0.30815   0.00000  Uiso   1.00
N362   N     0.62228   0.55509   0.18786   0.00000  Uiso   1.00
H363   H     0.63026   0.54402   0.15587   0.00000  Uiso   1.00
H364   H     0.63036   0.59034   0.19180   0.00000  Uiso   1.00
N365   N     0.62233   0.44495   0.31214   0.00000  Uiso   1.00
H366   H     0.63059   0.45586   0.34415   0.00000  Uiso   1.00
H367   H     0.63012   0.40967   0.30807   0.00000  Uiso   1.00
N368   N     0.37768   0.55500   0.18778   0.00000  Uiso   1.00
H369   H     0.36942   0.54407   0.15578   0.00000  Uiso   1.00
H370   H     0.36989   0.59029   0.19182   0.00000  Uiso   1.00
C371   C     0.75413   0.49996   0.24996   0.00000  Uiso   1.00
C372   C     0.91253   0.50003   0.25002   0.00000  Uiso   1.00
C373   C     0.78396   0.56448   0.02500   0.00000  Uiso   1.00
C374   C     0.88191   0.43495   0.47472   0.00000  Uiso   1.00
C375   C     0.68830   0.47201   0.28052   0.00000  Uiso   1.00
C376   C     0.97837   0.52798   0.21944   0.00000  Uiso   1.00
C377   C     0.97839   0.47207   0.28056   0.00000  Uiso   1.00
C378   C     0.68828   0.52791   0.21938   0.00000  Uiso   1.00
C379   C     0.95716   0.50007   0.25003   0.00000  Uiso   1.00
C380   C     0.70951   0.49992   0.24993   0.00000  Uiso   1.00
C381   C     0.80815   0.35776   0.22190   0.00000  Uiso   1.00
C382   C     0.85851   0.64223   0.27810   0.00000  Uiso   1.00
C383   C     0.85852   0.35851   0.27809   0.00000  Uiso   1.00
C384   C     0.80814   0.64149   0.22191   0.00000  Uiso   1.00
C385   C     0.83426   0.49970   0.16442   0.00000  Uiso   1.00
C386   C     0.83239   0.50030   0.33558   0.00000  Uiso   1.00
C387   C     0.85592   0.46847   0.40612   0.00000  Uiso   1.00
C388   C     0.81044   0.53138   0.09393   0.00000  Uiso   1.00
C389   C     0.83152   0.50092   0.38387   0.00000  Uiso   1.00
C390   C     0.83497   0.49903   0.11613   0.00000  Uiso   1.00
C391   C     0.80665   0.53293   0.40771   0.00000  Uiso   1.00
C392   C     0.85973   0.46695   0.09226   0.00000  Uiso   1.00
C393   C     0.80733   0.53249   0.45428   0.00000  Uiso   1.00
C394   C     0.85886   0.46723   0.04569   0.00000  Uiso   1.00
C395   C     0.83258   0.49990   0.47666   0.00000  Uiso   1.00
C396   C     0.83350   0.49974   0.02336   0.00000  Uiso   1.00
C397   C     0.85686   0.46747   0.45238   0.00000  Uiso   1.00
C398   C     0.80916   0.53216   0.04765   0.00000  Uiso   1.00
C399   C     0.78330   0.56429   0.47887   0.00000  Uiso   1.00
C400   C     0.88278   0.43531   0.02108   0.00000  Uiso   1.00
Cu401  Cu    0.83333   0.54689   0.25000   0.00000  Uiso   1.00
Cu402  Cu    0.83333   0.45311   0.25000   0.00000  Uiso   1.00
H403   H     0.87477   0.44446   0.38685   0.00000  Uiso   1.00
H404   H     0.79186   0.55546   0.11337   0.00000  Uiso   1.00
H405   H     0.76378   0.58955   0.46243   0.00000  Uiso   1.00
H406   H     0.90211   0.41008   0.03779   0.00000  Uiso   1.00
H407   H     0.78799   0.37617   0.19940   0.00000  Uiso   1.00
H408   H     0.87868   0.62383   0.30060   0.00000  Uiso   1.00
H409   H     0.87870   0.37751   0.30060   0.00000  Uiso   1.00
H410   H     0.78797   0.62249   0.19940   0.00000  Uiso   1.00
N411   N     0.83333   0.61736   0.25000   0.00000  Uiso   1.00
N412   N     0.83333   0.38264   0.25000   0.00000  Uiso   1.00
O413   O     0.77321   0.53958   0.25000   0.00000  Uiso   1.00
O414   O     0.89345   0.46042   0.25001   0.00000  Uiso   1.00
O415   O     0.89345   0.53958   0.25001   0.00000  Uiso   1.00
O416   O     0.77321   0.46042   0.25000   0.00000  Uiso   1.00
O417   O     0.83332   0.53960   0.18513   0.00000  Uiso   1.00
O418   O     0.83334   0.46040   0.31487   0.00000  Uiso   1.00
O419   O     0.83334   0.53960   0.31487   0.00000  Uiso   1.00
O420   O     0.83332   0.46040   0.18513   0.00000  Uiso   1.00
N421   N     0.77969   0.56487   0.38524   0.00000  Uiso   1.00
H422   H     0.79749   0.58952   0.36846   0.00000  Uiso   1.00
H423   H     0.76142   0.54615   0.36252   0.00000  Uiso   1.00
N424   N     0.88683   0.43512   0.11470   0.00000  Uiso   1.00
H425   H     0.86913   0.41046   0.13160   0.00000  Uiso   1.00
H426   H     0.90515   0.45393   0.13730   0.00000  Uiso   1.00
N427   N     0.75866   0.59803   0.04787   0.00000  Uiso   1.00
H428   H     0.77760   0.61927   0.06778   0.00000  Uiso   1.00
H429   H     0.73782   0.58012   0.06801   0.00000  Uiso   1.00
N430   N     0.90644   0.40163   0.45025   0.00000  Uiso   1.00
H431   H     0.92613   0.38342   0.47147   0.00000  Uiso   1.00
H432   H     0.88622   0.37684   0.43646   0.00000  Uiso   1.00
N433   N     0.71105   0.44490   0.31209   0.00000  Uiso   1.00
H434   H     0.70308   0.45596   0.34409   0.00000  Uiso   1.00
H435   H     0.70298   0.40964   0.30815   0.00000  Uiso   1.00
N436   N     0.95561   0.55509   0.18786   0.00000  Uiso   1.00
H437   H     0.96359   0.54402   0.15587   0.00000  Uiso   1.00
H438   H     0.96370   0.59034   0.19180   0.00000  Uiso   1.00
N439   N     0.95567   0.44495   0.31214   0.00000  Uiso   1.00
H440   H     0.96392   0.45586   0.34415   0.00000  Uiso   1.00
H441   H     0.96345   0.40967   0.30807   0.00000  Uiso   1.00
N442   N     0.71101   0.55500   0.18778   0.00000  Uiso   1.00
H443   H     0.70276   0.54407   0.15578   0.00000  Uiso   1.00
H444   H     0.70323   0.59029   0.19182   0.00000  Uiso   1.00
C445   C     0.08747   0.83330   0.24996   0.00000  Uiso   1.00
C446   C     0.24587   0.83337   0.25002   0.00000  Uiso   1.00
C447   C     0.11730   0.89781   0.02500   0.00000  Uiso   1.00
C448   C     0.21524   0.76828   0.47472   0.00000  Uiso   1.00
C449   C     0.02164   0.80535   0.28052   0.00000  Uiso   1.00
C450   C     0.31170   0.86131   0.21944   0.00000  Uiso   1.00
C451   C     0.31172   0.80541   0.28056   0.00000  Uiso   1.00
C452   C     0.02162   0.86124   0.21938   0.00000  Uiso   1.00
C453   C     0.29050   0.83341   0.25003   0.00000  Uiso   1.00
C454   C     0.04284   0.83325   0.24993   0.00000  Uiso   1.00
C455   C     0.14149   0.69110   0.22190   0.00000  Uiso   1.00
C456   C     0.19185   0.97557   0.27810   0.00000  Uiso   1.00
C457   C     0.19186   0.69185   0.27809   0.00000  Uiso   1.00
C458   C     0.14148   0.97482   0.22191   0.00000  Uiso   1.00
C459   C     0.16759   0.83303   0.16442   0.00000  Uiso   1.00
C460   C     0.16573   0.83363   0.33558   0.00000  Uiso   1.00
C461   C     0.18925   0.80181   0.40612   0.00000  Uiso   1.00
C462   C     0.14377   0.86471   0.09393   0.00000  Uiso   1.00
C463   C     0.16486   0.83426   0.38387   0.00000  Uiso   1.00
C464   C     0.16831   0.83236   0.11613   0.00000  Uiso   1.00
C465   C     0.13999   0.86626   0.40771   0.00000  Uiso   1.00
C466   C     0.19307   0.80028   0.09226   0.00000  Uiso   1.00
C467   C     0.14066   0.86582   0.45428   0.00000  Uiso   1.00
C468   C     0.19219   0.80056   0.04569   0.00000  Uiso   1.00
C469   C     0.16591   0.83323   0.47666   0.00000  Uiso   1.00
C470   C     0.16683   0.83308   0.02336   0.00000  Uiso   1.00
C471   C     0.19020   0.80081   0.45238   0.00000  Uiso   1.00
C472   C     0.14249   0.86550   0.04765   0.00000  Uiso   1.00
C473   C     0.11663   0.89762   0.47887   0.00000  Uiso   1.00
C474   C     0.21612   0.76864   0.02108   0.00000  Uiso   1.00
Cu475  Cu    0.16667   0.88022   0.25000   0.00000  Uiso   1.00
Cu476  Cu    0.16667   0.78645   0.25000   0.00000  Uiso   1.00
H477   H     0.20810   0.77779   0.38685   0.00000  Uiso   1.00
H478   H     0.12519   0.88879   0.11337   0.00000  Uiso   1.00
H479   H     0.09712   0.92288   0.46243   0.00000  Uiso   1.00
H480   H     0.23545   0.74342   0.03779   0.00000  Uiso   1.00
H481   H     0.12132   0.70950   0.19940   0.00000  Uiso   1.00
H482   H     0.21201   0.95717   0.30060   0.00000  Uiso   1.00
H483   H     0.21203   0.71084   0.30060   0.00000  Uiso   1.00
H484   H     0.12130   0.95582   0.19940   0.00000  Uiso   1.00
N485   N     0.16667   0.95069   0.25000   0.00000  Uiso   1.00
N486   N     0.16667   0.71598   0.25000   0.00000  Uiso   1.00
O487   O     0.10655   0.87291   0.25000   0.00000  Uiso   1.00
O488   O     0.22679   0.79375   0.25001   0.00000  Uiso   1.00
O489   O     0.22679   0.87291   0.25001   0.00000  Uiso   1.00
O490   O     0.10655   0.79375   0.25000   0.00000  Uiso   1.00
O491   O     0.16666   0.87293   0.18513   0.00000  Uiso   1.00
O492   O     0.16668   0.79373   0.31487   0.00000  Uiso   1.00
O493   O     0.16668   0.87293   0.31487   0.00000  Uiso   1.00
O494   O     0.16666   0.79373   0.18513   0.00000  Uiso   1.00
N495   N     0.11302   0.89820   0.38524   0.00000  Uiso   1.00
H496   H     0.13082   0.92286   0.36846   0.00000  Uiso   1.00
H497   H     0.09475   0.87949   0.36252   0.00000  Uiso   1.00
N498   N     0.22016   0.76845   0.11470   0.00000  Uiso   1.00
H499   H     0.20247   0.74380   0.13160   0.00000  Uiso   1.00
H500   H     0.23849   0.78726   0.13730   0.00000  Uiso   1.00
N501   N     0.09199   0.93136   0.04787   0.00000  Uiso   1.00
H502   H     0.11093   0.95260   0.06778   0.00000  Uiso   1.00
H503   H     0.07115   0.91345   0.06801   0.00000  Uiso   1.00
N504   N     0.23977   0.73497   0.45025   0.00000  Uiso   1.00
H505   H     0.25947   0.71675   0.47147   0.00000  Uiso   1.00
H506   H     0.21955   0.71018   0.43646   0.00000  Uiso   1.00
N507   N     0.04439   0.77823   0.31209   0.00000  Uiso   1.00
H508   H     0.03641   0.78930   0.34409   0.00000  Uiso   1.00
H509   H     0.03631   0.74298   0.30815   0.00000  Uiso   1.00
N510   N     0.28895   0.88843   0.18786   0.00000  Uiso   1.00
H511   H     0.29692   0.87736   0.15587   0.00000  Uiso   1.00
H512   H     0.29703   0.92368   0.19180   0.00000  Uiso   1.00
N513   N     0.28900   0.77828   0.31214   0.00000  Uiso   1.00
H514   H     0.29725   0.78919   0.34415   0.00000  Uiso   1.00
H515   H     0.29679   0.74300   0.30807   0.00000  Uiso   1.00
N516   N     0.04434   0.88833   0.18778   0.00000  Uiso   1.00
H517   H     0.03609   0.87740   0.15578   0.00000  Uiso   1.00
H518   H     0.03656   0.92362   0.19182   0.00000  Uiso   1.00
C519   C     0.42080   0.83330   0.24996   0.00000  Uiso   1.00
C520   C     0.57920   0.83337   0.25002   0.00000  Uiso   1.00
C521   C     0.45063   0.89781   0.02500   0.00000  Uiso   1.00
C522   C     0.54857   0.76828   0.47472   0.00000  Uiso   1.00
C523   C     0.35497   0.80535   0.28052   0.00000  Uiso   1.00
C524   C     0.64503   0.86131   0.21944   0.00000  Uiso   1.00
C525   C     0.64505   0.80541   0.28056   0.00000  Uiso   1.00
C526   C     0.35495   0.86124   0.21938   0.00000  Uiso   1.00
C527   C     0.62383   0.83341   0.25003   0.00000  Uiso   1.00
C528   C     0.37617   0.83325   0.24993   0.00000  Uiso   1.00
C529   C     0.47482   0.69110   0.22190   0.00000  Uiso   1.00
C530   C     0.52518   0.97557   0.27810   0.00000  Uiso   1.00
C531   C     0.52519   0.69185   0.27809   0.00000  Uiso   1.00
C532   C     0.47481   0.97482   0.22191   0.00000  Uiso   1.00
C533   C     0.50092   0.83303   0.16442   0.00000  Uiso   1.00
C534   C     0.49906   0.83363   0.33558   0.00000  Uiso   1.00
C535   C     0.52258   0.80181   0.40612   0.00000  Uiso   1.00
C536   C     0.47710   0.86471   0.09393   0.00000  Uiso   1.00
C537   C     0.49819   0.83426   0.38387   0.00000  Uiso   1.00
C538   C     0.50164   0.83236   0.11613   0.00000  Uiso   1.00
C539   C     0.47332   0.86626   0.40771   0.00000  Uiso   1.00
C540   C     0.52640   0.80028   0.09226   0.00000  Uiso   1.00
C541   C     0.47400   0.86582   0.45428   0.00000  Uiso   1.00
C542   C     0.52553   0.80056   0.04569   0.00000  Uiso   1.00
C543   C     0.49924   0.83323   0.47666   0.00000  Uiso   1.00
C544   C     0.50016   0.83308   0.02336   0.00000  Uiso   1.00
C545   C     0.52353   0.80081   0.45238   0.00000  Uiso   1.00
C546   C     0.47583   0.86550   0.04765   0.00000  Uiso   1.00
C547   C     0.44996   0.89762   0.47887   0.00000  Uiso   1.00
C548   C     0.54945   0.76864   0.02108   0.00000  Uiso   1.00
Cu549  Cu    0.50000   0.88022   0.25000   0.00000  Uiso   1.00
Cu550  Cu    0.50000   0.78645   0.25000   0.00000  Uiso   1.00
H551   H     0.54144   0.77779   0.38685   0.00000  Uiso   1.00
H552   H     0.45853   0.88879   0.11337   0.00000  Uiso   1.00
H553   H     0.43045   0.92288   0.46243   0.00000  Uiso   1.00
H554   H     0.56878   0.74342   0.03779   0.00000  Uiso   1.00
H555   H     0.45465   0.70950   0.19940   0.00000  Uiso   1.00
H556   H     0.54535   0.95717   0.30060   0.00000  Uiso   1.00
H557   H     0.54537   0.71084   0.30060   0.00000  Uiso   1.00
H558   H     0.45463   0.95582   0.19940   0.00000  Uiso   1.00
N559   N     0.50000   0.95069   0.25000   0.00000  Uiso   1.00
N560   N     0.50000   0.71598   0.25000   0.00000  Uiso   1.00
O561   O     0.43988   0.87291   0.25000   0.00000  Uiso   1.00
O562   O     0.56012   0.79375   0.25001   0.00000  Uiso   1.00
O563   O     0.56012   0.87291   0.25001   0.00000  Uiso   1.00
O564   O     0.43988   0.79375   0.25000   0.00000  Uiso   1.00
O565   O     0.49999   0.87293   0.18513   0.00000  Uiso   1.00
O566   O     0.50001   0.79373   0.31487   0.00000  Uiso   1.00
O567   O     0.50001   0.87293   0.31487   0.00000  Uiso   1.00
O568   O     0.49999   0.79373   0.18513   0.00000  Uiso   1.00
N569   N     0.44635   0.89820   0.38524   0.00000  Uiso   1.00
H570   H     0.46415   0.92286   0.36846   0.00000  Uiso   1.00
H571   H     0.42809   0.87949   0.36252   0.00000  Uiso   1.00
N572   N     0.55349   0.76845   0.11470   0.00000  Uiso   1.00
H573   H     0.53580   0.74380   0.13160   0.00000  Uiso   1.00
H574   H     0.57182   0.78726   0.13730   0.00000  Uiso   1.00
N575   N     0.42533   0.93136   0.04787   0.00000  Uiso   1.00
H576   H     0.44427   0.95260   0.06778   0.00000  Uiso   1.00
H577   H     0.40448   0.91345   0.06801   0.00000  Uiso   1.00
N578   N     0.57310   0.73497   0.45025   0.00000  Uiso   1.00
H579   H     0.59280   0.71675   0.47147   0.00000  Uiso   1.00
H580   H     0.55288   0.71018   0.43646   0.00000  Uiso   1.00
N581   N     0.37772   0.77823   0.31209   0.00000  Uiso   1.00
H582   H     0.36974   0.78930   0.34409   0.00000  Uiso   1.00
H583   H     0.36964   0.74298   0.30815   0.00000  Uiso   1.00
N584   N     0.62228   0.88843   0.18786   0.00000  Uiso   1.00
H585   H     0.63026   0.87736   0.15587   0.00000  Uiso   1.00
H586   H     0.63036   0.92368   0.19180   0.00000  Uiso   1.00
N587   N     0.62233   0.77828   0.31214   0.00000  Uiso   1.00
H588   H     0.63059   0.78919   0.34415   0.00000  Uiso   1.00
H589   H     0.63012   0.74300   0.30807   0.00000  Uiso   1.00
N590   N     0.37768   0.88833   0.18778   0.00000  Uiso   1.00
H591   H     0.36942   0.87740   0.15578   0.00000  Uiso   1.00
H592   H     0.36989   0.92362   0.19182   0.00000  Uiso   1.00
C593   C     0.75413   0.83330   0.24996   0.00000  Uiso   1.00
C594   C     0.91253   0.83337   0.25002   0.00000  Uiso   1.00
C595   C     0.78396   0.89781   0.02500   0.00000  Uiso   1.00
C596   C     0.88191   0.76828   0.47472   0.00000  Uiso   1.00
C597   C     0.68830   0.80535   0.28052   0.00000  Uiso   1.00
C598   C     0.97837   0.86131   0.21944   0.00000  Uiso   1.00
C599   C     0.97839   0.80541   0.28056   0.00000  Uiso   1.00
C600   C     0.68828   0.86124   0.21938   0.00000  Uiso   1.00
C601   C     0.95716   0.83341   0.25003   0.00000  Uiso   1.00
C602   C     0.70951   0.83325   0.24993   0.00000  Uiso   1.00
C603   C     0.80815   0.69110   0.22190   0.00000  Uiso   1.00
C604   C     0.85851   0.97557   0.27810   0.00000  Uiso   1.00
C605   C     0.85852   0.69185   0.27809   0.00000  Uiso   1.00
C606   C     0.80814   0.97482   0.22191   0.00000  Uiso   1.00
C607   C     0.83426   0.83303   0.16442   0.00000  Uiso   1.00
C608   C     0.83239   0.83363   0.33558   0.00000  Uiso   1.00
C609   C     0.85592   0.80181   0.40612   0.00000  Uiso   1.00
C610   C     0.81044   0.86471   0.09393   0.00000  Uiso   1.00
C611   C     0.83152   0.83426   0.38387   0.00000  Uiso   1.00
C612   C     0.83497   0.83236   0.11613   0.00000  Uiso   1.00
C613   C     0.80665   0.86626   0.40771   0.00000  Uiso   1.00
C614   C     0.85973   0.80028   0.09226   0.00000  Uiso   1.00
C615   C     0.80733   0.86582   0.45428   0.00000  Uiso   1.00
C616   C     0.85886   0.80056   0.04569   0.00000  Uiso   1.00
C617   C     0.83258   0.83323   0.47666   0.00000  Uiso   1.00
C618   C     0.83350   0.83308   0.02336   0.00000  Uiso   1.00
C619   C     0.85686   0.80081   0.45238   0.00000  Uiso   1.00
C620   C     0.80916   0.86550   0.04765   0.00000  Uiso   1.00
C621   C     0.78330   0.89762   0.47887   0.00000  Uiso   1.00
C622   C     0.88278   0.76864   0.02108   0.00000  Uiso   1.00
Cu623  Cu    0.83333   0.88022   0.25000   0.00000  Uiso   1.00
Cu624  Cu    0.83333   0.78645   0.25000   0.00000  Uiso   1.00
H625   H     0.87477   0.77779   0.38685   0.00000  Uiso   1.00
H626   H     0.79186   0.88879   0.11337   0.00000  Uiso   1.00
H627   H     0.76378   0.92288   0.46243   0.00000  Uiso   1.00
H628   H     0.90211   0.74342   0.03779   0.00000  Uiso   1.00
H629   H     0.78799   0.70950   0.19940   0.00000  Uiso   1.00
H630   H     0.87868   0.95717   0.30060   0.00000  Uiso   1.00
H631   H     0.87870   0.71084   0.30060   0.00000  Uiso   1.00
H632   H     0.78797   0.95582   0.19940   0.00000  Uiso   1.00
N633   N     0.83333   0.95069   0.25000   0.00000  Uiso   1.00
N634   N     0.83333   0.71598   0.25000   0.00000  Uiso   1.00
O635   O     0.77321   0.87291   0.25000   0.00000  Uiso   1.00
O636   O     0.89345   0.79375   0.25001   0.00000  Uiso   1.00
O637   O     0.89345   0.87291   0.25001   0.00000  Uiso   1.00
O638   O     0.77321   0.79375   0.25000   0.00000  Uiso   1.00
O639   O     0.83332   0.87293   0.18513   0.00000  Uiso   1.00
O640   O     0.83334   0.79373   0.31487   0.00000  Uiso   1.00
O641   O     0.83334   0.87293   0.31487   0.00000  Uiso   1.00
O642   O     0.83332   0.79373   0.18513   0.00000  Uiso   1.00
N643   N     0.77969   0.89820   0.38524   0.00000  Uiso   1.00
H644   H     0.79749   0.92286   0.36846   0.00000  Uiso   1.00
H645   H     0.76142   0.87949   0.36252   0.00000  Uiso   1.00
N646   N     0.88683   0.76845   0.11470   0.00000  Uiso   1.00
H647   H     0.86913   0.74380   0.13160   0.00000  Uiso   1.00
H648   H     0.90515   0.78726   0.13730   0.00000  Uiso   1.00
N649   N     0.75866   0.93136   0.04787   0.00000  Uiso   1.00
H650   H     0.77760   0.95260   0.06778   0.00000  Uiso   1.00
H651   H     0.73782   0.91345   0.06801   0.00000  Uiso   1.00
N652   N     0.90644   0.73497   0.45025   0.00000  Uiso   1.00
H653   H     0.92613   0.71675   0.47147   0.00000  Uiso   1.00
H654   H     0.88622   0.71018   0.43646   0.00000  Uiso   1.00
N655   N     0.71105   0.77823   0.31209   0.00000  Uiso   1.00
H656   H     0.70308   0.78930   0.34409   0.00000  Uiso   1.00
H657   H     0.70298   0.74298   0.30815   0.00000  Uiso   1.00
N658   N     0.95561   0.88843   0.18786   0.00000  Uiso   1.00
H659   H     0.96359   0.87736   0.15587   0.00000  Uiso   1.00
H660   H     0.96370   0.92368   0.19180   0.00000  Uiso   1.00
N661   N     0.95567   0.77828   0.31214   0.00000  Uiso   1.00
H662   H     0.96392   0.78919   0.34415   0.00000  Uiso   1.00
H663   H     0.96345   0.74300   0.30807   0.00000  Uiso   1.00
N664   N     0.71101   0.88833   0.18778   0.00000  Uiso   1.00
H665   H     0.70276   0.87740   0.15578   0.00000  Uiso   1.00
H666   H     0.70323   0.92362   0.19182   0.00000  Uiso   1.00
C667   C     0.08747   0.16663   0.74996   0.00000  Uiso   1.00
C668   C     0.24587   0.16670   0.75002   0.00000  Uiso   1.00
C669   C     0.11730   0.23114   0.52500   0.00000  Uiso   1.00
C670   C     0.21524   0.10161   0.97472   0.00000  Uiso   1.00
C671   C     0.02164   0.13868   0.78052   0.00000  Uiso   1.00
C672   C     0.31170   0.19464   0.71944   0.00000  Uiso   1.00
C673   C     0.31172   0.13874   0.78056   0.00000  Uiso   1.00
C674   C     0.02162   0.19457   0.71938   0.00000  Uiso   1.00
C675   C     0.29050   0.16674   0.75003   0.00000  Uiso   1.00
C676   C     0.04284   0.16659   0.74993   0.00000  Uiso   1.00
C677   C     0.14149   0.02443   0.72190   0.00000  Uiso   1.00
C678   C     0.19185   0.30890   0.77810   0.00000  Uiso   1.00
C679   C     0.19186   0.02518   0.77809   0.00000  Uiso   1.00
C680   C     0.14148   0.30815   0.72191   0.00000  Uiso   1.00
C681   C     0.16759   0.16637   0.66442   0.00000  Uiso   1.00
C682   C     0.16573   0.16696   0.83558   0.00000  Uiso   1.00
C683   C     0.18925   0.13514   0.90612   0.00000  Uiso   1.00
C684   C     0.14377   0.19805   0.59393   0.00000  Uiso   1.00
C685   C     0.16486   0.16759   0.88387   0.00000  Uiso   1.00
C686   C     0.16831   0.16569   0.61613   0.00000  Uiso   1.00
C687   C     0.13999   0.19960   0.90771   0.00000  Uiso   1.00
C688   C     0.19307   0.13361   0.59226   0.00000  Uiso   1.00
C689   C     0.14066   0.19916   0.95428   0.00000  Uiso   1.00
C690   C     0.19219   0.13390   0.54569   0.00000  Uiso   1.00
C691   C     0.16591   0.16656   0.97666   0.00000  Uiso   1.00
C692   C     0.16683   0.16641   0.52336   0.00000  Uiso   1.00
C693   C     0.19020   0.13414   0.95238   0.00000  Uiso   1.00
C694   C     0.14249   0.19883   0.54765   0.00000  Uiso   1.00
C695   C     0.11663   0.23095   0.97887   0.00000  Uiso   1.00
C696   C     0.21612   0.10198   0.52108   0.00000  Uiso   1.00
Cu697  Cu    0.16667   0.21355   0.75000   0.00000  Uiso   1.00
Cu698  Cu    0.16667   0.11978   0.75000   0.00000  Uiso   1.00
H699   H     0.20810   0.11112   0.88685   0.00000  Uiso   1.00
H700   H     0.12519   0.22212   0.61337   0.00000  Uiso   1.00
H701   H     0.09712   0.25622   0.96243   0.00000  Uiso   1.00
H702   H     0.23545   0.07675   0.53779   0.00000  Uiso   1.00
H703   H     0.12132   0.04283   0.69940   0.00000  Uiso   1.00
H704   H     0.21201   0.29050   0.80060   0.00000  Uiso   1.00
H705   H     0.21203   0.04418   0.80060   0.00000  Uiso   1.00
H706   H     0.12130   0.28916   0.69940   0.00000  Uiso   1.00
N707   N     0.16667   0.28402   0.75000   0.00000  Uiso   1.00
N708   N     0.16667   0.04931   0.75000   0.00000  Uiso   1.00
O709   O     0.10655   0.20625   0.75000   0.00000  Uiso   1.00
O710   O     0.22679   0.12709   0.75001   0.00000  Uiso   1.00
O711   O     0.22679   0.20625   0.75001   0.00000  Uiso   1.00
O712   O     0.10655   0.12709   0.75000   0.00000  Uiso   1.00
O713   O     0.16666   0.20627   0.68513   0.00000  Uiso   1.00
O714   O     0.16668   0.12707   0.81487   0.00000  Uiso   1.00
O715   O     0.16668   0.20627   0.81487   0.00000  Uiso   1.00
O716   O     0.16666   0.12707   0.68513   0.00000  Uiso   1.00
N717   N     0.11302   0.23154   0.88524   0.00000  Uiso   1.00
H718   H     0.13082   0.25619   0.86846   0.00000  Uiso   1.00
H719   H     0.09475   0.21282   0.86252   0.00000  Uiso   1.00
N720   N     0.22016   0.10179   0.61470   0.00000  Uiso   1.00
H721   H     0.20247   0.07713   0.63160   0.00000  Uiso   1.00
H722   H     0.23849   0.12059   0.63730   0.00000  Uiso   1.00
N723   N     0.09199   0.26470   0.54787   0.00000  Uiso   1.00
H724   H     0.11093   0.28593   0.56778   0.00000  Uiso   1.00
H725   H     0.07115   0.24678   0.56801   0.00000  Uiso   1.00
N726   N     0.23977   0.06830   0.95025   0.00000  Uiso   1.00
H727   H     0.25947   0.05008   0.97147   0.00000  Uiso   1.00
H728   H     0.21955   0.04351   0.93646   0.00000  Uiso   1.00
N729   N     0.04439   0.11157   0.81209   0.00000  Uiso   1.00
H730   H     0.03641   0.12263   0.84409   0.00000  Uiso   1.00
H731   H     0.03631   0.07631   0.80815   0.00000  Uiso   1.00
N732   N     0.28895   0.22176   0.68786   0.00000  Uiso   1.00
H733   H     0.29692   0.21069   0.65587   0.00000  Uiso   1.00
H734   H     0.29703   0.25701   0.69180   0.00000  Uiso   1.00
N735   N     0.28900   0.11162   0.81214   0.00000  Uiso   1.00
H736   H     0.29725   0.12253   0.84415   0.00000  Uiso   1.00
H737   H     0.29679   0.07634   0.80807   0.00000  Uiso   1.00
N738   N     0.04434   0.22167   0.68778   0.00000  Uiso   1.00
H739   H     0.03609   0.21073   0.65578   0.00000  Uiso   1.00
H740   H     0.03656   0.25695   0.69182   0.00000  Uiso   1.00
C741   C     0.42080   0.16663   0.74996   0.00000  Uiso   1.00
C742   C     0.57920   0.16670   0.75002   0.00000  Uiso   1.00
C743   C     0.45063   0.23114   0.52500   0.00000  Uiso   1.00
C744   C     0.54857   0.10161   0.97472   0.00000  Uiso   1.00
C745   C     0.35497   0.13868   0.78052   0.00000  Uiso   1.00
C746   C     0.64503   0.19464   0.71944   0.00000  Uiso   1.00
C747   C     0.64505   0.13874   0.78056   0.00000  Uiso   1.00
C748   C     0.35495   0.19457   0.71938   0.00000  Uiso   1.00
C749   C     0.62383   0.16674   0.75003   0.00000  Uiso   1.00
C750   C     0.37617   0.16659   0.74993   0.00000  Uiso   1.00
C751   C     0.47482   0.02443   0.72190   0.00000  Uiso   1.00
C752   C     0.52518   0.30890   0.77810   0.00000  Uiso   1.00
C753   C     0.52519   0.02518   0.77809   0.00000  Uiso   1.00
C754   C     0.47481   0.30815   0.72191   0.00000  Uiso   1.00
C755   C     0.50092   0.16637   0.66442   0.00000  Uiso   1.00
C756   C     0.49906   0.16696   0.83558   0.00000  Uiso   1.00
C757   C     0.52258   0.13514   0.90612   0.00000  Uiso   1.00
C758   C     0.47710   0.19805   0.59393   0.00000  Uiso   1.00
C759   C     0.49819   0.16759   0.88387   0.00000  Uiso   1.00
C760   C     0.50164   0.16569   0.61613   0.00000  Uiso   1.00
C761   C     0.47332   0.19960   0.90771   0.00000  Uiso   1.00
C762   C     0.52640   0.13361   0.59226   0.00000  Uiso   1.00
C763   C     0.47400   0.19916   0.95428   0.00000  Uiso   1.00
C764   C     0.52553   0.13390   0.54569   0.00000  Uiso   1.00
C765   C     0.49924   0.16656   0.97666   0.00000  Uiso   1.00
C766   C     0.50016   0.16641   0.52336   0.00000  Uiso   1.00
C767   C     0.52353   0.13414   0.95238   0.00000  Uiso   1.00
C768   C     0.47583   0.19883   0.54765   0.00000  Uiso   1.00
C769   C     0.44996   0.23095   0.97887   0.00000  Uiso   1.00
C770   C     0.54945   0.10198   0.52108   0.00000  Uiso   1.00
Cu771  Cu    0.50000   0.21355   0.75000   0.00000  Uiso   1.00
Cu772  Cu    0.50000   0.11978   0.75000   0.00000  Uiso   1.00
H773   H     0.54144   0.11112   0.88685   0.00000  Uiso   1.00
H774   H     0.45853   0.22212   0.61337   0.00000  Uiso   1.00
H775   H     0.43045   0.25622   0.96243   0.00000  Uiso   1.00
H776   H     0.56878   0.07675   0.53779   0.00000  Uiso   1.00
H777   H     0.45465   0.04283   0.69940   0.00000  Uiso   1.00
H778   H     0.54535   0.29050   0.80060   0.00000  Uiso   1.00
H779   H     0.54537   0.04418   0.80060   0.00000  Uiso   1.00
H780   H     0.45463   0.28916   0.69940   0.00000  Uiso   1.00
N781   N     0.50000   0.28402   0.75000   0.00000  Uiso   1.00
N782   N     0.50000   0.04931   0.75000   0.00000  Uiso   1.00
O783   O     0.43988   0.20625   0.75000   0.00000  Uiso   1.00
O784   O     0.56012   0.12709   0.75001   0.00000  Uiso   1.00
O785   O     0.56012   0.20625   0.75001   0.00000  Uiso   1.00
O786   O     0.43988   0.12709   0.75000   0.00000  Uiso   1.00
O787   O     0.49999   0.20627   0.68513   0.00000  Uiso   1.00
O788   O     0.50001   0.12707   0.81487   0.00000  Uiso   1.00
O789   O     0.50001   0.20627   0.81487   0.00000  Uiso   1.00
O790   O     0.49999   0.12707   0.68513   0.00000  Uiso   1.00
N791   N     0.44635   0.23154   0.88524   0.00000  Uiso   1.00
H792   H     0.46415   0.25619   0.86846   0.00000  Uiso   1.00
H793   H     0.42809   0.21282   0.86252   0.00000  Uiso   1.00
N794   N     0.55349   0.10179   0.61470   0.00000  Uiso   1.00
H795   H     0.53580   0.07713   0.63160   0.00000  Uiso   1.00
H796   H     0.57182   0.12059   0.63730   0.00000  Uiso   1.00
N797   N     0.42533   0.26470   0.54787   0.00000  Uiso   1.00
H798   H     0.44427   0.28593   0.56778   0.00000  Uiso   1.00
H799   H     0.40448   0.24678   0.56801   0.00000  Uiso   1.00
N800   N     0.57310   0.06830   0.95025   0.00000  Uiso   1.00
H801   H     0.59280   0.05008   0.97147   0.00000  Uiso   1.00
H802   H     0.55288   0.04351   0.93646   0.00000  Uiso   1.00
N803   N     0.37772   0.11157   0.81209   0.00000  Uiso   1.00
H804   H     0.36974   0.12263   0.84409   0.00000  Uiso   1.00
H805   H     0.36964   0.07631   0.80815   0.00000  Uiso   1.00
N806   N     0.62228   0.22176   0.68786   0.00000  Uiso   1.00
H807   H     0.63026   0.21069   0.65587   0.00000  Uiso   1.00
H808   H     0.63036   0.25701   0.69180   0.00000  Uiso   1.00
N809   N     0.62233   0.11162   0.81214   0.00000  Uiso   1.00
H810   H     0.63059   0.12253   0.84415   0.00000  Uiso   1.00
H811   H     0.63012   0.07634   0.80807   0.00000  Uiso   1.00
N812   N     0.37768   0.22167   0.68778   0.00000  Uiso   1.00
H813   H     0.36942   0.21073   0.65578   0.00000  Uiso   1.00
H814   H     0.36989   0.25695   0.69182   0.00000  Uiso   1.00
C815   C     0.75413   0.16663   0.74996   0.00000  Uiso   1.00
C816   C     0.91253   0.16670   0.75002   0.00000  Uiso   1.00
C817   C     0.78396   0.23114   0.52500   0.00000  Uiso   1.00
C818   C     0.88191   0.10161   0.97472   0.00000  Uiso   1.00
C819   C     0.68830   0.13868   0.78052   0.00000  Uiso   1.00
C820   C     0.97837   0.19464   0.71944   0.00000  Uiso   1.00
C821   C     0.97839   0.13874   0.78056   0.00000  Uiso   1.00
C822   C     0.68828   0.19457   0.71938   0.00000  Uiso   1.00
C823   C     0.95716   0.16674   0.75003   0.00000  Uiso   1.00
C824   C     0.70951   0.16659   0.74993   0.00000  Uiso   1.00
C825   C     0.80815   0.02443   0.72190   0.00000  Uiso   1.00
C826   C     0.85851   0.30890   0.77810   0.00000  Uiso   1.00
C827   C     0.85852   0.02518   0.77809   0.00000  Uiso   1.00
C828   C     0.80814   0.30815   0.72191   0.00000  Uiso   1.00
C829   C     0.83426   0.16637   0.66442   0.00000  Uiso   1.00
C830   C     0.83239   0.16696   0.83558   0.00000  Uiso   1.00
C831   C     0.85592   0.13514   0.90612   0.00000  Uiso   1.00
C832   C     0.81044   0.19805   0.59393   0.00000  Uiso   1.00
C833   C     0.83152   0.16759   0.88387   0.00000  Uiso   1.00
C834   C     0.83497   0.16569   0.61613   0.00000  Uiso   1.00
C835   C     0.80665   0.19960   0.90771   0.00000  Uiso   1.00
C836   C     0.85973   0.13361   0.59226   0.00000  Uiso   1.00
C837   C     0.80733   0.19916   0.95428   0.00000  Uiso   1.00
C838   C     0.85886   0.13390   0.54569   0.00000  Uiso   1.00
C839   C     0.83258   0.16656   0.97666   0.00000  Uiso   1.00
C840   C     0.83350   0.16641   0.52336   0.00000  Uiso   1.00
C841   C     0.85686   0.13414   0.95238   0.00000  Uiso   1.00
C842   C     0.80916   0.19883   0.54765   0.00000  Uiso   1.00
C843   C     0.78330   0.23095   0.97887   0.00000  Uiso   1.00
C844   C     0.88278   0.10198   0.52108   0.00000  Uiso   1.00
Cu845  Cu    0.83333   0.21355   0.75000   0.00000  Uiso   1.00
Cu846  Cu    0.83333   0.11978   0.75000   0.00000  Uiso   1.00
H847   H     0.87477   0.11112   0.88685   0.00000  Uiso   1.00
H848   H     0.79186   0.22212   0.61337   0.00000  Uiso   1.00
H849   H     0.76378   0.25622   0.96243   0.00000  Uiso   1.00
H850   H     0.90211   0.07675   0.53779   0.00000  Uiso   1.00
H851   H     0.78799   0.04283   0.69940   0.00000  Uiso   1.00
H852   H     0.87868   0.29050   0.80060   0.00000  Uiso   1.00
H853   H     0.87870   0.04418   0.80060   0.00000  Uiso   1.00
H854   H     0.78797   0.28916   0.69940   0.00000  Uiso   1.00
N855   N     0.83333   0.28402   0.75000   0.00000  Uiso   1.00
N856   N     0.83333   0.04931   0.75000   0.00000  Uiso   1.00
O857   O     0.77321   0.20625   0.75000   0.00000  Uiso   1.00
O858   O     0.89345   0.12709   0.75001   0.00000  Uiso   1.00
O859   O     0.89345   0.20625   0.75001   0.00000  Uiso   1.00
O860   O     0.77321   0.12709   0.75000   0.00000  Uiso   1.00
O861   O     0.83332   0.20627   0.68513   0.00000  Uiso   1.00
O862   O     0.83334   0.12707   0.81487   0.00000  Uiso   1.00
O863   O     0.83334   0.20627   0.81487   0.00000  Uiso   1.00
O864   O     0.83332   0.12707   0.68513   0.00000  Uiso   1.00
N865   N     0.77969   0.23154   0.88524   0.00000  Uiso   1.00
H866   H     0.79749   0.25619   0.86846   0.00000  Uiso   1.00
H867   H     0.76142   0.21282   0.86252   0.00000  Uiso   1.00
N868   N     0.88683   0.10179   0.61470   0.00000  Uiso   1.00
H869   H     0.86913   0.07713   0.63160   0.00000  Uiso   1.00
H870   H     0.90515   0.12059   0.63730   0.00000  Uiso   1.00
N871   N     0.75866   0.26470   0.54787   0.00000  Uiso   1.00
H872   H     0.77760   0.28593   0.56778   0.00000  Uiso   1.00
H873   H     0.73782   0.24678   0.56801   0.00000  Uiso   1.00
N874   N     0.90644   0.06830   0.95025   0.00000  Uiso   1.00
H875   H     0.92613   0.05008   0.97147   0.00000  Uiso   1.00
H876   H     0.88622   0.04351   0.93646   0.00000  Uiso   1.00
N877   N     0.71105   0.11157   0.81209   0.00000  Uiso   1.00
H878   H     0.70308   0.12263   0.84409   0.00000  Uiso   1.00
H879   H     0.70298   0.07631   0.80815   0.00000  Uiso   1.00
N880   N     0.95561   0.22176   0.68786   0.00000  Uiso   1.00
H881   H     0.96359   0.21069   0.65587   0.00000  Uiso   1.00
H882   H     0.96370   0.25701   0.69180   0.00000  Uiso   1.00
N883   N     0.95567   0.11162   0.81214   0.00000  Uiso   1.00
H884   H     0.96392   0.12253   0.84415   0.00000  Uiso   1.00
H885   H     0.96345   0.07634   0.80807   0.00000  Uiso   1.00
N886   N     0.71101   0.22167   0.68778   0.00000  Uiso   1.00
H887   H     0.70276   0.21073   0.65578   0.00000  Uiso   1.00
H888   H     0.70323   0.25695   0.69182   0.00000  Uiso   1.00
C889   C     0.08747   0.49996   0.74996   0.00000  Uiso   1.00
C890   C     0.24587   0.50003   0.75002   0.00000  Uiso   1.00
C891   C     0.11730   0.56448   0.52500   0.00000  Uiso   1.00
C892   C     0.21524   0.43495   0.97472   0.00000  Uiso   1.00
C893   C     0.02164   0.47201   0.78052   0.00000  Uiso   1.00
C894   C     0.31170   0.52798   0.71944   0.00000  Uiso   1.00
C895   C     0.31172   0.47207   0.78056   0.00000  Uiso   1.00
C896   C     0.02162   0.52791   0.71938   0.00000  Uiso   1.00
C897   C     0.29050   0.50007   0.75003   0.00000  Uiso   1.00
C898   C     0.04284   0.49992   0.74993   0.00000  Uiso   1.00
C899   C     0.14149   0.35776   0.72190   0.00000  Uiso   1.00
C900   C     0.19185   0.64223   0.77810   0.00000  Uiso   1.00
C901   C     0.19186   0.35851   0.77809   0.00000  Uiso   1.00
C902   C     0.14148   0.64149   0.72191   0.00000  Uiso   1.00
C903   C     0.16759   0.49970   0.66442   0.00000  Uiso   1.00
C904   C     0.16573   0.50030   0.83558   0.00000  Uiso   1.00
C905   C     0.18925   0.46847   0.90612   0.00000  Uiso   1.00
C906   C     0.14377   0.53138   0.59393   0.00000  Uiso   1.00
C907   C     0.16486   0.50092   0.88387   0.00000  Uiso   1.00
C908   C     0.16831   0.49903   0.61613   0.00000  Uiso   1.00
C909   C     0.13999   0.53293   0.90771   0.00000  Uiso   1.00
C910   C     0.19307   0.46695   0.59226   0.00000  Uiso   1.00
C911   C     0.14066   0.53249   0.95428   0.00000  Uiso   1.00
C912   C     0.19219   0.46723   0.54569   0.00000  Uiso   1.00
C913   C     0.16591   0.49990   0.97666   0.00000  Uiso   1.00
C914   C     0.16683   0.49974   0.52336   0.00000  Uiso   1.00
C915   C     0.19020   0.46747   0.95238   0.00000  Uiso   1.00
C916   C     0.14249   0.53216   0.54765   0.00000  Uiso   1.00
C917   C     0.11663   0.56429   0.97887   0.00000  Uiso   1.00
C918   C     0.21612   0.43531   0.52108   0.00000  Uiso   1.00
Cu919  Cu    0.16667   0.54689   0.75000   0.00000  Uiso   1.00
Cu920  Cu    0.16667   0.45311   0.75000   0.00000  Uiso   1.00
H921   H     0.20810   0.44446   0.88685   0.00000  Uiso   1.00
H922   H     0.12519   0.55546   0.61337   0.00000  Uiso   1.00
H923   H     0.09712   0.58955   0.96243   0.00000  Uiso   1.00
H924   H     0.23545   0.41008   0.53779   0.00000  Uiso   1.00
H925   H     0.12132   0.37617   0.69940   0.00000  Uiso   1.00
H926   H     0.21201   0.62383   0.80060   0.00000  Uiso   1.00
H927   H     0.21203   0.37751   0.80060   0.00000  Uiso   1.00
H928   H     0.12130   0.62249   0.69940   0.00000  Uiso   1.00
N929   N     0.16667   0.61736   0.75000   0.00000  Uiso   1.00
N930   N     0.16667   0.38264   0.75000   0.00000  Uiso   1.00
O931   O     0.10655   0.53958   0.75000   0.00000  Uiso   1.00
O932   O     0.22679   0.46042   0.75001   0.00000  Uiso   1.00
O933   O     0.22679   0.53958   0.75001   0.00000  Uiso   1.00
O934   O     0.10655   0.46042   0.75000   0.00000  Uiso   1.00
O935   O     0.16666   0.53960   0.68513   0.00000  Uiso   1.00
O936   O     0.16668   0.46040   0.81487   0.00000  Uiso   1.00
O937   O     0.16668   0.53960   0.81487   0.00000  Uiso   1.00
O938   O     0.16666   0.46040   0.68513   0.00000  Uiso   1.00
N939   N     0.11302   0.56487   0.88524   0.00000  Uiso   1.00
H940   H     0.13082   0.58952   0.86846   0.00000  Uiso   1.00
H941   H     0.09475   0.54615   0.86252   0.00000  Uiso   1.00
N942   N     0.22016   0.43512   0.61470   0.00000  Uiso   1.00
H943   H     0.20247   0.41046   0.63160   0.00000  Uiso   1.00
H944   H     0.23849   0.45393   0.63730   0.00000  Uiso   1.00
N945   N     0.09199   0.59803   0.54787   0.00000  Uiso   1.00
H946   H     0.11093   0.61927   0.56778   0.00000  Uiso   1.00
H947   H     0.07115   0.58012   0.56801   0.00000  Uiso   1.00
N948   N     0.23977   0.40163   0.95025   0.00000  Uiso   1.00
H949   H     0.25947   0.38342   0.97147   0.00000  Uiso   1.00
H950   H     0.21955   0.37684   0.93646   0.00000  Uiso   1.00
N951   N     0.04439   0.44490   0.81209   0.00000  Uiso   1.00
H952   H     0.03641   0.45596   0.84409   0.00000  Uiso   1.00
H953   H     0.03631   0.40964   0.80815   0.00000  Uiso   1.00
N954   N     0.28895   0.55509   0.68786   0.00000  Uiso   1.00
H955   H     0.29692   0.54402   0.65587   0.00000  Uiso   1.00
H956   H     0.29703   0.59034   0.69180   0.00000  Uiso   1.00
N957   N     0.28900   0.44495   0.81214   0.00000  Uiso   1.00
H958   H     0.29725   0.45586   0.84415   0.00000  Uiso   1.00
H959   H     0.29679   0.40967   0.80807   0.00000  Uiso   1.00
N960   N     0.04434   0.55500   0.68778   0.00000  Uiso   1.00
H961   H     0.03609   0.54407   0.65578   0.00000  Uiso   1.00
H962   H     0.03656   0.59029   0.69182   0.00000  Uiso   1.00
C963   C     0.42080   0.49996   0.74996   0.00000  Uiso   1.00
C964   C     0.57920   0.50003   0.75002   0.00000  Uiso   1.00
C965   C     0.45063   0.56448   0.52500   0.00000  Uiso   1.00
C966   C     0.54857   0.43495   0.97472   0.00000  Uiso   1.00
C967   C     0.35497   0.47201   0.78052   0.00000  Uiso   1.00
C968   C     0.64503   0.52798   0.71944   0.00000  Uiso   1.00
C969   C     0.64505   0.47207   0.78056   0.00000  Uiso   1.00
C970   C     0.35495   0.52791   0.71938   0.00000  Uiso   1.00
C971   C     0.62383   0.50007   0.75003   0.00000  Uiso   1.00
C972   C     0.37617   0.49992   0.74993   0.00000  Uiso   1.00
C973   C     0.47482   0.35776   0.72190   0.00000  Uiso   1.00
C974   C     0.52518   0.64223   0.77810   0.00000  Uiso   1.00
C975   C     0.52519   0.35851   0.77809   0.00000  Uiso   1.00
C976   C     0.47481   0.64149   0.72191   0.00000  Uiso   1.00
C977   C     0.50092   0.49970   0.66442   0.00000  Uiso   1.00
C978   C     0.49906   0.50030   0.83558   0.00000  Uiso   1.00
C979   C     0.52258   0.46847   0.90612   0.00000  Uiso   1.00
C980   C     0.47710   0.53138   0.59393   0.00000  Uiso   1.00
C981   C     0.49819   0.50092   0.88387   0.00000  Uiso   1.00
C982   C     0.50164   0.49903   0.61613   0.00000  Uiso   1.00
C983   C     0.47332   0.53293   0.90771   0.00000  Uiso   1.00
C984   C     0.52640   0.46695   0.59226   0.00000  Uiso   1.00
C985   C     0.47400   0.53249   0.95428   0.00000  Uiso   1.00
C986   C     0.52553   0.46723   0.54569   0.00000  Uiso   1.00
C987   C     0.49924   0.49990   0.97666   0.00000  Uiso   1.00
C988   C     0.50016   0.49974   0.52336   0.00000  Uiso   1.00
C989   C     0.52353   0.46747   0.95238   0.00000  Uiso   1.00
C990   C     0.47583   0.53216   0.54765   0.00000  Uiso   1.00
C991   C     0.44996   0.56429   0.97887   0.00000  Uiso   1.00
C992   C     0.54945   0.43531   0.52108   0.00000  Uiso   1.00
Cu993  Cu    0.50000   0.54689   0.75000   0.00000  Uiso   1.00
Cu994  Cu    0.50000   0.45311   0.75000   0.00000  Uiso   1.00
H995   H     0.54144   0.44446   0.88685   0.00000  Uiso   1.00
H996   H     0.45853   0.55546   0.61337   0.00000  Uiso   1.00
H997   H     0.43045   0.58955   0.96243   0.00000  Uiso   1.00
H998   H     0.56878   0.41008   0.53779   0.00000  Uiso   1.00
H999   H     0.45465   0.37617   0.69940   0.00000  Uiso   1.00
H1000  H     0.54535   0.62383   0.80060   0.00000  Uiso   1.00
H1001  H     0.54537   0.37751   0.80060   0.00000  Uiso   1.00
H1002  H     0.45463   0.62249   0.69940   0.00000  Uiso   1.00
N1003  N     0.50000   0.61736   0.75000   0.00000  Uiso   1.00
N1004  N     0.50000   0.38264   0.75000   0.00000  Uiso   1.00
O1005  O     0.43988   0.53958   0.75000   0.00000  Uiso   1.00
O1006  O     0.56012   0.46042   0.75001   0.00000  Uiso   1.00
O1007  O     0.56012   0.53958   0.75001   0.00000  Uiso   1.00
O1008  O     0.43988   0.46042   0.75000   0.00000  Uiso   1.00
O1009  O     0.49999   0.53960   0.68513   0.00000  Uiso   1.00
O1010  O     0.50001   0.46040   0.81487   0.00000  Uiso   1.00
O1011  O     0.50001   0.53960   0.81487   0.00000  Uiso   1.00
O1012  O     0.49999   0.46040   0.68513   0.00000  Uiso   1.00
N1013  N     0.44635   0.56487   0.88524   0.00000  Uiso   1.00
H1014  H     0.46415   0.58952   0.86846   0.00000  Uiso   1.00
H1015  H     0.42809   0.54615   0.86252   0.00000  Uiso   1.00
N1016  N     0.55349   0.43512   0.61470   0.00000  Uiso   1.00
H1017  H     0.53580   0.41046   0.63160   0.00000  Uiso   1.00
H1018  H     0.57182   0.45393   0.63730   0.00000  Uiso   1.00
N1019  N     0.42533   0.59803   0.54787   0.00000  Uiso   1.00
H1020  H     0.44427   0.61927   0.56778   0.00000  Uiso   1.00
H1021  H     0.40448   0.58012   0.56801   0.00000  Uiso   1.00
N1022  N     0.57310   0.40163   0.95025   0.00000  Uiso   1.00
H1023  H     0.59280   0.38342   0.97147   0.00000  Uiso   1.00
H1024  H     0.55288   0.37684   0.93646   0.00000  Uiso   1.00
N1025  N     0.37772   0.44490   0.81209   0.00000  Uiso   1.00
H1026  H     0.36974   0.45596   0.84409   0.00000  Uiso   1.00
H1027  H     0.36964   0.40964   0.80815   0.00000  Uiso   1.00
N1028  N     0.62228   0.55509   0.68786   0.00000  Uiso   1.00
H1029  H     0.63026   0.54402   0.65587   0.00000  Uiso   1.00
H1030  H     0.63036   0.59034   0.69180   0.00000  Uiso   1.00
N1031  N     0.62233   0.44495   0.81214   0.00000  Uiso   1.00
H1032  H     0.63059   0.45586   0.84415   0.00000  Uiso   1.00
H1033  H     0.63012   0.40967   0.80807   0.00000  Uiso   1.00
N1034  N     0.37768   0.55500   0.68778   0.00000  Uiso   1.00
H1035  H     0.36942   0.54407   0.65578   0.00000  Uiso   1.00
H1036  H     0.36989   0.59029   0.69182   0.00000  Uiso   1.00
C1037  C     0.75413   0.49996   0.74996   0.00000  Uiso   1.00
C1038  C     0.91253   0.50003   0.75002   0.00000  Uiso   1.00
C1039  C     0.78396   0.56448   0.52500   0.00000  Uiso   1.00
C1040  C     0.88191   0.43495   0.97472   0.00000  Uiso   1.00
C1041  C     0.68830   0.47201   0.78052   0.00000  Uiso   1.00
C1042  C     0.97837   0.52798   0.71944   0.00000  Uiso   1.00
C1043  C     0.97839   0.47207   0.78056   0.00000  Uiso   1.00
C1044  C     0.68828   0.52791   0.71938   0.00000  Uiso   1.00
C1045  C     0.95716   0.50007   0.75003   0.00000  Uiso   1.00
C1046  C     0.70951   0.49992   0.74993   0.00000  Uiso   1.00
C1047  C     0.80815   0.35776   0.72190   0.00000  Uiso   1.00
C1048  C     0.85851   0.64223   0.77810   0.00000  Uiso   1.00
C1049  C     0.85852   0.35851   0.77809   0.00000  Uiso   1.00
C1050  C     0.80814   0.64149   0.72191   0.00000  Uiso   1.00
C1051  C     0.83426   0.49970   0.66442   0.00000  Uiso   1.00
C1052  C     0.83239   0.50030   0.83558   0.00000  Uiso   1.00
C1053  C     0.85592   0.46847   0.90612   0.00000  Uiso   1.00
C1054  C     0.81044   0.53138   0.59393   0.00000  Uiso   1.00
C1055  C     0.83152   0.50092   0.88387   0.00000  Uiso   1.00
C1056  C     0.83497   0.49903   0.61613   0.00000  Uiso   1.00
C1057  C     0.80665   0.53293   0.90771   0.00000  Uiso   1.00
C1058  C     0.85973   0.46695   0.59226   0.00000  Uiso   1.00
C1059  C     0.80733   0.53249   0.95428   0.00000  Uiso   1.00
C1060  C     0.85886   0.46723   0.54569   0.00000  Uiso   1.00
C1061  C     0.83258   0.49990   0.97666   0.00000  Uiso   1.00
C1062  C     0.83350   0.49974   0.52336   0.00000  Uiso   1.00
C1063  C     0.85686   0.46747   0.95238   0.00000  Uiso   1.00
C1064  C     0.80916   0.53216   0.54765   0.00000  Uiso   1.00
C1065  C     0.78330   0.56429   0.97887   0.00000  Uiso   1.00
C1066  C     0.88278   0.43531   0.52108   0.00000  Uiso   1.00
Cu1067 Cu    0.83333   0.54689   0.75000   0.00000  Uiso   1.00
Cu1068 Cu    0.83333   0.45311   0.75000   0.00000  Uiso   1.00
H1069  H     0.87477   0.44446   0.88685   0.00000  Uiso   1.00
H1070  H     0.79186   0.55546   0.61337   0.00000  Uiso   1.00
H1071  H     0.76378   0.58955   0.96243   0.00000  Uiso   1.00
H1072  H     0.90211   0.41008   0.53779   0.00000  Uiso   1.00
H1073  H     0.78799   0.37617   0.69940   0.00000  Uiso   1.00
H1074  H     0.87868   0.62383   0.80060   0.00000  Uiso   1.00
H1075  H     0.87870   0.37751   0.80060   0.00000  Uiso   1.00
H1076  H     0.78797   0.62249   0.69940   0.00000  Uiso   1.00
N1077  N     0.83333   0.61736   0.75000   0.00000  Uiso   1.00
N1078  N     0.83333   0.38264   0.75000   0.00000  Uiso   1.00
O1079  O     0.77321   0.53958   0.75000   0.00000  Uiso   1.00
O1080  O     0.89345   0.46042   0.75001   0.00000  Uiso   1.00
O1081  O     0.89345   0.53958   0.75001   0.00000  Uiso   1.00
O1082  O     0.77321   0.46042   0.75000   0.00000  Uiso   1.00
O1083  O     0.83332   0.53960   0.68513   0.00000  Uiso   1.00
O1084  O     0.83334   0.46040   0.81487   0.00000  Uiso   1.00
O1085  O     0.83334   0.53960   0.81487   0.00000  Uiso   1.00
O1086  O     0.83332   0.46040   0.68513   0.00000  Uiso   1.00
N1087  N     0.77969   0.56487   0.88524   0.00000  Uiso   1.00
H1088  H     0.79749   0.58952   0.86846   0.00000  Uiso   1.00
H1089  H     0.76142   0.54615   0.86252   0.00000  Uiso   1.00
N1090  N     0.88683   0.43512   0.61470   0.00000  Uiso   1.00
H1091  H     0.86913   0.41046   0.63160   0.00000  Uiso   1.00
H1092  H     0.90515   0.45393   0.63730   0.00000  Uiso   1.00
N1093  N     0.75866   0.59803   0.54787   0.00000  Uiso   1.00
H1094  H     0.77760   0.61927   0.56778   0.00000  Uiso   1.00
H1095  H     0.73782   0.58012   0.56801   0.00000  Uiso   1.00
N1096  N     0.90644   0.40163   0.95025   0.00000  Uiso   1.00
H1097  H     0.92613   0.38342   0.97147   0.00000  Uiso   1.00
H1098  H     0.88622   0.37684   0.93646   0.00000  Uiso   1.00
N1099  N     0.71105   0.44490   0.81209   0.00000  Uiso   1.00
H1100  H     0.70308   0.45596   0.84409   0.00000  Uiso   1.00
H1101  H     0.70298   0.40964   0.80815   0.00000  Uiso   1.00
N1102  N     0.95561   0.55509   0.68786   0.00000  Uiso   1.00
H1103  H     0.96359   0.54402   0.65587   0.00000  Uiso   1.00
H1104  H     0.96370   0.59034   0.69180   0.00000  Uiso   1.00
N1105  N     0.95567   0.44495   0.81214   0.00000  Uiso   1.00
H1106  H     0.96392   0.45586   0.84415   0.00000  Uiso   1.00
H1107  H     0.96345   0.40967   0.80807   0.00000  Uiso   1.00
N1108  N     0.71101   0.55500   0.68778   0.00000  Uiso   1.00
H1109  H     0.70276   0.54407   0.65578   0.00000  Uiso   1.00
H1110  H     0.70323   0.59029   0.69182   0.00000  Uiso   1.00
C1111  C     0.08747   0.83330   0.74996   0.00000  Uiso   1.00
C1112  C     0.24587   0.83337   0.75002   0.00000  Uiso   1.00
C1113  C     0.11730   0.89781   0.52500   0.00000  Uiso   1.00
C1114  C     0.21524   0.76828   0.97472   0.00000  Uiso   1.00
C1115  C     0.02164   0.80535   0.78052   0.00000  Uiso   1.00
C1116  C     0.31170   0.86131   0.71944   0.00000  Uiso   1.00
C1117  C     0.31172   0.80541   0.78056   0.00000  Uiso   1.00
C1118  C     0.02162   0.86124   0.71938   0.00000  Uiso   1.00
C1119  C     0.29050   0.83341   0.75003   0.00000  Uiso   1.00
C1120  C     0.04284   0.83325   0.74993   0.00000  Uiso   1.00
C1121  C     0.14149   0.69110   0.72190   0.00000  Uiso   1.00
C1122  C     0.19185   0.97557   0.77810   0.00000  Uiso   1.00
C1123  C     0.19186   0.69185   0.77809   0.00000  Uiso   1.00
C1124  C     0.14148   0.97482   0.72191   0.00000  Uiso   1.00
C1125  C     0.16759   0.83303   0.66442   0.00000  Uiso   1.00
C1126  C     0.16573   0.83363   0.83558   0.00000  Uiso   1.00
C1127  C     0.18925   0.80181   0.90612   0.00000  Uiso   1.00
C1128  C     0.14377   0.86471   0.59393   0.00000  Uiso   1.00
C1129  C     0.16486   0.83426   0.88387   0.00000  Uiso   1.00
C1130  C     0.16831   0.83236   0.61613   0.00000  Uiso   1.00
C1131  C     0.13999   0.86626   0.90771   0.00000  Uiso   1.00
C1132  C     0.19307   0.80028   0.59226   0.00000  Uiso   1.00
C1133  C     0.14066   0.86582   0.95428   0.00000  Uiso   1.00
C1134  C     0.19219   0.80056   0.54569   0.00000  Uiso   1.00
C1135  C     0.16591   0.83323   0.97666   0.00000  Uiso   1.00
C1136  C     0.16683   0.83308   0.52336   0.00000  Uiso   1.00
C1137  C     0.19020   0.80081   0.95238   0.00000  Uiso   1.00
C1138  C     0.14249   0.86550   0.54765   0.00000  Uiso   1.00
C1139  C     0.11663   0.89762   0.97887   0.00000  Uiso   1.00
C1140  C     0.21612   0.76864   0.52108   0.00000  Uiso   1.00
Cu1141 Cu    0.16667   0.88022   0.75000   0.00000  Uiso   1.00
Cu1142 Cu    0.16667   0.78645   0.75000   0.00000  Uiso   1.00
H1143  H     0.20810   0.77779   0.88685   0.00000  Uiso   1.00
H1144  H     0.12519   0.88879   0.61337   0.00000  Uiso   1.00
H1145  H     0.09712   0.92288   0.96243   0.00000  Uiso   1.00
H1146  H     0.23545   0.74342   0.53779   0.00000  Uiso   1.00
H1147  H     0.12132   0.70950   0.69940   0.00000  Uiso   1.00
H1148  H     0.21201   0.95717   0.80060   0.00000  Uiso   1.00
H1149  H     0.21203   0.71084   0.80060   0.00000  Uiso   1.00
H1150  H     0.12130   0.95582   0.69940   0.00000  Uiso   1.00
N1151  N     0.16667   0.95069   0.75000   0.00000  Uiso   1.00
N1152  N     0.16667   0.71598   0.75000   0.00000  Uiso   1.00
O1153  O     0.10655   0.87291   0.75000   0.00000  Uiso   1.00
O1154  O     0.22679   0.79375   0.75001   0.00000  Uiso   1.00
O1155  O     0.22679   0.87291   0.75001   0.00000  Uiso   1.00
O1156  O     0.10655   0.79375   0.75000   0.00000  Uiso   1.00
O1157  O     0.16666   0.87293   0.68513   0.00000  Uiso   1.00
O1158  O     0.16668   0.79373   0.81487   0.00000  Uiso   1.00
O1159  O     0.16668   0.87293   0.81487   0.00000  Uiso   1.00
O1160  O     0.16666   0.79373   0.68513   0.00000  Uiso   1.00
N1161  N     0.11302   0.89820   0.88524   0.00000  Uiso   1.00
H1162  H     0.13082   0.92286   0.86846   0.00000  Uiso   1.00
H1163  H     0.09475   0.87949   0.86252   0.00000  Uiso   1.00
N1164  N     0.22016   0.76845   0.61470   0.00000  Uiso   1.00
H1165  H     0.20247   0.74380   0.63160   0.00000  Uiso   1.00
H1166  H     0.23849   0.78726   0.63730   0.00000  Uiso   1.00
N1167  N     0.09199   0.93136   0.54787   0.00000  Uiso   1.00
H1168  H     0.11093   0.95260   0.56778   0.00000  Uiso   1.00
H1169  H     0.07115   0.91345   0.56801   0.00000  Uiso   1.00
N1170  N     0.23977   0.73497   0.95025   0.00000  Uiso   1.00
H1171  H     0.25947   0.71675   0.97147   0.00000  Uiso   1.00
H1172  H     0.21955   0.71018   0.93646   0.00000  Uiso   1.00
N1173  N     0.04439   0.77823   0.81209   0.00000  Uiso   1.00
H1174  H     0.03641   0.78930   0.84409   0.00000  Uiso   1.00
H1175  H     0.03631   0.74298   0.80815   0.00000  Uiso   1.00
N1176  N     0.28895   0.88843   0.68786   0.00000  Uiso   1.00
H1177  H     0.29692   0.87736   0.65587   0.00000  Uiso   1.00
H1178  H     0.29703   0.92368   0.69180   0.00000  Uiso   1.00
N1179  N     0.28900   0.77828   0.81214   0.00000  Uiso   1.00
H1180  H     0.29725   0.78919   0.84415   0.00000  Uiso   1.00
H1181  H     0.29679   0.74300   0.80807   0.00000  Uiso   1.00
N1182  N     0.04434   0.88833   0.68778   0.00000  Uiso   1.00
H1183  H     0.03609   0.87740   0.65578   0.00000  Uiso   1.00
H1184  H     0.03656   0.92362   0.69182   0.00000  Uiso   1.00
C1185  C     0.42080   0.83330   0.74996   0.00000  Uiso   1.00
C1186  C     0.57920   0.83337   0.75002   0.00000  Uiso   1.00
C1187  C     0.45063   0.89781   0.52500   0.00000  Uiso   1.00
C1188  C     0.54857   0.76828   0.97472   0.00000  Uiso   1.00
C1189  C     0.35497   0.80535   0.78052   0.00000  Uiso   1.00
C1190  C     0.64503   0.86131   0.71944   0.00000  Uiso   1.00
C1191  C     0.64505   0.80541   0.78056   0.00000  Uiso   1.00
C1192  C     0.35495   0.86124   0.71938   0.00000  Uiso   1.00
C1193  C     0.62383   0.83341   0.75003   0.00000  Uiso   1.00
C1194  C     0.37617   0.83325   0.74993   0.00000  Uiso   1.00
C1195  C     0.47482   0.69110   0.72190   0.00000  Uiso   1.00
C1196  C     0.52518   0.97557   0.77810   0.00000  Uiso   1.00
C1197  C     0.52519   0.69185   0.77809   0.00000  Uiso   1.00
C1198  C     0.47481   0.97482   0.72191   0.00000  Uiso   1.00
C1199  C     0.50092   0.83303   0.66442   0.00000  Uiso   1.00
C1200  C     0.49906   0.83363   0.83558   0.00000  Uiso   1.00
C1201  C     0.52258   0.80181   0.90612   0.00000  Uiso   1.00
C1202  C     0.47710   0.86471   0.59393   0.00000  Uiso   1.00
C1203  C     0.49819   0.83426   0.88387   0.00000  Uiso   1.00
C1204  C     0.50164   0.83236   0.61613   0.00000  Uiso   1.00
C1205  C     0.47332   0.86626   0.90771   0.00000  Uiso   1.00
C1206  C     0.52640   0.80028   0.59226   0.00000  Uiso   1.00
C1207  C     0.47400   0.86582   0.95428   0.00000  Uiso   1.00
C1208  C     0.52553   0.80056   0.54569   0.00000  Uiso   1.00
C1209  C     0.49924   0.83323   0.97666   0.00000  Uiso   1.00
C1210  C     0.50016   0.83308   0.52336   0.00000  Uiso   1.00
C1211  C     0.52353   0.80081   0.95238   0.00000  Uiso   1.00
C1212  C     0.47583   0.86550   0.54765   0.00000  Uiso   1.00
C1213  C     0.44996   0.89762   0.97887   0.00000  Uiso   1.00
C1214  C     0.54945   0.76864   0.52108   0.00000  Uiso   1.00
Cu1215 Cu    0.50000   0.88022   0.75000   0.00000  Uiso   1.00
Cu1216 Cu    0.50000   0.78645   0.75000   0.00000  Uiso   1.00
H1217  H     0.54144   0.77779   0.88685   0.00000  Uiso   1.00
H1218  H     0.45853   0.88879   0.61337   0.00000  Uiso   1.00
H1219  H     0.43045   0.92288   0.96243   0.00000  Uiso   1.00
H1220  H     0.56878   0.74342   0.53779   0.00000  Uiso   1.00
H1221  H     0.45465   0.70950   0.69940   0.00000  Uiso   1.00
H1222  H     0.54535   0.95717   0.80060   0.00000  Uiso   1.00
H1223  H     0.54537   0.71084   0.80060   0.00000  Uiso   1.00
H1224  H     0.45463   0.95582   0.69940   0.00000  Uiso   1.00
N1225  N     0.50000   0.95069   0.75000   0.00000  Uiso   1.00
N1226  N     0.50000   0.71598   0.75000   0.00000  Uiso   1.00
O1227  O     0.43988   0.87291   0.75000   0.00000  Uiso   1.00
O1228  O     0.56012   0.79375   0.75001   0.00000  Uiso   1.00
O1229  O     0.56012   0.87291   0.75001   0.00000  Uiso   1.00
O1230  O     0.43988   0.79375   0.75000   0.00000  Uiso   1.00
O1231  O     0.49999   0.87293   0.68513   0.00000  Uiso   1.00
O1232  O     0.50001   0.79373   0.81487   0.00000  Uiso   1.00
O1233  O     0.50001   0.87293   0.81487   0.00000  Uiso   1.00
O1234  O     0.49999   0.79373   0.68513   0.00000  Uiso   1.00
N1235  N     0.44635   0.89820   0.88524   0.00000  Uiso   1.00
H1236  H     0.46415   0.92286   0.86846   0.00000  Uiso   1.00
H1237  H     0.42809   0.87949   0.86252   0.00000  Uiso   1.00
N1238  N     0.55349   0.76845   0.61470   0.00000  Uiso   1.00
H1239  H     0.53580   0.74380   0.63160   0.00000  Uiso   1.00
H1240  H     0.57182   0.78726   0.63730   0.00000  Uiso   1.00
N1241  N     0.42533   0.93136   0.54787   0.00000  Uiso   1.00
H1242  H     0.44427   0.95260   0.56778   0.00000  Uiso   1.00
H1243  H     0.40448   0.91345   0.56801   0.00000  Uiso   1.00
N1244  N     0.57310   0.73497   0.95025   0.00000  Uiso   1.00
H1245  H     0.59280   0.71675   0.97147   0.00000  Uiso   1.00
H1246  H     0.55288   0.71018   0.93646   0.00000  Uiso   1.00
N1247  N     0.37772   0.77823   0.81209   0.00000  Uiso   1.00
H1248  H     0.36974   0.78930   0.84409   0.00000  Uiso   1.00
H1249  H     0.36964   0.74298   0.80815   0.00000  Uiso   1.00
N1250  N     0.62228   0.88843   0.68786   0.00000  Uiso   1.00
H1251  H     0.63026   0.87736   0.65587   0.00000  Uiso   1.00
H1252  H     0.63036   0.92368   0.69180   0.00000  Uiso   1.00
N1253  N     0.62233   0.77828   0.81214   0.00000  Uiso   1.00
H1254  H     0.63059   0.78919   0.84415   0.00000  Uiso   1.00
H1255  H     0.63012   0.74300   0.80807   0.00000  Uiso   1.00
N1256  N     0.37768   0.88833   0.68778   0.00000  Uiso   1.00
H1257  H     0.36942   0.87740   0.65578   0.00000  Uiso   1.00
H1258  H     0.36989   0.92362   0.69182   0.00000  Uiso   1.00
C1259  C     0.75413   0.83330   0.74996   0.00000  Uiso   1.00
C1260  C     0.91253   0.83337   0.75002   0.00000  Uiso   1.00
C1261  C     0.78396   0.89781   0.52500   0.00000  Uiso   1.00
C1262  C     0.88191   0.76828   0.97472   0.00000  Uiso   1.00
C1263  C     0.68830   0.80535   0.78052   0.00000  Uiso   1.00
C1264  C     0.97837   0.86131   0.71944   0.00000  Uiso   1.00
C1265  C     0.97839   0.80541   0.78056   0.00000  Uiso   1.00
C1266  C     0.68828   0.86124   0.71938   0.00000  Uiso   1.00
C1267  C     0.95716   0.83341   0.75003   0.00000  Uiso   1.00
C1268  C     0.70951   0.83325   0.74993   0.00000  Uiso   1.00
C1269  C     0.80815   0.69110   0.72190   0.00000  Uiso   1.00
C1270  C     0.85851   0.97557   0.77810   0.00000  Uiso   1.00
C1271  C     0.85852   0.69185   0.77809   0.00000  Uiso   1.00
C1272  C     0.80814   0.97482   0.72191   0.00000  Uiso   1.00
C1273  C     0.83426   0.83303   0.66442   0.00000  Uiso   1.00
C1274  C     0.83239   0.83363   0.83558   0.00000  Uiso   1.00
C1275  C     0.85592   0.80181   0.90612   0.00000  Uiso   1.00
C1276  C     0.81044   0.86471   0.59393   0.00000  Uiso   1.00
C1277  C     0.83152   0.83426   0.88387   0.00000  Uiso   1.00
C1278  C     0.83497   0.83236   0.61613   0.00000  Uiso   1.00
C1279  C     0.80665   0.86626   0.90771   0.00000  Uiso   1.00
C1280  C     0.85973   0.80028   0.59226   0.00000  Uiso   1.00
C1281  C     0.80733   0.86582   0.95428   0.00000  Uiso   1.00
C1282  C     0.85886   0.80056   0.54569   0.00000  Uiso   1.00
C1283  C     0.83258   0.83323   0.97666   0.00000  Uiso   1.00
C1284  C     0.83350   0.83308   0.52336   0.00000  Uiso   1.00
C1285  C     0.85686   0.80081   0.95238   0.00000  Uiso   1.00
C1286  C     0.80916   0.86550   0.54765   0.00000  Uiso   1.00
C1287  C     0.78330   0.89762   0.97887   0.00000  Uiso   1.00
C1288  C     0.88278   0.76864   0.52108   0.00000  Uiso   1.00
Cu1289 Cu    0.83333   0.88022   0.75000   0.00000  Uiso   1.00
Cu1290 Cu    0.83333   0.78645   0.75000   0.00000  Uiso   1.00
H1291  H     0.87477   0.77779   0.88685   0.00000  Uiso   1.00
H1292  H     0.79186   0.88879   0.61337   0.00000  Uiso   1.00
H1293  H     0.76378   0.92288   0.96243   0.00000  Uiso   1.00
H1294  H     0.90211   0.74342   0.53779   0.00000  Uiso   1.00
H1295  H     0.78799   0.70950   0.69940   0.00000  Uiso   1.00
H1296  H     0.87868   0.95717   0.80060   0.00000  Uiso   1.00
H1297  H     0.87870   0.71084   0.80060   0.00000  Uiso   1.00
H1298  H     0.78797   0.95582   0.69940   0.00000  Uiso   1.00
N1299  N     0.83333   0.95069   0.75000   0.00000  Uiso   1.00
N1300  N     0.83333   0.71598   0.75000   0.00000  Uiso   1.00
O1301  O     0.77321   0.87291   0.75000   0.00000  Uiso   1.00
O1302  O     0.89345   0.79375   0.75001   0.00000  Uiso   1.00
O1303  O     0.89345   0.87291   0.75001   0.00000  Uiso   1.00
O1304  O     0.77321   0.79375   0.75000   0.00000  Uiso   1.00
O1305  O     0.83332   0.87293   0.68513   0.00000  Uiso   1.00
O1306  O     0.83334   0.79373   0.81487   0.00000  Uiso   1.00
O1307  O     0.83334   0.87293   0.81487   0.00000  Uiso   1.00
O1308  O     0.83332   0.79373   0.68513   0.00000  Uiso   1.00
N1309  N     0.77969   0.89820   0.88524   0.00000  Uiso   1.00
H1310  H     0.79749   0.92286   0.86846   0.00000  Uiso   1.00
H1311  H     0.76142   0.87949   0.86252   0.00000  Uiso   1.00
N1312  N     0.88683   0.76845   0.61470   0.00000  Uiso   1.00
H1313  H     0.86913   0.74380   0.63160   0.00000  Uiso   1.00
H1314  H     0.90515   0.78726   0.63730   0.00000  Uiso   1.00
N1315  N     0.75866   0.93136   0.54787   0.00000  Uiso   1.00
H1316  H     0.77760   0.95260   0.56778   0.00000  Uiso   1.00
H1317  H     0.73782   0.91345   0.56801   0.00000  Uiso   1.00
N1318  N     0.90644   0.73497   0.95025   0.00000  Uiso   1.00
H1319  H     0.92613   0.71675   0.97147   0.00000  Uiso   1.00
H1320  H     0.88622   0.71018   0.93646   0.00000  Uiso   1.00
N1321  N     0.71105   0.77823   0.81209   0.00000  Uiso   1.00
H1322  H     0.70308   0.78930   0.84409   0.00000  Uiso   1.00
H1323  H     0.70298   0.74298   0.80815   0.00000  Uiso   1.00
N1324  N     0.95561   0.88843   0.68786   0.00000  Uiso   1.00
H1325  H     0.96359   0.87736   0.65587   0.00000  Uiso   1.00
H1326  H     0.96370   0.92368   0.69180   0.00000  Uiso   1.00
N1327  N     0.95567   0.77828   0.81214   0.00000  Uiso   1.00
H1328  H     0.96392   0.78919   0.84415   0.00000  Uiso   1.00
H1329  H     0.96345   0.74300   0.80807   0.00000  Uiso   1.00
N1330  N     0.71101   0.88833   0.68778   0.00000  Uiso   1.00
H1331  H     0.70276   0.87740   0.65578   0.00000  Uiso   1.00
H1332  H     0.70323   0.92362   0.69182   0.00000  Uiso   1.00
loop_
_geom_bond_atom_site_label_1
_geom_bond_atom_site_label_2
_geom_bond_distance
_geom_bond_site_symmetry_2
_ccdc_geom_bond_type
C1     O46     1.288   .     A
C1     O43     1.288   .     A
C1     C10     1.445   .     S
C2     O44     1.288   .     A
C2     O45     1.288   .     A
C2     C9      1.445   .     S
C3     C28     1.413   .     A
C3     N57     1.434   .     S
C3     C695    1.391   1_554 S
C4     N60     1.439   .     S
C4     C27     1.410   .     A
C4     C696    1.398   .     S
C5     N63     1.437   .     S
C5     C10     1.405   .     A
C5     C155    1.401   1_455 S
C6     C9      1.405   .     A
C6     N66     1.437   .     S
C6     C82     1.401   .     S
C7     C9      1.405   .     A
C7     N69     1.437   .     S
C7     C79     1.401   .     S
C8     N72     1.437   .     S
C8     C10     1.405   .     A
C8     C154    1.401   1_455 S
C11    N42     1.367   .     A
C11    H37     1.082   .     S
C11    C458    1.417   1_545 S
C12    N41     1.367   .     A
C12    H38     1.082   .     S
C12    C235    1.417   .     S
C13    N42     1.367   .     A
C13    H39     1.082   .     S
C13    C456    1.417   1_545 S
C14    N41     1.367   .     A
C14    H40     1.082   .     S
C14    C233    1.417   .     S
C15    O47     1.294   .     A
C15    O50     1.290   .     A
C15    C20     1.456   .     S
C16    O48     1.294   .     A
C16    O49     1.290   .     A
C16    C19     1.456   .     S
C17    H33     1.084   .     S
C17    C27     1.396   .     A
C17    C19     1.395   .     A
C18    C28     1.396   .     A
C18    H34     1.083   .     S
C18    C20     1.395   .     A
C19    C21     1.412   .     A
C20    C22     1.411   .     A
C21    C23     1.404   .     A
C21    N51     1.438   .     S
C22    N54     1.438   .     S
C22    C24     1.404   .     A
C23    C29     1.404   .     A
C23    C25     1.416   .     A
C24    C26     1.416   .     A
C24    C30     1.404   .     A
C25    C27     1.415   .     A
C25    C692    1.408   .     S
C26    C28     1.416   .     A
C26    C691    1.408   1_554 S
C29    H35     1.083   .     S
C29    C669    1.391   .     S
C30    H36     1.083   .     S
C30    C670    1.398   1_554 S
Cu31   O43     1.958   .     S
Cu31   O47     1.965   .     S
Cu31   O49     1.969   .     S
Cu31   Cu32    2.678   .     S
Cu31   N41     2.012   .     S
Cu31   O45     1.958   .     S
Cu32   O48     1.965   .     S
Cu32   O44     1.958   .     S
Cu32   O50     1.969   .     S
Cu32   O46     1.958   .     S
Cu32   N42     2.012   .     S
N51    H52     1.045   .     S
N51    H53     1.046   .     S
N54    H56     1.046   .     S
N54    H55     1.045   .     S
N57    H59     1.046   .     S
N57    H58     1.046   .     S
N60    H62     1.046   .     S
N60    H61     1.046   .     S
N63    H65     1.045   .     S
N63    H64     1.045   .     S
N66    H68     1.045   .     S
N66    H67     1.045   .     S
N69    H71     1.045   .     S
N69    H70     1.045   .     S
N72    H74     1.045   .     S
N72    H73     1.045   .     S
C75    O120    1.288   .     A
C75    O117    1.288   .     A
C75    C84     1.445   .     S
C76    O118    1.288   .     A
C76    O119    1.288   .     A
C76    C83     1.445   .     S
C77    C102    1.413   .     A
C77    N131    1.434   .     S
C77    C769    1.391   1_554 S
C78    N134    1.439   .     S
C78    C101    1.410   .     A
C78    C770    1.398   .     S
C79    N137    1.437   .     S
C79    C84     1.405   .     A
C80    C83     1.405   .     A
C80    N140    1.437   .     S
C80    C156    1.401   .     S
C81    C83     1.405   .     A
C81    N143    1.437   .     S
C81    C153    1.401   .     S
C82    N146    1.437   .     S
C82    C84     1.405   .     A
C85    N116    1.367   .     A
C85    H111    1.082   .     S
C85    C532    1.417   1_545 S
C86    N115    1.367   .     A
C86    H112    1.082   .     S
C86    C309    1.417   .     S
C87    N116    1.367   .     A
C87    H113    1.082   .     S
C87    C530    1.417   1_545 S
C88    N115    1.367   .     A
C88    H114    1.082   .     S
C88    C307    1.417   .     S
C89    O121    1.294   .     A
C89    O124    1.290   .     A
C89    C94     1.456   .     S
C90    O122    1.294   .     A
C90    O123    1.290   .     A
C90    C93     1.456   .     S
C91    H107    1.084   .     S
C91    C101    1.396   .     A
C91    C93     1.395   .     A
C92    C102    1.396   .     A
C92    H108    1.083   .     S
C92    C94     1.395   .     A
C93    C95     1.412   .     A
C94    C96     1.411   .     A
C95    C97     1.404   .     A
C95    N125    1.438   .     S
C96    N128    1.438   .     S
C96    C98     1.404   .     A
C97    C103    1.404   .     A
C97    C99     1.416   .     A
C98    C100    1.416   .     A
C98    C104    1.404   .     A
C99    C101    1.415   .     A
C99    C766    1.408   .     S
C100   C102    1.416   .     A
C100   C765    1.408   1_554 S
C103   H109    1.083   .     S
C103   C743    1.391   .     S
C104   H110    1.083   .     S
C104   C744    1.398   1_554 S
Cu105  O117    1.958   .     S
Cu105  O121    1.965   .     S
Cu105  O123    1.969   .     S
Cu105  Cu106   2.678   .     S
Cu105  N115    2.012   .     S
Cu105  O119    1.958   .     S
Cu106  O122    1.965   .     S
Cu106  O118    1.958   .     S
Cu106  O124    1.969   .     S
Cu106  O120    1.958   .     S
Cu106  N116    2.012   .     S
N125   H126    1.045   .     S
N125   H127    1.046   .     S
N128   H130    1.046   .     S
N128   H129    1.045   .     S
N131   H133    1.046   .     S
N131   H132    1.046   .     S
N134   H136    1.046   .     S
N134   H135    1.046   .     S
N137   H139    1.045   .     S
N137   H138    1.045   .     S
N140   H142    1.045   .     S
N140   H141    1.045   .     S
N143   H145    1.045   .     S
N143   H144    1.045   .     S
N146   H148    1.045   .     S
N146   H147    1.045   .     S
C149   O194    1.288   .     A
C149   O191    1.288   .     A
C149   C158    1.445   .     S
C150   O192    1.288   .     A
C150   O193    1.288   .     A
C150   C157    1.445   .     S
C151   C176    1.413   .     A
C151   N205    1.434   .     S
C151   C843    1.391   1_554 S
C152   N208    1.439   .     S
C152   C175    1.410   .     A
C152   C844    1.398   .     S
C153   N211    1.437   .     S
C153   C158    1.405   .     A
C154   C157    1.405   .     A
C154   N214    1.437   .     S
C154   C8      1.401   1_655 S
C155   C157    1.405   .     A
C155   N217    1.437   .     S
C155   C5      1.401   1_655 S
C156   N220    1.437   .     S
C156   C158    1.405   .     A
C159   N190    1.367   .     A
C159   H185    1.082   .     S
C159   C606    1.417   1_545 S
C160   N189    1.367   .     A
C160   H186    1.082   .     S
C160   C383    1.417   .     S
C161   N190    1.367   .     A
C161   H187    1.082   .     S
C161   C604    1.417   1_545 S
C162   N189    1.367   .     A
C162   H188    1.082   .     S
C162   C381    1.417   .     S
C163   O195    1.294   .     A
C163   O198    1.290   .     A
C163   C168    1.456   .     S
C164   O196    1.294   .     A
C164   O197    1.290   .     A
C164   C167    1.456   .     S
C165   H181    1.084   .     S
C165   C175    1.396   .     A
C165   C167    1.395   .     A
C166   C176    1.396   .     A
C166   H182    1.083   .     S
C166   C168    1.395   .     A
C167   C169    1.412   .     A
C168   C170    1.411   .     A
C169   C171    1.404   .     A
C169   N199    1.438   .     S
C170   N202    1.438   .     S
C170   C172    1.404   .     A
C171   C177    1.404   .     A
C171   C173    1.416   .     A
C172   C174    1.416   .     A
C172   C178    1.404   .     A
C173   C175    1.415   .     A
C173   C840    1.408   .     S
C174   C176    1.416   .     A
C174   C839    1.408   1_554 S
C177   H183    1.083   .     S
C177   C817    1.391   .     S
C178   H184    1.083   .     S
C178   C818    1.398   1_554 S
Cu179  O191    1.958   .     S
Cu179  O195    1.965   .     S
Cu179  O197    1.969   .     S
Cu179  Cu180   2.678   .     S
Cu179  N189    2.012   .     S
Cu179  O193    1.958   .     S
Cu180  O196    1.965   .     S
Cu180  O192    1.958   .     S
Cu180  O198    1.969   .     S
Cu180  O194    1.958   .     S
Cu180  N190    2.012   .     S
N199   H200    1.045   .     S
N199   H201    1.046   .     S
N202   H204    1.046   .     S
N202   H203    1.045   .     S
N205   H207    1.046   .     S
N205   H206    1.046   .     S
N208   H210    1.046   .     S
N208   H209    1.046   .     S
N211   H213    1.045   .     S
N211   H212    1.045   .     S
N214   H216    1.045   .     S
N214   H215    1.045   .     S
N217   H219    1.045   .     S
N217   H218    1.045   .     S
N220   H222    1.045   .     S
N220   H221    1.045   .     S
C223   O268    1.288   .     A
C223   O265    1.288   .     A
C223   C232    1.445   .     S
C224   O266    1.288   .     A
C224   O267    1.288   .     A
C224   C231    1.445   .     S
C225   C250    1.413   .     A
C225   N279    1.434   .     S
C225   C917    1.391   1_554 S
C226   N282    1.439   .     S
C226   C249    1.410   .     A
C226   C918    1.398   .     S
C227   N285    1.437   .     S
C227   C232    1.405   .     A
C227   C377    1.401   1_455 S
C228   C231    1.405   .     A
C228   N288    1.437   .     S
C228   C304    1.401   .     S
C229   C231    1.405   .     A
C229   N291    1.437   .     S
C229   C301    1.401   .     S
C230   N294    1.437   .     S
C230   C232    1.405   .     A
C230   C376    1.401   1_455 S
C233   N264    1.367   .     A
C233   H259    1.082   .     S
C234   N263    1.367   .     A
C234   H260    1.082   .     S
C234   C457    1.417   .     S
C235   N264    1.367   .     A
C235   H261    1.082   .     S
C236   N263    1.367   .     A
C236   H262    1.082   .     S
C236   C455    1.417   .     S
C237   O269    1.294   .     A
C237   O272    1.290   .     A
C237   C242    1.456   .     S
C238   O270    1.294   .     A
C238   O271    1.290   .     A
C238   C241    1.456   .     S
C239   H255    1.084   .     S
C239   C249    1.396   .     A
C239   C241    1.395   .     A
C240   C250    1.396   .     A
C240   H256    1.083   .     S
C240   C242    1.395   .     A
C241   C243    1.412   .     A
C242   C244    1.411   .     A
C243   C245    1.404   .     A
C243   N273    1.438   .     S
C244   N276    1.438   .     S
C244   C246    1.404   .     A
C245   C251    1.404   .     A
C245   C247    1.416   .     A
C246   C248    1.416   .     A
C246   C252    1.404   .     A
C247   C249    1.415   .     A
C247   C914    1.408   .     S
C248   C250    1.416   .     A
C248   C913    1.408   1_554 S
C251   H257    1.083   .     S
C251   C891    1.391   .     S
C252   H258    1.083   .     S
C252   C892    1.398   1_554 S
Cu253  O265    1.958   .     S
Cu253  O269    1.965   .     S
Cu253  O271    1.969   .     S
Cu253  Cu254   2.678   .     S
Cu253  N263    2.012   .     S
Cu253  O267    1.958   .     S
Cu254  O270    1.965   .     S
Cu254  O266    1.958   .     S
Cu254  O272    1.969   .     S
Cu254  O268    1.958   .     S
Cu254  N264    2.012   .     S
N273   H274    1.045   .     S
N273   H275    1.046   .     S
N276   H278    1.046   .     S
N276   H277    1.045   .     S
N279   H281    1.046   .     S
N279   H280    1.046   .     S
N282   H284    1.046   .     S
N282   H283    1.046   .     S
N285   H287    1.045   .     S
N285   H286    1.045   .     S
N288   H290    1.045   .     S
N288   H289    1.045   .     S
N291   H293    1.045   .     S
N291   H292    1.045   .     S
N294   H296    1.045   .     S
N294   H295    1.045   .     S
C297   O342    1.288   .     A
C297   O339    1.288   .     A
C297   C306    1.445   .     S
C298   O340    1.288   .     A
C298   O341    1.288   .     A
C298   C305    1.445   .     S
C299   C324    1.413   .     A
C299   N353    1.434   .     S
C299   C991    1.391   1_554 S
C300   N356    1.439   .     S
C300   C323    1.410   .     A
C300   C992    1.398   .     S
C301   N359    1.437   .     S
C301   C306    1.405   .     A
C302   C305    1.405   .     A
C302   N362    1.437   .     S
C302   C378    1.401   .     S
C303   C305    1.405   .     A
C303   N365    1.437   .     S
C303   C375    1.401   .     S
C304   N368    1.437   .     S
C304   C306    1.405   .     A
C307   N338    1.367   .     A
C307   H333    1.082   .     S
C308   N337    1.367   .     A
C308   H334    1.082   .     S
C308   C531    1.417   .     S
C309   N338    1.367   .     A
C309   H335    1.082   .     S
C310   N337    1.367   .     A
C310   H336    1.082   .     S
C310   C529    1.417   .     S
C311   O343    1.294   .     A
C311   O346    1.290   .     A
C311   C316    1.456   .     S
C312   O344    1.294   .     A
C312   O345    1.290   .     A
C312   C315    1.456   .     S
C313   H329    1.084   .     S
C313   C323    1.396   .     A
C313   C315    1.395   .     A
C314   C324    1.396   .     A
C314   H330    1.083   .     S
C314   C316    1.395   .     A
C315   C317    1.412   .     A
C316   C318    1.411   .     A
C317   C319    1.404   .     A
C317   N347    1.438   .     S
C318   N350    1.438   .     S
C318   C320    1.404   .     A
C319   C325    1.404   .     A
C319   C321    1.416   .     A
C320   C322    1.416   .     A
C320   C326    1.404   .     A
C321   C323    1.415   .     A
C321   C988    1.408   .     S
C322   C324    1.416   .     A
C322   C987    1.408   1_554 S
C325   H331    1.083   .     S
C325   C965    1.391   .     S
C326   H332    1.083   .     S
C326   C966    1.398   1_554 S
Cu327  O339    1.958   .     S
Cu327  O343    1.965   .     S
Cu327  O345    1.969   .     S
Cu327  Cu328   2.678   .     S
Cu327  N337    2.012   .     S
Cu327  O341    1.958   .     S
Cu328  O344    1.965   .     S
Cu328  O340    1.958   .     S
Cu328  O346    1.969   .     S
Cu328  O342    1.958   .     S
Cu328  N338    2.012   .     S
N347   H348    1.045   .     S
N347   H349    1.046   .     S
N350   H352    1.046   .     S
N350   H351    1.045   .     S
N353   H355    1.046   .     S
N353   H354    1.046   .     S
N356   H358    1.046   .     S
N356   H357    1.046   .     S
N359   H361    1.045   .     S
N359   H360    1.045   .     S
N362   H364    1.045   .     S
N362   H363    1.045   .     S
N365   H367    1.045   .     S
N365   H366    1.045   .     S
N368   H370    1.045   .     S
N368   H369    1.045   .     S
C371   O416    1.288   .     A
C371   O413    1.288   .     A
C371   C380    1.445   .     S
C372   O414    1.288   .     A
C372   O415    1.288   .     A
C372   C379    1.445   .     S
C373   C398    1.413   .     A
C373   N427    1.434   .     S
C373   C1065   1.391   1_554 S
C374   N430    1.439   .     S
C374   C397    1.410   .     A
C374   C1066   1.398   .     S
C375   N433    1.437   .     S
C375   C380    1.405   .     A
C376   C379    1.405   .     A
C376   N436    1.437   .     S
C376   C230    1.401   1_655 S
C377   C379    1.405   .     A
C377   N439    1.437   .     S
C377   C227    1.401   1_655 S
C378   N442    1.437   .     S
C378   C380    1.405   .     A
C381   N412    1.367   .     A
C381   H407    1.082   .     S
C382   N411    1.367   .     A
C382   H408    1.082   .     S
C382   C605    1.417   .     S
C383   N412    1.367   .     A
C383   H409    1.082   .     S
C384   N411    1.367   .     A
C384   H410    1.082   .     S
C384   C603    1.417   .     S
C385   O417    1.294   .     A
C385   O420    1.290   .     A
C385   C390    1.456   .     S
C386   O418    1.294   .     A
C386   O419    1.290   .     A
C386   C389    1.456   .     S
C387   H403    1.084   .     S
C387   C397    1.396   .     A
C387   C389    1.395   .     A
C388   C398    1.396   .     A
C388   H404    1.083   .     S
C388   C390    1.395   .     A
C389   C391    1.412   .     A
C390   C392    1.411   .     A
C391   C393    1.404   .     A
C391   N421    1.438   .     S
C392   N424    1.438   .     S
C392   C394    1.404   .     A
C393   C399    1.404   .     A
C393   C395    1.416   .     A
C394   C396    1.416   .     A
C394   C400    1.404   .     A
C395   C397    1.415   .     A
C395   C1062   1.408   .     S
C396   C398    1.416   .     A
C396   C1061   1.408   1_554 S
C399   H405    1.083   .     S
C399   C1039   1.391   .     S
C400   H406    1.083   .     S
C400   C1040   1.398   1_554 S
Cu401  O413    1.958   .     S
Cu401  O417    1.965   .     S
Cu401  O419    1.969   .     S
Cu401  Cu402   2.678   .     S
Cu401  N411    2.012   .     S
Cu401  O415    1.958   .     S
Cu402  O418    1.965   .     S
Cu402  O414    1.958   .     S
Cu402  O420    1.969   .     S
Cu402  O416    1.958   .     S
Cu402  N412    2.012   .     S
N421   H422    1.045   .     S
N421   H423    1.046   .     S
N424   H426    1.046   .     S
N424   H425    1.045   .     S
N427   H429    1.046   .     S
N427   H428    1.046   .     S
N430   H432    1.046   .     S
N430   H431    1.046   .     S
N433   H435    1.045   .     S
N433   H434    1.045   .     S
N436   H438    1.045   .     S
N436   H437    1.045   .     S
N439   H441    1.045   .     S
N439   H440    1.045   .     S
N442   H444    1.045   .     S
N442   H443    1.045   .     S
C445   O490    1.288   .     A
C445   O487    1.288   .     A
C445   C454    1.445   .     S
C446   O488    1.288   .     A
C446   O489    1.288   .     A
C446   C453    1.445   .     S
C447   C472    1.413   .     A
C447   N501    1.434   .     S
C447   C1139   1.391   1_554 S
C448   N504    1.439   .     S
C448   C471    1.410   .     A
C448   C1140   1.398   .     S
C449   N507    1.437   .     S
C449   C454    1.405   .     A
C449   C599    1.401   1_455 S
C450   C453    1.405   .     A
C450   N510    1.437   .     S
C450   C526    1.401   .     S
C451   C453    1.405   .     A
C451   N513    1.437   .     S
C451   C523    1.401   .     S
C452   N516    1.437   .     S
C452   C454    1.405   .     A
C452   C598    1.401   1_455 S
C455   N486    1.367   .     A
C455   H481    1.082   .     S
C456   N485    1.367   .     A
C456   H482    1.082   .     S
C456   C13     1.417   1_565 S
C457   N486    1.367   .     A
C457   H483    1.082   .     S
C458   N485    1.367   .     A
C458   H484    1.082   .     S
C458   C11     1.417   1_565 S
C459   O491    1.294   .     A
C459   O494    1.290   .     A
C459   C464    1.456   .     S
C460   O492    1.294   .     A
C460   O493    1.290   .     A
C460   C463    1.456   .     S
C461   H477    1.084   .     S
C461   C471    1.396   .     A
C461   C463    1.395   .     A
C462   C472    1.396   .     A
C462   H478    1.083   .     S
C462   C464    1.395   .     A
C463   C465    1.412   .     A
C464   C466    1.411   .     A
C465   C467    1.404   .     A
C465   N495    1.438   .     S
C466   N498    1.438   .     S
C466   C468    1.404   .     A
C467   C473    1.404   .     A
C467   C469    1.416   .     A
C468   C470    1.416   .     A
C468   C474    1.404   .     A
C469   C471    1.415   .     A
C469   C1136   1.408   .     S
C470   C472    1.416   .     A
C470   C1135   1.408   1_554 S
C473   H479    1.083   .     S
C473   C1113   1.391   .     S
C474   H480    1.083   .     S
C474   C1114   1.398   1_554 S
Cu475  O487    1.958   .     S
Cu475  O491    1.965   .     S
Cu475  O493    1.969   .     S
Cu475  Cu476   2.678   .     S
Cu475  N485    2.012   .     S
Cu475  O489    1.958   .     S
Cu476  O492    1.965   .     S
Cu476  O488    1.958   .     S
Cu476  O494    1.969   .     S
Cu476  O490    1.958   .     S
Cu476  N486    2.012   .     S
N495   H496    1.045   .     S
N495   H497    1.046   .     S
N498   H500    1.046   .     S
N498   H499    1.045   .     S
N501   H503    1.046   .     S
N501   H502    1.046   .     S
N504   H506    1.046   .     S
N504   H505    1.046   .     S
N507   H509    1.045   .     S
N507   H508    1.045   .     S
N510   H512    1.045   .     S
N510   H511    1.045   .     S
N513   H515    1.045   .     S
N513   H514    1.045   .     S
N516   H518    1.045   .     S
N516   H517    1.045   .     S
C519   O564    1.288   .     A
C519   O561    1.288   .     A
C519   C528    1.445   .     S
C520   O562    1.288   .     A
C520   O563    1.288   .     A
C520   C527    1.445   .     S
C521   C546    1.413   .     A
C521   N575    1.434   .     S
C521   C1213   1.391   1_554 S
C522   N578    1.439   .     S
C522   C545    1.410   .     A
C522   C1214   1.398   .     S
C523   N581    1.437   .     S
C523   C528    1.405   .     A
C524   C527    1.405   .     A
C524   N584    1.437   .     S
C524   C600    1.401   .     S
C525   C527    1.405   .     A
C525   N587    1.437   .     S
C525   C597    1.401   .     S
C526   N590    1.437   .     S
C526   C528    1.405   .     A
C529   N560    1.367   .     A
C529   H555    1.082   .     S
C530   N559    1.367   .     A
C530   H556    1.082   .     S
C530   C87     1.417   1_565 S
C531   N560    1.367   .     A
C531   H557    1.082   .     S
C532   N559    1.367   .     A
C532   H558    1.082   .     S
C532   C85     1.417   1_565 S
C533   O565    1.294   .     A
C533   O568    1.290   .     A
C533   C538    1.456   .     S
C534   O566    1.294   .     A
C534   O567    1.290   .     A
C534   C537    1.456   .     S
C535   H551    1.084   .     S
C535   C545    1.396   .     A
C535   C537    1.395   .     A
C536   C546    1.396   .     A
C536   H552    1.083   .     S
C536   C538    1.395   .     A
C537   C539    1.412   .     A
C538   C540    1.411   .     A
C539   C541    1.404   .     A
C539   N569    1.438   .     S
C540   N572    1.438   .     S
C540   C542    1.404   .     A
C541   C547    1.404   .     A
C541   C543    1.416   .     A
C542   C544    1.416   .     A
C542   C548    1.404   .     A
C543   C545    1.415   .     A
C543   C1210   1.408   .     S
C544   C546    1.416   .     A
C544   C1209   1.408   1_554 S
C547   H553    1.083   .     S
C547   C1187   1.391   .     S
C548   H554    1.083   .     S
C548   C1188   1.398   1_554 S
Cu549  O561    1.958   .     S
Cu549  O565    1.965   .     S
Cu549  O567    1.969   .     S
Cu549  Cu550   2.678   .     S
Cu549  N559    2.012   .     S
Cu549  O563    1.958   .     S
Cu550  O566    1.965   .     S
Cu550  O562    1.958   .     S
Cu550  O568    1.969   .     S
Cu550  O564    1.958   .     S
Cu550  N560    2.012   .     S
N569   H570    1.045   .     S
N569   H571    1.046   .     S
N572   H574    1.046   .     S
N572   H573    1.045   .     S
N575   H577    1.046   .     S
N575   H576    1.046   .     S
N578   H580    1.046   .     S
N578   H579    1.046   .     S
N581   H583    1.045   .     S
N581   H582    1.045   .     S
N584   H586    1.045   .     S
N584   H585    1.045   .     S
N587   H589    1.045   .     S
N587   H588    1.045   .     S
N590   H592    1.045   .     S
N590   H591    1.045   .     S
C593   O638    1.288   .     A
C593   O635    1.288   .     A
C593   C602    1.445   .     S
C594   O636    1.288   .     A
C594   O637    1.288   .     A
C594   C601    1.445   .     S
C595   C620    1.413   .     A
C595   N649    1.434   .     S
C595   C1287   1.391   1_554 S
C596   N652    1.439   .     S
C596   C619    1.410   .     A
C596   C1288   1.398   .     S
C597   N655    1.437   .     S
C597   C602    1.405   .     A
C598   C601    1.405   .     A
C598   N658    1.437   .     S
C598   C452    1.401   1_655 S
C599   C601    1.405   .     A
C599   N661    1.437   .     S
C599   C449    1.401   1_655 S
C600   N664    1.437   .     S
C600   C602    1.405   .     A
C603   N634    1.367   .     A
C603   H629    1.082   .     S
C604   N633    1.367   .     A
C604   H630    1.082   .     S
C604   C161    1.417   1_565 S
C605   N634    1.367   .     A
C605   H631    1.082   .     S
C606   N633    1.367   .     A
C606   H632    1.082   .     S
C606   C159    1.417   1_565 S
C607   O639    1.294   .     A
C607   O642    1.290   .     A
C607   C612    1.456   .     S
C608   O640    1.294   .     A
C608   O641    1.290   .     A
C608   C611    1.456   .     S
C609   H625    1.084   .     S
C609   C619    1.396   .     A
C609   C611    1.395   .     A
C610   C620    1.396   .     A
C610   H626    1.083   .     S
C610   C612    1.395   .     A
C611   C613    1.412   .     A
C612   C614    1.411   .     A
C613   C615    1.404   .     A
C613   N643    1.438   .     S
C614   N646    1.438   .     S
C614   C616    1.404   .     A
C615   C621    1.404   .     A
C615   C617    1.416   .     A
C616   C618    1.416   .     A
C616   C622    1.404   .     A
C617   C619    1.415   .     A
C617   C1284   1.408   .     S
C618   C620    1.416   .     A
C618   C1283   1.408   1_554 S
C621   H627    1.083   .     S
C621   C1261   1.391   .     S
C622   H628    1.083   .     S
C622   C1262   1.398   1_554 S
Cu623  O635    1.958   .     S
Cu623  O639    1.965   .     S
Cu623  O641    1.969   .     S
Cu623  Cu624   2.678   .     S
Cu623  N633    2.012   .     S
Cu623  O637    1.958   .     S
Cu624  O640    1.965   .     S
Cu624  O636    1.958   .     S
Cu624  O642    1.969   .     S
Cu624  O638    1.958   .     S
Cu624  N634    2.012   .     S
N643   H644    1.045   .     S
N643   H645    1.046   .     S
N646   H648    1.046   .     S
N646   H647    1.045   .     S
N649   H651    1.046   .     S
N649   H650    1.046   .     S
N652   H654    1.046   .     S
N652   H653    1.046   .     S
N655   H657    1.045   .     S
N655   H656    1.045   .     S
N658   H660    1.045   .     S
N658   H659    1.045   .     S
N661   H663    1.045   .     S
N661   H662    1.045   .     S
N664   H666    1.045   .     S
N664   H665    1.045   .     S
C667   O712    1.288   .     A
C667   O709    1.288   .     A
C667   C676    1.445   .     S
C668   O710    1.288   .     A
C668   O711    1.288   .     A
C668   C675    1.445   .     S
C669   C694    1.413   .     A
C669   N723    1.434   .     S
C670   N726    1.439   .     S
C670   C693    1.410   .     A
C670   C30     1.398   1_556 S
C671   N729    1.437   .     S
C671   C676    1.405   .     A
C671   C821    1.401   1_455 S
C672   C675    1.405   .     A
C672   N732    1.437   .     S
C672   C748    1.401   .     S
C673   C675    1.405   .     A
C673   N735    1.437   .     S
C673   C745    1.401   .     S
C674   N738    1.437   .     S
C674   C676    1.405   .     A
C674   C820    1.401   1_455 S
C677   N708    1.367   .     A
C677   H703    1.082   .     S
C677   C1124   1.417   1_545 S
C678   N707    1.367   .     A
C678   H704    1.082   .     S
C678   C901    1.417   .     S
C679   N708    1.367   .     A
C679   H705    1.082   .     S
C679   C1122   1.417   1_545 S
C680   N707    1.367   .     A
C680   H706    1.082   .     S
C680   C899    1.417   .     S
C681   O713    1.294   .     A
C681   O716    1.290   .     A
C681   C686    1.456   .     S
C682   O714    1.294   .     A
C682   O715    1.290   .     A
C682   C685    1.456   .     S
C683   H699    1.084   .     S
C683   C693    1.396   .     A
C683   C685    1.395   .     A
C684   C694    1.396   .     A
C684   H700    1.083   .     S
C684   C686    1.395   .     A
C685   C687    1.412   .     A
C686   C688    1.411   .     A
C687   C689    1.404   .     A
C687   N717    1.438   .     S
C688   N720    1.438   .     S
C688   C690    1.404   .     A
C689   C695    1.404   .     A
C689   C691    1.416   .     A
C690   C692    1.416   .     A
C690   C696    1.404   .     A
C691   C693    1.415   .     A
C691   C26     1.408   1_556 S
C692   C694    1.416   .     A
C695   H701    1.083   .     S
C695   C3      1.391   1_556 S
C696   H702    1.083   .     S
Cu697  O709    1.958   .     S
Cu697  O713    1.965   .     S
Cu697  O715    1.969   .     S
Cu697  Cu698   2.678   .     S
Cu697  N707    2.012   .     S
Cu697  O711    1.958   .     S
Cu698  O714    1.965   .     S
Cu698  O710    1.958   .     S
Cu698  O716    1.969   .     S
Cu698  O712    1.958   .     S
Cu698  N708    2.012   .     S
N717   H718    1.045   .     S
N717   H719    1.046   .     S
N720   H722    1.046   .     S
N720   H721    1.045   .     S
N723   H725    1.046   .     S
N723   H724    1.046   .     S
N726   H728    1.046   .     S
N726   H727    1.046   .     S
N729   H731    1.045   .     S
N729   H730    1.045   .     S
N732   H734    1.045   .     S
N732   H733    1.045   .     S
N735   H737    1.045   .     S
N735   H736    1.045   .     S
N738   H740    1.045   .     S
N738   H739    1.045   .     S
C741   O786    1.288   .     A
C741   O783    1.288   .     A
C741   C750    1.445   .     S
C742   O784    1.288   .     A
C742   O785    1.288   .     A
C742   C749    1.445   .     S
C743   C768    1.413   .     A
C743   N797    1.434   .     S
C744   N800    1.439   .     S
C744   C767    1.410   .     A
C744   C104    1.398   1_556 S
C745   N803    1.437   .     S
C745   C750    1.405   .     A
C746   C749    1.405   .     A
C746   N806    1.437   .     S
C746   C822    1.401   .     S
C747   C749    1.405   .     A
C747   N809    1.437   .     S
C747   C819    1.401   .     S
C748   N812    1.437   .     S
C748   C750    1.405   .     A
C751   N782    1.367   .     A
C751   H777    1.082   .     S
C751   C1198   1.417   1_545 S
C752   N781    1.367   .     A
C752   H778    1.082   .     S
C752   C975    1.417   .     S
C753   N782    1.367   .     A
C753   H779    1.082   .     S
C753   C1196   1.417   1_545 S
C754   N781    1.367   .     A
C754   H780    1.082   .     S
C754   C973    1.417   .     S
C755   O787    1.294   .     A
C755   O790    1.290   .     A
C755   C760    1.456   .     S
C756   O788    1.294   .     A
C756   O789    1.290   .     A
C756   C759    1.456   .     S
C757   H773    1.084   .     S
C757   C767    1.396   .     A
C757   C759    1.395   .     A
C758   C768    1.396   .     A
C758   H774    1.083   .     S
C758   C760    1.395   .     A
C759   C761    1.412   .     A
C760   C762    1.411   .     A
C761   C763    1.404   .     A
C761   N791    1.438   .     S
C762   N794    1.438   .     S
C762   C764    1.404   .     A
C763   C769    1.404   .     A
C763   C765    1.416   .     A
C764   C766    1.416   .     A
C764   C770    1.404   .     A
C765   C767    1.415   .     A
C765   C100    1.408   1_556 S
C766   C768    1.416   .     A
C769   H775    1.083   .     S
C769   C77     1.391   1_556 S
C770   H776    1.083   .     S
Cu771  O783    1.958   .     S
Cu771  O787    1.965   .     S
Cu771  O789    1.969   .     S
Cu771  Cu772   2.678   .     S
Cu771  N781    2.012   .     S
Cu771  O785    1.958   .     S
Cu772  O788    1.965   .     S
Cu772  O784    1.958   .     S
Cu772  O790    1.969   .     S
Cu772  O786    1.958   .     S
Cu772  N782    2.012   .     S
N791   H792    1.045   .     S
N791   H793    1.046   .     S
N794   H796    1.046   .     S
N794   H795    1.045   .     S
N797   H799    1.046   .     S
N797   H798    1.046   .     S
N800   H802    1.046   .     S
N800   H801    1.046   .     S
N803   H805    1.045   .     S
N803   H804    1.045   .     S
N806   H808    1.045   .     S
N806   H807    1.045   .     S
N809   H811    1.045   .     S
N809   H810    1.045   .     S
N812   H814    1.045   .     S
N812   H813    1.045   .     S
C815   O860    1.288   .     A
C815   O857    1.288   .     A
C815   C824    1.445   .     S
C816   O858    1.288   .     A
C816   O859    1.288   .     A
C816   C823    1.445   .     S
C817   C842    1.413   .     A
C817   N871    1.434   .     S
C818   N874    1.439   .     S
C818   C841    1.410   .     A
C818   C178    1.398   1_556 S
C819   N877    1.437   .     S
C819   C824    1.405   .     A
C820   C823    1.405   .     A
C820   N880    1.437   .     S
C820   C674    1.401   1_655 S
C821   C823    1.405   .     A
C821   N883    1.437   .     S
C821   C671    1.401   1_655 S
C822   N886    1.437   .     S
C822   C824    1.405   .     A
C825   N856    1.367   .     A
C825   H851    1.082   .     S
C825   C1272   1.417   1_545 S
C826   N855    1.367   .     A
C826   H852    1.082   .     S
C826   C1049   1.417   .     S
C827   N856    1.367   .     A
C827   H853    1.082   .     S
C827   C1270   1.417   1_545 S
C828   N855    1.367   .     A
C828   H854    1.082   .     S
C828   C1047   1.417   .     S
C829   O861    1.294   .     A
C829   O864    1.290   .     A
C829   C834    1.456   .     S
C830   O862    1.294   .     A
C830   O863    1.290   .     A
C830   C833    1.456   .     S
C831   H847    1.084   .     S
C831   C841    1.396   .     A
C831   C833    1.395   .     A
C832   C842    1.396   .     A
C832   H848    1.083   .     S
C832   C834    1.395   .     A
C833   C835    1.412   .     A
C834   C836    1.411   .     A
C835   C837    1.404   .     A
C835   N865    1.438   .     S
C836   N868    1.438   .     S
C836   C838    1.404   .     A
C837   C843    1.404   .     A
C837   C839    1.416   .     A
C838   C840    1.416   .     A
C838   C844    1.404   .     A
C839   C841    1.415   .     A
C839   C174    1.408   1_556 S
C840   C842    1.416   .     A
C843   H849    1.083   .     S
C843   C151    1.391   1_556 S
C844   H850    1.083   .     S
Cu845  O857    1.958   .     S
Cu845  O861    1.965   .     S
Cu845  O863    1.969   .     S
Cu845  Cu846   2.678   .     S
Cu845  N855    2.012   .     S
Cu845  O859    1.958   .     S
Cu846  O862    1.965   .     S
Cu846  O858    1.958   .     S
Cu846  O864    1.969   .     S
Cu846  O860    1.958   .     S
Cu846  N856    2.012   .     S
N865   H866    1.045   .     S
N865   H867    1.046   .     S
N868   H870    1.046   .     S
N868   H869    1.045   .     S
N871   H873    1.046   .     S
N871   H872    1.046   .     S
N874   H876    1.046   .     S
N874   H875    1.046   .     S
N877   H879    1.045   .     S
N877   H878    1.045   .     S
N880   H882    1.045   .     S
N880   H881    1.045   .     S
N883   H885    1.045   .     S
N883   H884    1.045   .     S
N886   H888    1.045   .     S
N886   H887    1.045   .     S
C889   O934    1.288   .     A
C889   O931    1.288   .     A
C889   C898    1.445   .     S
C890   O932    1.288   .     A
C890   O933    1.288   .     A
C890   C897    1.445   .     S
C891   C916    1.413   .     A
C891   N945    1.434   .     S
C892   N948    1.439   .     S
C892   C915    1.410   .     A
C892   C252    1.398   1_556 S
C893   N951    1.437   .     S
C893   C898    1.405   .     A
C893   C1043   1.401   1_455 S
C894   C897    1.405   .     A
C894   N954    1.437   .     S
C894   C970    1.401   .     S
C895   C897    1.405   .     A
C895   N957    1.437   .     S
C895   C967    1.401   .     S
C896   N960    1.437   .     S
C896   C898    1.405   .     A
C896   C1042   1.401   1_455 S
C899   N930    1.367   .     A
C899   H925    1.082   .     S
C900   N929    1.367   .     A
C900   H926    1.082   .     S
C900   C1123   1.417   .     S
C901   N930    1.367   .     A
C901   H927    1.082   .     S
C902   N929    1.367   .     A
C902   H928    1.082   .     S
C902   C1121   1.417   .     S
C903   O935    1.294   .     A
C903   O938    1.290   .     A
C903   C908    1.456   .     S
C904   O936    1.294   .     A
C904   O937    1.290   .     A
C904   C907    1.456   .     S
C905   H921    1.084   .     S
C905   C915    1.396   .     A
C905   C907    1.395   .     A
C906   C916    1.396   .     A
C906   H922    1.083   .     S
C906   C908    1.395   .     A
C907   C909    1.412   .     A
C908   C910    1.411   .     A
C909   C911    1.404   .     A
C909   N939    1.438   .     S
C910   N942    1.438   .     S
C910   C912    1.404   .     A
C911   C917    1.404   .     A
C911   C913    1.416   .     A
C912   C914    1.416   .     A
C912   C918    1.404   .     A
C913   C915    1.415   .     A
C913   C248    1.408   1_556 S
C914   C916    1.416   .     A
C917   H923    1.083   .     S
C917   C225    1.391   1_556 S
C918   H924    1.083   .     S
Cu919  O931    1.958   .     S
Cu919  O935    1.965   .     S
Cu919  O937    1.969   .     S
Cu919  Cu920   2.678   .     S
Cu919  N929    2.012   .     S
Cu919  O933    1.958   .     S
Cu920  O936    1.965   .     S
Cu920  O932    1.958   .     S
Cu920  O938    1.969   .     S
Cu920  O934    1.958   .     S
Cu920  N930    2.012   .     S
N939   H940    1.045   .     S
N939   H941    1.046   .     S
N942   H944    1.046   .     S
N942   H943    1.045   .     S
N945   H947    1.046   .     S
N945   H946    1.046   .     S
N948   H950    1.046   .     S
N948   H949    1.046   .     S
N951   H953    1.045   .     S
N951   H952    1.045   .     S
N954   H956    1.045   .     S
N954   H955    1.045   .     S
N957   H959    1.045   .     S
N957   H958    1.045   .     S
N960   H962    1.045   .     S
N960   H961    1.045   .     S
C963   O1008   1.288   .     A
C963   O1005   1.288   .     A
C963   C972    1.445   .     S
C964   O1006   1.288   .     A
C964   O1007   1.288   .     A
C964   C971    1.445   .     S
C965   C990    1.413   .     A
C965   N1019   1.434   .     S
C966   N1022   1.439   .     S
C966   C989    1.410   .     A
C966   C326    1.398   1_556 S
C967   N1025   1.437   .     S
C967   C972    1.405   .     A
C968   C971    1.405   .     A
C968   N1028   1.437   .     S
C968   C1044   1.401   .     S
C969   C971    1.405   .     A
C969   N1031   1.437   .     S
C969   C1041   1.401   .     S
C970   N1034   1.437   .     S
C970   C972    1.405   .     A
C973   N1004   1.367   .     A
C973   H999    1.082   .     S
C974   N1003   1.367   .     A
C974   H1000   1.082   .     S
C974   C1197   1.417   .     S
C975   N1004   1.367   .     A
C975   H1001   1.082   .     S
C976   N1003   1.367   .     A
C976   H1002   1.082   .     S
C976   C1195   1.417   .     S
C977   O1009   1.294   .     A
C977   O1012   1.290   .     A
C977   C982    1.456   .     S
C978   O1010   1.294   .     A
C978   O1011   1.290   .     A
C978   C981    1.456   .     S
C979   H995    1.084   .     S
C979   C989    1.396   .     A
C979   C981    1.395   .     A
C980   C990    1.396   .     A
C980   H996    1.083   .     S
C980   C982    1.395   .     A
C981   C983    1.412   .     A
C982   C984    1.411   .     A
C983   C985    1.404   .     A
C983   N1013   1.438   .     S
C984   N1016   1.438   .     S
C984   C986    1.404   .     A
C985   C991    1.404   .     A
C985   C987    1.416   .     A
C986   C988    1.416   .     A
C986   C992    1.404   .     A
C987   C989    1.415   .     A
C987   C322    1.408   1_556 S
C988   C990    1.416   .     A
C991   H997    1.083   .     S
C991   C299    1.391   1_556 S
C992   H998    1.083   .     S
Cu993  O1005   1.958   .     S
Cu993  O1009   1.965   .     S
Cu993  O1011   1.969   .     S
Cu993  Cu994   2.678   .     S
Cu993  N1003   2.012   .     S
Cu993  O1007   1.958   .     S
Cu994  O1010   1.965   .     S
Cu994  O1006   1.958   .     S
Cu994  O1012   1.969   .     S
Cu994  O1008   1.958   .     S
Cu994  N1004   2.012   .     S
N1013  H1014   1.045   .     S
N1013  H1015   1.046   .     S
N1016  H1018   1.046   .     S
N1016  H1017   1.045   .     S
N1019  H1021   1.046   .     S
N1019  H1020   1.046   .     S
N1022  H1024   1.046   .     S
N1022  H1023   1.046   .     S
N1025  H1027   1.045   .     S
N1025  H1026   1.045   .     S
N1028  H1030   1.045   .     S
N1028  H1029   1.045   .     S
N1031  H1033   1.045   .     S
N1031  H1032   1.045   .     S
N1034  H1036   1.045   .     S
N1034  H1035   1.045   .     S
C1037  O1082   1.288   .     A
C1037  O1079   1.288   .     A
C1037  C1046   1.445   .     S
C1038  O1080   1.288   .     A
C1038  O1081   1.288   .     A
C1038  C1045   1.445   .     S
C1039  C1064   1.413   .     A
C1039  N1093   1.434   .     S
C1040  N1096   1.439   .     S
C1040  C1063   1.410   .     A
C1040  C400    1.398   1_556 S
C1041  N1099   1.437   .     S
C1041  C1046   1.405   .     A
C1042  C1045   1.405   .     A
C1042  N1102   1.437   .     S
C1042  C896    1.401   1_655 S
C1043  C1045   1.405   .     A
C1043  N1105   1.437   .     S
C1043  C893    1.401   1_655 S
C1044  N1108   1.437   .     S
C1044  C1046   1.405   .     A
C1047  N1078   1.367   .     A
C1047  H1073   1.082   .     S
C1048  N1077   1.367   .     A
C1048  H1074   1.082   .     S
C1048  C1271   1.417   .     S
C1049  N1078   1.367   .     A
C1049  H1075   1.082   .     S
C1050  N1077   1.367   .     A
C1050  H1076   1.082   .     S
C1050  C1269   1.417   .     S
C1051  O1083   1.294   .     A
C1051  O1086   1.290   .     A
C1051  C1056   1.456   .     S
C1052  O1084   1.294   .     A
C1052  O1085   1.290   .     A
C1052  C1055   1.456   .     S
C1053  H1069   1.084   .     S
C1053  C1063   1.396   .     A
C1053  C1055   1.395   .     A
C1054  C1064   1.396   .     A
C1054  H1070   1.083   .     S
C1054  C1056   1.395   .     A
C1055  C1057   1.412   .     A
C1056  C1058   1.411   .     A
C1057  C1059   1.404   .     A
C1057  N1087   1.438   .     S
C1058  N1090   1.438   .     S
C1058  C1060   1.404   .     A
C1059  C1065   1.404   .     A
C1059  C1061   1.416   .     A
C1060  C1062   1.416   .     A
C1060  C1066   1.404   .     A
C1061  C1063   1.415   .     A
C1061  C396    1.408   1_556 S
C1062  C1064   1.416   .     A
C1065  H1071   1.083   .     S
C1065  C373    1.391   1_556 S
C1066  H1072   1.083   .     S
Cu1067 O1079   1.958   .     S
Cu1067 O1083   1.965   .     S
Cu1067 O1085   1.969   .     S
Cu1067 Cu1068  2.678   .     S
Cu1067 N1077   2.012   .     S
Cu1067 O1081   1.958   .     S
Cu1068 O1084   1.965   .     S
Cu1068 O1080   1.958   .     S
Cu1068 O1086   1.969   .     S
Cu1068 O1082   1.958   .     S
Cu1068 N1078   2.012   .     S
N1087  H1088   1.045   .     S
N1087  H1089   1.046   .     S
N1090  H1092   1.046   .     S
N1090  H1091   1.045   .     S
N1093  H1095   1.046   .     S
N1093  H1094   1.046   .     S
N1096  H1098   1.046   .     S
N1096  H1097   1.046   .     S
N1099  H1101   1.045   .     S
N1099  H1100   1.045   .     S
N1102  H1104   1.045   .     S
N1102  H1103   1.045   .     S
N1105  H1107   1.045   .     S
N1105  H1106   1.045   .     S
N1108  H1110   1.045   .     S
N1108  H1109   1.045   .     S
C1111  O1156   1.288   .     A
C1111  O1153   1.288   .     A
C1111  C1120   1.445   .     S
C1112  O1154   1.288   .     A
C1112  O1155   1.288   .     A
C1112  C1119   1.445   .     S
C1113  C1138   1.413   .     A
C1113  N1167   1.434   .     S
C1114  N1170   1.439   .     S
C1114  C1137   1.410   .     A
C1114  C474    1.398   1_556 S
C1115  N1173   1.437   .     S
C1115  C1120   1.405   .     A
C1115  C1265   1.401   1_455 S
C1116  C1119   1.405   .     A
C1116  N1176   1.437   .     S
C1116  C1192   1.401   .     S
C1117  C1119   1.405   .     A
C1117  N1179   1.437   .     S
C1117  C1189   1.401   .     S
C1118  N1182   1.437   .     S
C1118  C1120   1.405   .     A
C1118  C1264   1.401   1_455 S
C1121  N1152   1.367   .     A
C1121  H1147   1.082   .     S
C1122  N1151   1.367   .     A
C1122  H1148   1.082   .     S
C1122  C679    1.417   1_565 S
C1123  N1152   1.367   .     A
C1123  H1149   1.082   .     S
C1124  N1151   1.367   .     A
C1124  H1150   1.082   .     S
C1124  C677    1.417   1_565 S
C1125  O1157   1.294   .     A
C1125  O1160   1.290   .     A
C1125  C1130   1.456   .     S
C1126  O1158   1.294   .     A
C1126  O1159   1.290   .     A
C1126  C1129   1.456   .     S
C1127  H1143   1.084   .     S
C1127  C1137   1.396   .     A
C1127  C1129   1.395   .     A
C1128  C1138   1.396   .     A
C1128  H1144   1.083   .     S
C1128  C1130   1.395   .     A
C1129  C1131   1.412   .     A
C1130  C1132   1.411   .     A
C1131  C1133   1.404   .     A
C1131  N1161   1.438   .     S
C1132  N1164   1.438   .     S
C1132  C1134   1.404   .     A
C1133  C1139   1.404   .     A
C1133  C1135   1.416   .     A
C1134  C1136   1.416   .     A
C1134  C1140   1.404   .     A
C1135  C1137   1.415   .     A
C1135  C470    1.408   1_556 S
C1136  C1138   1.416   .     A
C1139  H1145   1.083   .     S
C1139  C447    1.391   1_556 S
C1140  H1146   1.083   .     S
Cu1141 O1153   1.958   .     S
Cu1141 O1157   1.965   .     S
Cu1141 O1159   1.969   .     S
Cu1141 Cu1142  2.678   .     S
Cu1141 N1151   2.012   .     S
Cu1141 O1155   1.958   .     S
Cu1142 O1158   1.965   .     S
Cu1142 O1154   1.958   .     S
Cu1142 O1160   1.969   .     S
Cu1142 O1156   1.958   .     S
Cu1142 N1152   2.012   .     S
N1161  H1162   1.045   .     S
N1161  H1163   1.046   .     S
N1164  H1166   1.046   .     S
N1164  H1165   1.045   .     S
N1167  H1169   1.046   .     S
N1167  H1168   1.046   .     S
N1170  H1172   1.046   .     S
N1170  H1171   1.046   .     S
N1173  H1175   1.045   .     S
N1173  H1174   1.045   .     S
N1176  H1178   1.045   .     S
N1176  H1177   1.045   .     S
N1179  H1181   1.045   .     S
N1179  H1180   1.045   .     S
N1182  H1184   1.045   .     S
N1182  H1183   1.045   .     S
C1185  O1230   1.288   .     A
C1185  O1227   1.288   .     A
C1185  C1194   1.445   .     S
C1186  O1228   1.288   .     A
C1186  O1229   1.288   .     A
C1186  C1193   1.445   .     S
C1187  C1212   1.413   .     A
C1187  N1241   1.434   .     S
C1188  N1244   1.439   .     S
C1188  C1211   1.410   .     A
C1188  C548    1.398   1_556 S
C1189  N1247   1.437   .     S
C1189  C1194   1.405   .     A
C1190  C1193   1.405   .     A
C1190  N1250   1.437   .     S
C1190  C1266   1.401   .     S
C1191  C1193   1.405   .     A
C1191  N1253   1.437   .     S
C1191  C1263   1.401   .     S
C1192  N1256   1.437   .     S
C1192  C1194   1.405   .     A
C1195  N1226   1.367   .     A
C1195  H1221   1.082   .     S
C1196  N1225   1.367   .     A
C1196  H1222   1.082   .     S
C1196  C753    1.417   1_565 S
C1197  N1226   1.367   .     A
C1197  H1223   1.082   .     S
C1198  N1225   1.367   .     A
C1198  H1224   1.082   .     S
C1198  C751    1.417   1_565 S
C1199  O1231   1.294   .     A
C1199  O1234   1.290   .     A
C1199  C1204   1.456   .     S
C1200  O1232   1.294   .     A
C1200  O1233   1.290   .     A
C1200  C1203   1.456   .     S
C1201  H1217   1.084   .     S
C1201  C1211   1.396   .     A
C1201  C1203   1.395   .     A
C1202  C1212   1.396   .     A
C1202  H1218   1.083   .     S
C1202  C1204   1.395   .     A
C1203  C1205   1.412   .     A
C1204  C1206   1.411   .     A
C1205  C1207   1.404   .     A
C1205  N1235   1.438   .     S
C1206  N1238   1.438   .     S
C1206  C1208   1.404   .     A
C1207  C1213   1.404   .     A
C1207  C1209   1.416   .     A
C1208  C1210   1.416   .     A
C1208  C1214   1.404   .     A
C1209  C1211   1.415   .     A
C1209  C544    1.408   1_556 S
C1210  C1212   1.416   .     A
C1213  H1219   1.083   .     S
C1213  C521    1.391   1_556 S
C1214  H1220   1.083   .     S
Cu1215 O1227   1.958   .     S
Cu1215 O1231   1.965   .     S
Cu1215 O1233   1.969   .     S
Cu1215 Cu1216  2.678   .     S
Cu1215 N1225   2.012   .     S
Cu1215 O1229   1.958   .     S
Cu1216 O1232   1.965   .     S
Cu1216 O1228   1.958   .     S
Cu1216 O1234   1.969   .     S
Cu1216 O1230   1.958   .     S
Cu1216 N1226   2.012   .     S
N1235  H1236   1.045   .     S
N1235  H1237   1.046   .     S
N1238  H1240   1.046   .     S
N1238  H1239   1.045   .     S
N1241  H1243   1.046   .     S
N1241  H1242   1.046   .     S
N1244  H1246   1.046   .     S
N1244  H1245   1.046   .     S
N1247  H1249   1.045   .     S
N1247  H1248   1.045   .     S
N1250  H1252   1.045   .     S
N1250  H1251   1.045   .     S
N1253  H1255   1.045   .     S
N1253  H1254   1.045   .     S
N1256  H1258   1.045   .     S
N1256  H1257   1.045   .     S
C1259  O1304   1.288   .     A
C1259  O1301   1.288   .     A
C1259  C1268   1.445   .     S
C1260  O1302   1.288   .     A
C1260  O1303   1.288   .     A
C1260  C1267   1.445   .     S
C1261  C1286   1.413   .     A
C1261  N1315   1.434   .     S
C1262  N1318   1.439   .     S
C1262  C1285   1.410   .     A
C1262  C622    1.398   1_556 S
C1263  N1321   1.437   .     S
C1263  C1268   1.405   .     A
C1264  C1267   1.405   .     A
C1264  N1324   1.437   .     S
C1264  C1118   1.401   1_655 S
C1265  C1267   1.405   .     A
C1265  N1327   1.437   .     S
C1265  C1115   1.401   1_655 S
C1266  N1330   1.437   .     S
C1266  C1268   1.405   .     A
C1269  N1300   1.367   .     A
C1269  H1295   1.082   .     S
C1270  N1299   1.367   .     A
C1270  H1296   1.082   .     S
C1270  C827    1.417   1_565 S
C1271  N1300   1.367   .     A
C1271  H1297   1.082   .     S
C1272  N1299   1.367   .     A
C1272  H1298   1.082   .     S
C1272  C825    1.417   1_565 S
C1273  O1305   1.294   .     A
C1273  O1308   1.290   .     A
C1273  C1278   1.456   .     S
C1274  O1306   1.294   .     A
C1274  O1307   1.290   .     A
C1274  C1277   1.456   .     S
C1275  H1291   1.084   .     S
C1275  C1285   1.396   .     A
C1275  C1277   1.395   .     A
C1276  C1286   1.396   .     A
C1276  H1292   1.083   .     S
C1276  C1278   1.395   .     A
C1277  C1279   1.412   .     A
C1278  C1280   1.411   .     A
C1279  C1281   1.404   .     A
C1279  N1309   1.438   .     S
C1280  N1312   1.438   .     S
C1280  C1282   1.404   .     A
C1281  C1287   1.404   .     A
C1281  C1283   1.416   .     A
C1282  C1284   1.416   .     A
C1282  C1288   1.404   .     A
C1283  C1285   1.415   .     A
C1283  C618    1.408   1_556 S
C1284  C1286   1.416   .     A
C1287  H1293   1.083   .     S
C1287  C595    1.391   1_556 S
C1288  H1294   1.083   .     S
Cu1289 O1301   1.958   .     S
Cu1289 O1305   1.965   .     S
Cu1289 O1307   1.969   .     S
Cu1289 Cu1290  2.678   .     S
Cu1289 N1299   2.012   .     S
Cu1289 O1303   1.958   .     S
Cu1290 O1306   1.965   .     S
Cu1290 O1302   1.958   .     S
Cu1290 O1308   1.969   .     S
Cu1290 O1304   1.958   .     S
Cu1290 N1300   2.012   .     S
N1309  H1310   1.045   .     S
N1309  H1311   1.046   .     S
N1312  H1314   1.046   .     S
N1312  H1313   1.045   .     S
N1315  H1317   1.046   .     S
N1315  H1316   1.046   .     S
N1318  H1320   1.046   .     S
N1318  H1319   1.046   .     S
N1321  H1323   1.045   .     S
N1321  H1322   1.045   .     S
N1324  H1326   1.045   .     S
N1324  H1325   1.045   .     S
N1327  H1329   1.045   .     S
N1327  H1328   1.045   .     S
N1330  H1332   1.045   .     S
N1330  H1331   1.045   .     S
