data_str_m2_o1_o2_pcu_sym.115
_audit_creation_date              2020-01-03
_audit_creation_method            'Materials Studio'
_symmetry_space_group_name_H-M    'P1'
_symmetry_Int_Tables_number       1
_symmetry_cell_setting            triclinic
loop_
_symmetry_equiv_pos_as_xyz
  x,y,z
_cell_length_a                    32.8513
_cell_length_b                    28.5136
_cell_length_c                    30.1236
_cell_angle_alpha                 90.1746
_cell_angle_beta                  88.8756
_cell_angle_gamma                 90.2185
loop_
_atom_site_label
_atom_site_type_symbol
_atom_site_fract_x
_atom_site_fract_y
_atom_site_fract_z
_atom_site_U_iso_or_equiv
_atom_site_adp_type
_atom_site_occupancy
C1     C     0.08733   0.16658   0.25102   0.00000  Uiso   1.00
C2     C     0.24602   0.16668   0.24920   0.00000  Uiso   1.00
C3     C     0.16741   0.16660   0.16481   0.00000  Uiso   1.00
C4     C     0.16661   0.16668   0.33493   0.00000  Uiso   1.00
C5     C     0.15377   0.02464   0.21398   0.00000  Uiso   1.00
C6     C     0.17967   0.30872   0.28601   0.00000  Uiso   1.00
C7     C     0.17929   0.02494   0.28617   0.00000  Uiso   1.00
C8     C     0.15298   0.30840   0.21432   0.00000  Uiso   1.00
C9     C     0.02096   0.12370   0.25017   0.00000  Uiso   1.00
C10    C     0.31280   0.20875   0.24489   0.00000  Uiso   1.00
C11    C     0.31194   0.12388   0.25393   0.00000  Uiso   1.00
C12    C     0.02101   0.20904   0.25354   0.00000  Uiso   1.00
C13    C     0.18329   0.20846   0.04751   0.00000  Uiso   1.00
C14    C     0.20044   0.13821   0.44914   0.00000  Uiso   1.00
C15    C     0.14694   0.19778   0.45402   0.00000  Uiso   1.00
C16    C     0.16855   0.12423   0.04645   0.00000  Uiso   1.00
C17    C     0.17814   0.20839   0.09355   0.00000  Uiso   1.00
C18    C     0.19522   0.13583   0.40346   0.00000  Uiso   1.00
C19    C     0.14525   0.19804   0.40791   0.00000  Uiso   1.00
C20    C     0.16697   0.12436   0.09267   0.00000  Uiso   1.00
C21    C     0.17044   0.16648   0.11633   0.00000  Uiso   1.00
C22    C     0.16867   0.16659   0.38286   0.00000  Uiso   1.00
C23    C     0.17673   0.16665   0.02361   0.00000  Uiso   1.00
C24    C     0.17517   0.16802   0.47496   0.00000  Uiso   1.00
C25    C     0.29065   0.16644   0.24919   0.00000  Uiso   1.00
C26    C     0.04268   0.16638   0.25213   0.00000  Uiso   1.00
Cu27   Cu    0.16667   0.21355   0.25000   0.00000  Uiso   1.00
Cu28   Cu    0.16667   0.11978   0.25000   0.00000  Uiso   1.00
N29    N     0.16667   0.28402   0.25000   0.00000  Uiso   1.00
N30    N     0.16667   0.04931   0.25000   0.00000  Uiso   1.00
O31    O     0.10655   0.20625   0.24999   0.00000  Uiso   1.00
O32    O     0.22679   0.12709   0.25000   0.00000  Uiso   1.00
O33    O     0.22679   0.20625   0.25000   0.00000  Uiso   1.00
O34    O     0.10655   0.12709   0.24999   0.00000  Uiso   1.00
O35    O     0.16666   0.20626   0.18573   0.00000  Uiso   1.00
O36    O     0.16667   0.12707   0.31427   0.00000  Uiso   1.00
O37    O     0.16667   0.20626   0.31427   0.00000  Uiso   1.00
O38    O     0.16666   0.12707   0.18573   0.00000  Uiso   1.00
H39    H     0.14328   0.04301   0.18510   0.00000  Uiso   1.00
H40    H     0.19059   0.29040   0.31475   0.00000  Uiso   1.00
H41    H     0.18982   0.04354   0.31507   0.00000  Uiso   1.00
H42    H     0.14184   0.28980   0.18568   0.00000  Uiso   1.00
O43    O     0.19078   0.25020   0.02538   0.00000  Uiso   1.00
C44    C     0.23145   0.26429   0.03205   0.00000  Uiso   1.00
H45    H     0.25296   0.23671   0.01999   0.00000  Uiso   1.00
H46    H     0.23682   0.27145   0.06781   0.00000  Uiso   1.00
C47    C     0.23969   0.30940   0.00601   0.00000  Uiso   1.00
H48    H     0.23347   0.30333   0.47030   0.00000  Uiso   1.00
H49    H     0.21894   0.00404   0.01855   0.00000  Uiso   1.00
C50    C     0.28367   0.32584   0.01061   0.00000  Uiso   1.00
H51    H     0.29102   0.33099   0.04613   0.00000  Uiso   1.00
H52    H     0.28805   0.02638   0.49313   0.00000  Uiso   1.00
H53    H     0.30483   0.29975   0.49552   0.00000  Uiso   1.00
O54    O     0.22921   0.10999   0.46861   0.00000  Uiso   1.00
C55    C     0.26758   0.13293   0.46770   0.00000  Uiso   1.00
H56    H     0.28333   0.12337   0.49868   0.00000  Uiso   1.00
H57    H     0.26545   0.17201   0.46770   0.00000  Uiso   1.00
C58    C     0.29356   0.11623   0.42783   0.00000  Uiso   1.00
H59    H     0.29432   0.07729   0.42711   0.00000  Uiso   1.00
H60    H     0.28018   0.12867   0.39650   0.00000  Uiso   1.00
C61    C     0.00367   0.13501   0.42985   0.00000  Uiso   1.00
H62    H     0.00362   0.17396   0.42919   0.00000  Uiso   1.00
H63    H     0.02160   0.12205   0.40071   0.00000  Uiso   1.00
H64    H     0.01846   0.12285   0.46054   0.00000  Uiso   1.00
O65    O     0.12336   0.22975   0.47770   0.00000  Uiso   1.00
C66    C     0.08797   0.20722   0.49447   0.00000  Uiso   1.00
H67    H     0.09597   0.18226   0.02110   0.00000  Uiso   1.00
H68    H     0.07170   0.18834   0.46763   0.00000  Uiso   1.00
C69    C     0.05945   0.24397   0.01486   0.00000  Uiso   1.00
H70    H     0.07615   0.26478   0.03997   0.00000  Uiso   1.00
H71    H     0.04919   0.26806   0.48844   0.00000  Uiso   1.00
C72    C     0.02229   0.22125   0.03735   0.00000  Uiso   1.00
H73    H     0.00381   0.20231   0.01253   0.00000  Uiso   1.00
H74    H     0.00314   0.24872   0.05340   0.00000  Uiso   1.00
H75    H     0.03188   0.19629   0.06336   0.00000  Uiso   1.00
O76    O     0.16541   0.08174   0.02429   0.00000  Uiso   1.00
C77    C     0.12540   0.07497   0.00882   0.00000  Uiso   1.00
H78    H     0.12768   0.05324   0.47820   0.00000  Uiso   1.00
H79    H     0.11024   0.10800   0.49894   0.00000  Uiso   1.00
C80    C     0.09919   0.04848   0.04318   0.00000  Uiso   1.00
H81    H     0.11364   0.01424   0.05049   0.00000  Uiso   1.00
H82    H     0.09692   0.06910   0.07445   0.00000  Uiso   1.00
C83    C     0.05627   0.03994   0.02631   0.00000  Uiso   1.00
H84    H     0.04013   0.07381   0.02266   0.00000  Uiso   1.00
H85    H     0.03889   0.01791   0.05042   0.00000  Uiso   1.00
H86    H     0.05739   0.02157   0.49375   0.00000  Uiso   1.00
H87    H     0.18029   0.24130   0.11127   0.00000  Uiso   1.00
H88    H     0.21294   0.11111   0.38383   0.00000  Uiso   1.00
H89    H     0.12479   0.22183   0.39169   0.00000  Uiso   1.00
H90    H     0.16210   0.09147   0.10992   0.00000  Uiso   1.00
O91    O     0.04060   0.08095   0.24782   0.00000  Uiso   1.00
C92    C     0.04191   0.06570   0.20307   0.00000  Uiso   1.00
H93    H     0.06688   0.08437   0.18484   0.00000  Uiso   1.00
H94    H     0.01273   0.07193   0.18566   0.00000  Uiso   1.00
C95    C     0.05003   0.01309   0.20210   0.00000  Uiso   1.00
H96    H     0.07616   0.00508   0.22320   0.00000  Uiso   1.00
H97    H     0.02350   0.32772   0.21690   0.00000  Uiso   1.00
C98    C     0.05862   0.32854   0.15501   0.00000  Uiso   1.00
H99    H     0.08663   0.01183   0.14103   0.00000  Uiso   1.00
H100   H     0.03281   0.00322   0.13311   0.00000  Uiso   1.00
H101   H     0.06315   0.28999   0.15564   0.00000  Uiso   1.00
O102   O     0.29510   0.24934   0.22920   0.00000  Uiso   1.00
C103   C     0.29892   0.24828   0.18217   0.00000  Uiso   1.00
H104   H     0.28026   0.21919   0.16828   0.00000  Uiso   1.00
H105   H     0.33122   0.24297   0.17123   0.00000  Uiso   1.00
C106   C     0.28502   0.29444   0.16168   0.00000  Uiso   1.00
H107   H     0.30351   0.32415   0.17365   0.00000  Uiso   1.00
H108   H     0.28919   0.29223   0.12504   0.00000  Uiso   1.00
C109   C     0.24080   0.30493   0.17266   0.00000  Uiso   1.00
H110   H     0.22147   0.27441   0.16429   0.00000  Uiso   1.00
H111   H     0.23076   0.00249   0.15343   0.00000  Uiso   1.00
H112   H     0.23750   0.31300   0.20854   0.00000  Uiso   1.00
O113   O     0.29190   0.08125   0.25709   0.00000  Uiso   1.00
C114   C     0.29040   0.06707   0.30204   0.00000  Uiso   1.00
H115   H     0.26435   0.08471   0.31924   0.00000  Uiso   1.00
H116   H     0.31887   0.07557   0.32016   0.00000  Uiso   1.00
C117   C     0.28433   0.01401   0.30375   0.00000  Uiso   1.00
H118   H     0.25901   0.00368   0.28213   0.00000  Uiso   1.00
H119   H     0.31199   0.32984   0.29036   0.00000  Uiso   1.00
C120   C     0.27537   0.33044   0.35098   0.00000  Uiso   1.00
H121   H     0.30061   0.00696   0.37312   0.00000  Uiso   1.00
H122   H     0.27196   0.29168   0.35103   0.00000  Uiso   1.00
H123   H     0.24668   0.01288   0.36408   0.00000  Uiso   1.00
O124   O     0.04030   0.25158   0.26036   0.00000  Uiso   1.00
C125   C     0.04222   0.25928   0.30675   0.00000  Uiso   1.00
H126   H     0.05915   0.23048   0.32315   0.00000  Uiso   1.00
H127   H     0.01101   0.26126   0.32178   0.00000  Uiso   1.00
C128   C     0.06454   0.30544   0.31564   0.00000  Uiso   1.00
H129   H     0.09569   0.30356   0.30097   0.00000  Uiso   1.00
H130   H     0.04842   0.00150   0.29973   0.00000  Uiso   1.00
C131   C     0.06737   0.31574   0.36523   0.00000  Uiso   1.00
H132   H     0.03655   0.31797   0.38076   0.00000  Uiso   1.00
H133   H     0.08329   0.01640   0.37019   0.00000  Uiso   1.00
H134   H     0.08473   0.28787   0.38196   0.00000  Uiso   1.00
C135   C     0.42066   0.16658   0.25102   0.00000  Uiso   1.00
C136   C     0.57935   0.16668   0.24920   0.00000  Uiso   1.00
C137   C     0.50075   0.16660   0.16481   0.00000  Uiso   1.00
C138   C     0.49994   0.16668   0.33493   0.00000  Uiso   1.00
C139   C     0.48710   0.02464   0.21398   0.00000  Uiso   1.00
C140   C     0.51301   0.30872   0.28601   0.00000  Uiso   1.00
C141   C     0.51262   0.02494   0.28617   0.00000  Uiso   1.00
C142   C     0.48631   0.30840   0.21432   0.00000  Uiso   1.00
C143   C     0.35429   0.12370   0.25017   0.00000  Uiso   1.00
C144   C     0.64614   0.20875   0.24489   0.00000  Uiso   1.00
C145   C     0.64527   0.12388   0.25393   0.00000  Uiso   1.00
C146   C     0.35434   0.20904   0.25354   0.00000  Uiso   1.00
C147   C     0.51663   0.20846   0.04751   0.00000  Uiso   1.00
C148   C     0.53377   0.13821   0.44914   0.00000  Uiso   1.00
C149   C     0.48027   0.19778   0.45402   0.00000  Uiso   1.00
C150   C     0.50188   0.12423   0.04645   0.00000  Uiso   1.00
C151   C     0.51148   0.20839   0.09355   0.00000  Uiso   1.00
C152   C     0.52855   0.13583   0.40346   0.00000  Uiso   1.00
C153   C     0.47859   0.19804   0.40791   0.00000  Uiso   1.00
C154   C     0.50031   0.12436   0.09267   0.00000  Uiso   1.00
C155   C     0.50377   0.16648   0.11633   0.00000  Uiso   1.00
C156   C     0.50200   0.16659   0.38286   0.00000  Uiso   1.00
C157   C     0.51006   0.16665   0.02361   0.00000  Uiso   1.00
C158   C     0.50850   0.16802   0.47496   0.00000  Uiso   1.00
C159   C     0.62399   0.16644   0.24919   0.00000  Uiso   1.00
C160   C     0.37601   0.16638   0.25213   0.00000  Uiso   1.00
Cu161  Cu    0.50000   0.21355   0.25000   0.00000  Uiso   1.00
Cu162  Cu    0.50000   0.11978   0.25000   0.00000  Uiso   1.00
N163   N     0.50000   0.28402   0.25000   0.00000  Uiso   1.00
N164   N     0.50000   0.04931   0.25000   0.00000  Uiso   1.00
O165   O     0.43988   0.20625   0.24999   0.00000  Uiso   1.00
O166   O     0.56012   0.12709   0.25000   0.00000  Uiso   1.00
O167   O     0.56012   0.20625   0.25000   0.00000  Uiso   1.00
O168   O     0.43988   0.12709   0.24999   0.00000  Uiso   1.00
O169   O     0.50000   0.20626   0.18573   0.00000  Uiso   1.00
O170   O     0.50000   0.12707   0.31427   0.00000  Uiso   1.00
O171   O     0.50000   0.20626   0.31427   0.00000  Uiso   1.00
O172   O     0.50000   0.12707   0.18573   0.00000  Uiso   1.00
H173   H     0.47661   0.04301   0.18510   0.00000  Uiso   1.00
H174   H     0.52393   0.29040   0.31475   0.00000  Uiso   1.00
H175   H     0.52316   0.04354   0.31507   0.00000  Uiso   1.00
H176   H     0.47517   0.28980   0.18568   0.00000  Uiso   1.00
O177   O     0.52411   0.25020   0.02538   0.00000  Uiso   1.00
C178   C     0.56478   0.26429   0.03205   0.00000  Uiso   1.00
H179   H     0.58629   0.23671   0.01999   0.00000  Uiso   1.00
H180   H     0.57016   0.27145   0.06781   0.00000  Uiso   1.00
C181   C     0.57302   0.30940   0.00601   0.00000  Uiso   1.00
H182   H     0.56680   0.30333   0.47030   0.00000  Uiso   1.00
H183   H     0.55228   0.00404   0.01855   0.00000  Uiso   1.00
C184   C     0.61701   0.32584   0.01061   0.00000  Uiso   1.00
H185   H     0.62436   0.33099   0.04613   0.00000  Uiso   1.00
H186   H     0.62138   0.02638   0.49313   0.00000  Uiso   1.00
H187   H     0.63816   0.29975   0.49552   0.00000  Uiso   1.00
O188   O     0.56255   0.10999   0.46861   0.00000  Uiso   1.00
C189   C     0.60091   0.13293   0.46770   0.00000  Uiso   1.00
H190   H     0.61667   0.12337   0.49868   0.00000  Uiso   1.00
H191   H     0.59878   0.17201   0.46770   0.00000  Uiso   1.00
C192   C     0.62689   0.11623   0.42783   0.00000  Uiso   1.00
H193   H     0.62765   0.07729   0.42711   0.00000  Uiso   1.00
H194   H     0.61352   0.12867   0.39650   0.00000  Uiso   1.00
C195   C     0.33701   0.13501   0.42985   0.00000  Uiso   1.00
H196   H     0.33695   0.17396   0.42919   0.00000  Uiso   1.00
H197   H     0.35494   0.12205   0.40071   0.00000  Uiso   1.00
H198   H     0.35180   0.12285   0.46054   0.00000  Uiso   1.00
O199   O     0.45670   0.22975   0.47770   0.00000  Uiso   1.00
C200   C     0.42131   0.20722   0.49447   0.00000  Uiso   1.00
H201   H     0.42930   0.18226   0.02110   0.00000  Uiso   1.00
H202   H     0.40504   0.18834   0.46763   0.00000  Uiso   1.00
C203   C     0.39278   0.24397   0.01486   0.00000  Uiso   1.00
H204   H     0.40949   0.26478   0.03997   0.00000  Uiso   1.00
H205   H     0.38253   0.26806   0.48844   0.00000  Uiso   1.00
C206   C     0.35563   0.22125   0.03735   0.00000  Uiso   1.00
H207   H     0.33714   0.20231   0.01253   0.00000  Uiso   1.00
H208   H     0.33648   0.24872   0.05340   0.00000  Uiso   1.00
H209   H     0.36522   0.19629   0.06336   0.00000  Uiso   1.00
O210   O     0.49874   0.08174   0.02429   0.00000  Uiso   1.00
C211   C     0.45874   0.07497   0.00882   0.00000  Uiso   1.00
H212   H     0.46101   0.05324   0.47820   0.00000  Uiso   1.00
H213   H     0.44358   0.10800   0.49894   0.00000  Uiso   1.00
C214   C     0.43252   0.04848   0.04318   0.00000  Uiso   1.00
H215   H     0.44697   0.01424   0.05049   0.00000  Uiso   1.00
H216   H     0.43025   0.06910   0.07445   0.00000  Uiso   1.00
C217   C     0.38960   0.03994   0.02631   0.00000  Uiso   1.00
H218   H     0.37346   0.07381   0.02266   0.00000  Uiso   1.00
H219   H     0.37222   0.01791   0.05042   0.00000  Uiso   1.00
H220   H     0.39072   0.02157   0.49375   0.00000  Uiso   1.00
H221   H     0.51363   0.24130   0.11127   0.00000  Uiso   1.00
H222   H     0.54627   0.11111   0.38383   0.00000  Uiso   1.00
H223   H     0.45812   0.22183   0.39169   0.00000  Uiso   1.00
H224   H     0.49544   0.09147   0.10992   0.00000  Uiso   1.00
O225   O     0.37393   0.08095   0.24782   0.00000  Uiso   1.00
C226   C     0.37524   0.06570   0.20307   0.00000  Uiso   1.00
H227   H     0.40021   0.08437   0.18484   0.00000  Uiso   1.00
H228   H     0.34606   0.07193   0.18566   0.00000  Uiso   1.00
C229   C     0.38336   0.01309   0.20210   0.00000  Uiso   1.00
H230   H     0.40949   0.00508   0.22320   0.00000  Uiso   1.00
H231   H     0.35683   0.32772   0.21690   0.00000  Uiso   1.00
C232   C     0.39195   0.32854   0.15501   0.00000  Uiso   1.00
H233   H     0.41996   0.01183   0.14103   0.00000  Uiso   1.00
H234   H     0.36614   0.00322   0.13311   0.00000  Uiso   1.00
H235   H     0.39648   0.28999   0.15564   0.00000  Uiso   1.00
O236   O     0.62844   0.24934   0.22920   0.00000  Uiso   1.00
C237   C     0.63225   0.24828   0.18217   0.00000  Uiso   1.00
H238   H     0.61359   0.21919   0.16828   0.00000  Uiso   1.00
H239   H     0.66455   0.24297   0.17123   0.00000  Uiso   1.00
C240   C     0.61835   0.29444   0.16168   0.00000  Uiso   1.00
H241   H     0.63684   0.32415   0.17365   0.00000  Uiso   1.00
H242   H     0.62252   0.29223   0.12504   0.00000  Uiso   1.00
C243   C     0.57413   0.30493   0.17266   0.00000  Uiso   1.00
H244   H     0.55481   0.27441   0.16429   0.00000  Uiso   1.00
H245   H     0.56409   0.00249   0.15343   0.00000  Uiso   1.00
H246   H     0.57083   0.31300   0.20854   0.00000  Uiso   1.00
O247   O     0.62523   0.08125   0.25709   0.00000  Uiso   1.00
C248   C     0.62373   0.06707   0.30204   0.00000  Uiso   1.00
H249   H     0.59769   0.08471   0.31924   0.00000  Uiso   1.00
H250   H     0.65220   0.07557   0.32016   0.00000  Uiso   1.00
C251   C     0.61767   0.01401   0.30375   0.00000  Uiso   1.00
H252   H     0.59235   0.00368   0.28213   0.00000  Uiso   1.00
H253   H     0.64533   0.32984   0.29036   0.00000  Uiso   1.00
C254   C     0.60870   0.33044   0.35098   0.00000  Uiso   1.00
H255   H     0.63395   0.00696   0.37312   0.00000  Uiso   1.00
H256   H     0.60529   0.29168   0.35103   0.00000  Uiso   1.00
H257   H     0.58002   0.01288   0.36408   0.00000  Uiso   1.00
O258   O     0.37363   0.25158   0.26036   0.00000  Uiso   1.00
C259   C     0.37556   0.25928   0.30675   0.00000  Uiso   1.00
H260   H     0.39249   0.23048   0.32315   0.00000  Uiso   1.00
H261   H     0.34435   0.26126   0.32178   0.00000  Uiso   1.00
C262   C     0.39787   0.30544   0.31564   0.00000  Uiso   1.00
H263   H     0.42903   0.30356   0.30097   0.00000  Uiso   1.00
H264   H     0.38175   0.00150   0.29973   0.00000  Uiso   1.00
C265   C     0.40071   0.31574   0.36523   0.00000  Uiso   1.00
H266   H     0.36988   0.31797   0.38076   0.00000  Uiso   1.00
H267   H     0.41662   0.01640   0.37019   0.00000  Uiso   1.00
H268   H     0.41806   0.28787   0.38196   0.00000  Uiso   1.00
C269   C     0.75399   0.16658   0.25102   0.00000  Uiso   1.00
C270   C     0.91268   0.16668   0.24920   0.00000  Uiso   1.00
C271   C     0.83408   0.16660   0.16481   0.00000  Uiso   1.00
C272   C     0.83328   0.16668   0.33493   0.00000  Uiso   1.00
C273   C     0.82044   0.02464   0.21398   0.00000  Uiso   1.00
C274   C     0.84634   0.30872   0.28601   0.00000  Uiso   1.00
C275   C     0.84595   0.02494   0.28617   0.00000  Uiso   1.00
C276   C     0.81964   0.30840   0.21432   0.00000  Uiso   1.00
C277   C     0.68763   0.12370   0.25017   0.00000  Uiso   1.00
C278   C     0.97947   0.20875   0.24489   0.00000  Uiso   1.00
C279   C     0.97860   0.12388   0.25393   0.00000  Uiso   1.00
C280   C     0.68767   0.20904   0.25354   0.00000  Uiso   1.00
C281   C     0.84996   0.20846   0.04751   0.00000  Uiso   1.00
C282   C     0.86710   0.13821   0.44914   0.00000  Uiso   1.00
C283   C     0.81360   0.19778   0.45402   0.00000  Uiso   1.00
C284   C     0.83521   0.12423   0.04645   0.00000  Uiso   1.00
C285   C     0.84481   0.20839   0.09355   0.00000  Uiso   1.00
C286   C     0.86188   0.13583   0.40346   0.00000  Uiso   1.00
C287   C     0.81192   0.19804   0.40791   0.00000  Uiso   1.00
C288   C     0.83364   0.12436   0.09267   0.00000  Uiso   1.00
C289   C     0.83711   0.16648   0.11633   0.00000  Uiso   1.00
C290   C     0.83534   0.16659   0.38286   0.00000  Uiso   1.00
C291   C     0.84340   0.16665   0.02361   0.00000  Uiso   1.00
C292   C     0.84184   0.16802   0.47496   0.00000  Uiso   1.00
C293   C     0.95732   0.16644   0.24919   0.00000  Uiso   1.00
C294   C     0.70934   0.16638   0.25213   0.00000  Uiso   1.00
Cu295  Cu    0.83333   0.21355   0.25000   0.00000  Uiso   1.00
Cu296  Cu    0.83333   0.11978   0.25000   0.00000  Uiso   1.00
N297   N     0.83333   0.28402   0.25000   0.00000  Uiso   1.00
N298   N     0.83333   0.04931   0.25000   0.00000  Uiso   1.00
O299   O     0.77321   0.20625   0.24999   0.00000  Uiso   1.00
O300   O     0.89345   0.12709   0.25000   0.00000  Uiso   1.00
O301   O     0.89345   0.20625   0.25000   0.00000  Uiso   1.00
O302   O     0.77321   0.12709   0.24999   0.00000  Uiso   1.00
O303   O     0.83333   0.20626   0.18573   0.00000  Uiso   1.00
O304   O     0.83334   0.12707   0.31427   0.00000  Uiso   1.00
O305   O     0.83334   0.20626   0.31427   0.00000  Uiso   1.00
O306   O     0.83333   0.12707   0.18573   0.00000  Uiso   1.00
H307   H     0.80994   0.04301   0.18510   0.00000  Uiso   1.00
H308   H     0.85726   0.29040   0.31475   0.00000  Uiso   1.00
H309   H     0.85649   0.04354   0.31507   0.00000  Uiso   1.00
H310   H     0.80850   0.28980   0.18568   0.00000  Uiso   1.00
O311   O     0.85744   0.25020   0.02538   0.00000  Uiso   1.00
C312   C     0.89812   0.26429   0.03205   0.00000  Uiso   1.00
H313   H     0.91962   0.23671   0.01999   0.00000  Uiso   1.00
H314   H     0.90349   0.27145   0.06781   0.00000  Uiso   1.00
C315   C     0.90636   0.30940   0.00601   0.00000  Uiso   1.00
H316   H     0.90013   0.30333   0.47030   0.00000  Uiso   1.00
H317   H     0.88561   0.00404   0.01855   0.00000  Uiso   1.00
C318   C     0.95034   0.32584   0.01061   0.00000  Uiso   1.00
H319   H     0.95769   0.33099   0.04613   0.00000  Uiso   1.00
H320   H     0.95471   0.02638   0.49313   0.00000  Uiso   1.00
H321   H     0.97150   0.29975   0.49552   0.00000  Uiso   1.00
O322   O     0.89588   0.10999   0.46861   0.00000  Uiso   1.00
C323   C     0.93425   0.13293   0.46770   0.00000  Uiso   1.00
H324   H     0.95000   0.12337   0.49868   0.00000  Uiso   1.00
H325   H     0.93212   0.17201   0.46770   0.00000  Uiso   1.00
C326   C     0.96023   0.11623   0.42783   0.00000  Uiso   1.00
H327   H     0.96098   0.07729   0.42711   0.00000  Uiso   1.00
H328   H     0.94685   0.12867   0.39650   0.00000  Uiso   1.00
C329   C     0.67034   0.13501   0.42985   0.00000  Uiso   1.00
H330   H     0.67029   0.17396   0.42919   0.00000  Uiso   1.00
H331   H     0.68827   0.12205   0.40071   0.00000  Uiso   1.00
H332   H     0.68513   0.12285   0.46054   0.00000  Uiso   1.00
O333   O     0.79003   0.22975   0.47770   0.00000  Uiso   1.00
C334   C     0.75464   0.20722   0.49447   0.00000  Uiso   1.00
H335   H     0.76264   0.18226   0.02110   0.00000  Uiso   1.00
H336   H     0.73837   0.18834   0.46763   0.00000  Uiso   1.00
C337   C     0.72612   0.24397   0.01486   0.00000  Uiso   1.00
H338   H     0.74282   0.26478   0.03997   0.00000  Uiso   1.00
H339   H     0.71586   0.26806   0.48844   0.00000  Uiso   1.00
C340   C     0.68896   0.22125   0.03735   0.00000  Uiso   1.00
H341   H     0.67047   0.20231   0.01253   0.00000  Uiso   1.00
H342   H     0.66981   0.24872   0.05340   0.00000  Uiso   1.00
H343   H     0.69855   0.19629   0.06336   0.00000  Uiso   1.00
O344   O     0.83208   0.08174   0.02429   0.00000  Uiso   1.00
C345   C     0.79207   0.07497   0.00882   0.00000  Uiso   1.00
H346   H     0.79434   0.05324   0.47820   0.00000  Uiso   1.00
H347   H     0.77691   0.10800   0.49894   0.00000  Uiso   1.00
C348   C     0.76585   0.04848   0.04318   0.00000  Uiso   1.00
H349   H     0.78031   0.01424   0.05049   0.00000  Uiso   1.00
H350   H     0.76358   0.06910   0.07445   0.00000  Uiso   1.00
C351   C     0.72294   0.03994   0.02631   0.00000  Uiso   1.00
H352   H     0.70680   0.07381   0.02266   0.00000  Uiso   1.00
H353   H     0.70556   0.01791   0.05042   0.00000  Uiso   1.00
H354   H     0.72405   0.02157   0.49375   0.00000  Uiso   1.00
H355   H     0.84696   0.24130   0.11127   0.00000  Uiso   1.00
H356   H     0.87961   0.11111   0.38383   0.00000  Uiso   1.00
H357   H     0.79146   0.22183   0.39169   0.00000  Uiso   1.00
H358   H     0.82877   0.09147   0.10992   0.00000  Uiso   1.00
O359   O     0.70727   0.08095   0.24782   0.00000  Uiso   1.00
C360   C     0.70858   0.06570   0.20307   0.00000  Uiso   1.00
H361   H     0.73354   0.08437   0.18484   0.00000  Uiso   1.00
H362   H     0.67940   0.07193   0.18566   0.00000  Uiso   1.00
C363   C     0.71670   0.01309   0.20210   0.00000  Uiso   1.00
H364   H     0.74282   0.00508   0.22320   0.00000  Uiso   1.00
H365   H     0.69017   0.32772   0.21690   0.00000  Uiso   1.00
C366   C     0.72529   0.32854   0.15501   0.00000  Uiso   1.00
H367   H     0.75330   0.01183   0.14103   0.00000  Uiso   1.00
H368   H     0.69947   0.00322   0.13311   0.00000  Uiso   1.00
H369   H     0.72981   0.28999   0.15564   0.00000  Uiso   1.00
O370   O     0.96177   0.24934   0.22920   0.00000  Uiso   1.00
C371   C     0.96559   0.24828   0.18217   0.00000  Uiso   1.00
H372   H     0.94692   0.21919   0.16828   0.00000  Uiso   1.00
H373   H     0.99789   0.24297   0.17123   0.00000  Uiso   1.00
C374   C     0.95169   0.29444   0.16168   0.00000  Uiso   1.00
H375   H     0.97017   0.32415   0.17365   0.00000  Uiso   1.00
H376   H     0.95586   0.29223   0.12504   0.00000  Uiso   1.00
C377   C     0.90747   0.30493   0.17266   0.00000  Uiso   1.00
H378   H     0.88814   0.27441   0.16429   0.00000  Uiso   1.00
H379   H     0.89742   0.00249   0.15343   0.00000  Uiso   1.00
H380   H     0.90417   0.31300   0.20854   0.00000  Uiso   1.00
O381   O     0.95857   0.08125   0.25709   0.00000  Uiso   1.00
C382   C     0.95706   0.06707   0.30204   0.00000  Uiso   1.00
H383   H     0.93102   0.08471   0.31924   0.00000  Uiso   1.00
H384   H     0.98553   0.07557   0.32016   0.00000  Uiso   1.00
C385   C     0.95100   0.01401   0.30375   0.00000  Uiso   1.00
H386   H     0.92568   0.00368   0.28213   0.00000  Uiso   1.00
H387   H     0.97866   0.32984   0.29036   0.00000  Uiso   1.00
C388   C     0.94204   0.33044   0.35098   0.00000  Uiso   1.00
H389   H     0.96728   0.00696   0.37312   0.00000  Uiso   1.00
H390   H     0.93863   0.29168   0.35103   0.00000  Uiso   1.00
H391   H     0.91335   0.01288   0.36408   0.00000  Uiso   1.00
O392   O     0.70696   0.25158   0.26036   0.00000  Uiso   1.00
C393   C     0.70889   0.25928   0.30675   0.00000  Uiso   1.00
H394   H     0.72582   0.23048   0.32315   0.00000  Uiso   1.00
H395   H     0.67768   0.26126   0.32178   0.00000  Uiso   1.00
C396   C     0.73121   0.30544   0.31564   0.00000  Uiso   1.00
H397   H     0.76236   0.30356   0.30097   0.00000  Uiso   1.00
H398   H     0.71508   0.00150   0.29973   0.00000  Uiso   1.00
C399   C     0.73404   0.31574   0.36523   0.00000  Uiso   1.00
H400   H     0.70322   0.31797   0.38076   0.00000  Uiso   1.00
H401   H     0.74995   0.01640   0.37019   0.00000  Uiso   1.00
H402   H     0.75140   0.28787   0.38196   0.00000  Uiso   1.00
C403   C     0.08733   0.49991   0.25102   0.00000  Uiso   1.00
C404   C     0.24602   0.50001   0.24920   0.00000  Uiso   1.00
C405   C     0.16741   0.49993   0.16481   0.00000  Uiso   1.00
C406   C     0.16661   0.50002   0.33493   0.00000  Uiso   1.00
C407   C     0.15377   0.35797   0.21398   0.00000  Uiso   1.00
C408   C     0.17967   0.64205   0.28601   0.00000  Uiso   1.00
C409   C     0.17929   0.35828   0.28617   0.00000  Uiso   1.00
C410   C     0.15298   0.64173   0.21432   0.00000  Uiso   1.00
C411   C     0.02096   0.45704   0.25017   0.00000  Uiso   1.00
C412   C     0.31280   0.54209   0.24489   0.00000  Uiso   1.00
C413   C     0.31194   0.45722   0.25393   0.00000  Uiso   1.00
C414   C     0.02101   0.54237   0.25354   0.00000  Uiso   1.00
C415   C     0.18329   0.54179   0.04751   0.00000  Uiso   1.00
C416   C     0.20044   0.47155   0.44914   0.00000  Uiso   1.00
C417   C     0.14694   0.53111   0.45402   0.00000  Uiso   1.00
C418   C     0.16855   0.45757   0.04645   0.00000  Uiso   1.00
C419   C     0.17814   0.54173   0.09355   0.00000  Uiso   1.00
C420   C     0.19522   0.46917   0.40346   0.00000  Uiso   1.00
C421   C     0.14525   0.53137   0.40791   0.00000  Uiso   1.00
C422   C     0.16697   0.45769   0.09267   0.00000  Uiso   1.00
C423   C     0.17044   0.49981   0.11633   0.00000  Uiso   1.00
C424   C     0.16867   0.49992   0.38286   0.00000  Uiso   1.00
C425   C     0.17673   0.49998   0.02361   0.00000  Uiso   1.00
C426   C     0.17517   0.50136   0.47496   0.00000  Uiso   1.00
C427   C     0.29065   0.49978   0.24919   0.00000  Uiso   1.00
C428   C     0.04268   0.49971   0.25213   0.00000  Uiso   1.00
Cu429  Cu    0.16667   0.54689   0.25000   0.00000  Uiso   1.00
Cu430  Cu    0.16667   0.45311   0.25000   0.00000  Uiso   1.00
N431   N     0.16667   0.61736   0.25000   0.00000  Uiso   1.00
N432   N     0.16667   0.38264   0.25000   0.00000  Uiso   1.00
O433   O     0.10655   0.53958   0.24999   0.00000  Uiso   1.00
O434   O     0.22679   0.46042   0.25000   0.00000  Uiso   1.00
O435   O     0.22679   0.53958   0.25000   0.00000  Uiso   1.00
O436   O     0.10655   0.46042   0.24999   0.00000  Uiso   1.00
O437   O     0.16666   0.53959   0.18573   0.00000  Uiso   1.00
O438   O     0.16667   0.46041   0.31427   0.00000  Uiso   1.00
O439   O     0.16667   0.53959   0.31427   0.00000  Uiso   1.00
O440   O     0.16666   0.46041   0.18573   0.00000  Uiso   1.00
H441   H     0.14328   0.37634   0.18510   0.00000  Uiso   1.00
H442   H     0.19059   0.62373   0.31475   0.00000  Uiso   1.00
H443   H     0.18982   0.37687   0.31507   0.00000  Uiso   1.00
H444   H     0.14184   0.62314   0.18568   0.00000  Uiso   1.00
O445   O     0.19078   0.58353   0.02538   0.00000  Uiso   1.00
C446   C     0.23145   0.59763   0.03205   0.00000  Uiso   1.00
H447   H     0.25296   0.57004   0.01999   0.00000  Uiso   1.00
H448   H     0.23682   0.60479   0.06781   0.00000  Uiso   1.00
C449   C     0.23969   0.64273   0.00601   0.00000  Uiso   1.00
H450   H     0.23347   0.63667   0.47030   0.00000  Uiso   1.00
H451   H     0.21894   0.33737   0.01855   0.00000  Uiso   1.00
C452   C     0.28367   0.65917   0.01061   0.00000  Uiso   1.00
H453   H     0.29102   0.66432   0.04613   0.00000  Uiso   1.00
H454   H     0.28805   0.35972   0.49313   0.00000  Uiso   1.00
H455   H     0.30483   0.63308   0.49552   0.00000  Uiso   1.00
O456   O     0.22921   0.44332   0.46861   0.00000  Uiso   1.00
C457   C     0.26758   0.46626   0.46770   0.00000  Uiso   1.00
H458   H     0.28333   0.45670   0.49868   0.00000  Uiso   1.00
H459   H     0.26545   0.50535   0.46770   0.00000  Uiso   1.00
C460   C     0.29356   0.44956   0.42783   0.00000  Uiso   1.00
H461   H     0.29432   0.41063   0.42711   0.00000  Uiso   1.00
H462   H     0.28018   0.46201   0.39650   0.00000  Uiso   1.00
C463   C     0.00367   0.46834   0.42985   0.00000  Uiso   1.00
H464   H     0.00362   0.50730   0.42919   0.00000  Uiso   1.00
H465   H     0.02160   0.45538   0.40071   0.00000  Uiso   1.00
H466   H     0.01846   0.45618   0.46054   0.00000  Uiso   1.00
O467   O     0.12336   0.56309   0.47770   0.00000  Uiso   1.00
C468   C     0.08797   0.54055   0.49447   0.00000  Uiso   1.00
H469   H     0.09597   0.51559   0.02110   0.00000  Uiso   1.00
H470   H     0.07170   0.52167   0.46763   0.00000  Uiso   1.00
C471   C     0.05945   0.57731   0.01486   0.00000  Uiso   1.00
H472   H     0.07615   0.59811   0.03997   0.00000  Uiso   1.00
H473   H     0.04919   0.60140   0.48844   0.00000  Uiso   1.00
C474   C     0.02229   0.55459   0.03735   0.00000  Uiso   1.00
H475   H     0.00381   0.53564   0.01253   0.00000  Uiso   1.00
H476   H     0.00314   0.58206   0.05340   0.00000  Uiso   1.00
H477   H     0.03188   0.52962   0.06336   0.00000  Uiso   1.00
O478   O     0.16541   0.41507   0.02429   0.00000  Uiso   1.00
C479   C     0.12540   0.40830   0.00882   0.00000  Uiso   1.00
H480   H     0.12768   0.38657   0.47820   0.00000  Uiso   1.00
H481   H     0.11024   0.44134   0.49894   0.00000  Uiso   1.00
C482   C     0.09919   0.38181   0.04318   0.00000  Uiso   1.00
H483   H     0.11364   0.34757   0.05049   0.00000  Uiso   1.00
H484   H     0.09692   0.40243   0.07445   0.00000  Uiso   1.00
C485   C     0.05627   0.37328   0.02631   0.00000  Uiso   1.00
H486   H     0.04013   0.40714   0.02266   0.00000  Uiso   1.00
H487   H     0.03889   0.35124   0.05042   0.00000  Uiso   1.00
H488   H     0.05739   0.35490   0.49375   0.00000  Uiso   1.00
H489   H     0.18029   0.57463   0.11127   0.00000  Uiso   1.00
H490   H     0.21294   0.44444   0.38383   0.00000  Uiso   1.00
H491   H     0.12479   0.55516   0.39169   0.00000  Uiso   1.00
H492   H     0.16210   0.42480   0.10992   0.00000  Uiso   1.00
O493   O     0.04060   0.41429   0.24782   0.00000  Uiso   1.00
C494   C     0.04191   0.39903   0.20307   0.00000  Uiso   1.00
H495   H     0.06688   0.41771   0.18484   0.00000  Uiso   1.00
H496   H     0.01273   0.40526   0.18566   0.00000  Uiso   1.00
C497   C     0.05003   0.34642   0.20210   0.00000  Uiso   1.00
H498   H     0.07616   0.33841   0.22320   0.00000  Uiso   1.00
H499   H     0.02350   0.66105   0.21690   0.00000  Uiso   1.00
C500   C     0.05862   0.66188   0.15501   0.00000  Uiso   1.00
H501   H     0.08663   0.34516   0.14103   0.00000  Uiso   1.00
H502   H     0.03281   0.33656   0.13311   0.00000  Uiso   1.00
H503   H     0.06315   0.62332   0.15564   0.00000  Uiso   1.00
O504   O     0.29510   0.58267   0.22920   0.00000  Uiso   1.00
C505   C     0.29892   0.58161   0.18217   0.00000  Uiso   1.00
H506   H     0.28026   0.55252   0.16828   0.00000  Uiso   1.00
H507   H     0.33122   0.57630   0.17123   0.00000  Uiso   1.00
C508   C     0.28502   0.62777   0.16168   0.00000  Uiso   1.00
H509   H     0.30351   0.65748   0.17365   0.00000  Uiso   1.00
H510   H     0.28919   0.62557   0.12504   0.00000  Uiso   1.00
C511   C     0.24080   0.63826   0.17266   0.00000  Uiso   1.00
H512   H     0.22147   0.60774   0.16429   0.00000  Uiso   1.00
H513   H     0.23076   0.33583   0.15343   0.00000  Uiso   1.00
H514   H     0.23750   0.64633   0.20854   0.00000  Uiso   1.00
O515   O     0.29190   0.41458   0.25709   0.00000  Uiso   1.00
C516   C     0.29040   0.40040   0.30204   0.00000  Uiso   1.00
H517   H     0.26435   0.41804   0.31924   0.00000  Uiso   1.00
H518   H     0.31887   0.40890   0.32016   0.00000  Uiso   1.00
C519   C     0.28433   0.34734   0.30375   0.00000  Uiso   1.00
H520   H     0.25901   0.33702   0.28213   0.00000  Uiso   1.00
H521   H     0.31199   0.66318   0.29036   0.00000  Uiso   1.00
C522   C     0.27537   0.66378   0.35098   0.00000  Uiso   1.00
H523   H     0.30061   0.34030   0.37312   0.00000  Uiso   1.00
H524   H     0.27196   0.62502   0.35103   0.00000  Uiso   1.00
H525   H     0.24668   0.34621   0.36408   0.00000  Uiso   1.00
O526   O     0.04030   0.58491   0.26036   0.00000  Uiso   1.00
C527   C     0.04222   0.59261   0.30675   0.00000  Uiso   1.00
H528   H     0.05915   0.56381   0.32315   0.00000  Uiso   1.00
H529   H     0.01101   0.59459   0.32178   0.00000  Uiso   1.00
C530   C     0.06454   0.63877   0.31564   0.00000  Uiso   1.00
H531   H     0.09569   0.63689   0.30097   0.00000  Uiso   1.00
H532   H     0.04842   0.33483   0.29973   0.00000  Uiso   1.00
C533   C     0.06737   0.64907   0.36523   0.00000  Uiso   1.00
H534   H     0.03655   0.65130   0.38076   0.00000  Uiso   1.00
H535   H     0.08329   0.34973   0.37019   0.00000  Uiso   1.00
H536   H     0.08473   0.62120   0.38196   0.00000  Uiso   1.00
C537   C     0.42066   0.49991   0.25102   0.00000  Uiso   1.00
C538   C     0.57935   0.50001   0.24920   0.00000  Uiso   1.00
C539   C     0.50075   0.49993   0.16481   0.00000  Uiso   1.00
C540   C     0.49994   0.50002   0.33493   0.00000  Uiso   1.00
C541   C     0.48710   0.35797   0.21398   0.00000  Uiso   1.00
C542   C     0.51301   0.64205   0.28601   0.00000  Uiso   1.00
C543   C     0.51262   0.35828   0.28617   0.00000  Uiso   1.00
C544   C     0.48631   0.64173   0.21432   0.00000  Uiso   1.00
C545   C     0.35429   0.45704   0.25017   0.00000  Uiso   1.00
C546   C     0.64614   0.54209   0.24489   0.00000  Uiso   1.00
C547   C     0.64527   0.45722   0.25393   0.00000  Uiso   1.00
C548   C     0.35434   0.54237   0.25354   0.00000  Uiso   1.00
C549   C     0.51663   0.54179   0.04751   0.00000  Uiso   1.00
C550   C     0.53377   0.47155   0.44914   0.00000  Uiso   1.00
C551   C     0.48027   0.53111   0.45402   0.00000  Uiso   1.00
C552   C     0.50188   0.45757   0.04645   0.00000  Uiso   1.00
C553   C     0.51148   0.54173   0.09355   0.00000  Uiso   1.00
C554   C     0.52855   0.46917   0.40346   0.00000  Uiso   1.00
C555   C     0.47859   0.53137   0.40791   0.00000  Uiso   1.00
C556   C     0.50031   0.45769   0.09267   0.00000  Uiso   1.00
C557   C     0.50377   0.49981   0.11633   0.00000  Uiso   1.00
C558   C     0.50200   0.49992   0.38286   0.00000  Uiso   1.00
C559   C     0.51006   0.49998   0.02361   0.00000  Uiso   1.00
C560   C     0.50850   0.50136   0.47496   0.00000  Uiso   1.00
C561   C     0.62399   0.49978   0.24919   0.00000  Uiso   1.00
C562   C     0.37601   0.49971   0.25213   0.00000  Uiso   1.00
Cu563  Cu    0.50000   0.54689   0.25000   0.00000  Uiso   1.00
Cu564  Cu    0.50000   0.45311   0.25000   0.00000  Uiso   1.00
N565   N     0.50000   0.61736   0.25000   0.00000  Uiso   1.00
N566   N     0.50000   0.38264   0.25000   0.00000  Uiso   1.00
O567   O     0.43988   0.53958   0.24999   0.00000  Uiso   1.00
O568   O     0.56012   0.46042   0.25000   0.00000  Uiso   1.00
O569   O     0.56012   0.53958   0.25000   0.00000  Uiso   1.00
O570   O     0.43988   0.46042   0.24999   0.00000  Uiso   1.00
O571   O     0.50000   0.53959   0.18573   0.00000  Uiso   1.00
O572   O     0.50000   0.46041   0.31427   0.00000  Uiso   1.00
O573   O     0.50000   0.53959   0.31427   0.00000  Uiso   1.00
O574   O     0.50000   0.46041   0.18573   0.00000  Uiso   1.00
H575   H     0.47661   0.37634   0.18510   0.00000  Uiso   1.00
H576   H     0.52393   0.62373   0.31475   0.00000  Uiso   1.00
H577   H     0.52316   0.37687   0.31507   0.00000  Uiso   1.00
H578   H     0.47517   0.62314   0.18568   0.00000  Uiso   1.00
O579   O     0.52411   0.58353   0.02538   0.00000  Uiso   1.00
C580   C     0.56478   0.59763   0.03205   0.00000  Uiso   1.00
H581   H     0.58629   0.57004   0.01999   0.00000  Uiso   1.00
H582   H     0.57016   0.60479   0.06781   0.00000  Uiso   1.00
C583   C     0.57302   0.64273   0.00601   0.00000  Uiso   1.00
H584   H     0.56680   0.63667   0.47030   0.00000  Uiso   1.00
H585   H     0.55228   0.33737   0.01855   0.00000  Uiso   1.00
C586   C     0.61701   0.65917   0.01061   0.00000  Uiso   1.00
H587   H     0.62436   0.66432   0.04613   0.00000  Uiso   1.00
H588   H     0.62138   0.35972   0.49313   0.00000  Uiso   1.00
H589   H     0.63816   0.63308   0.49552   0.00000  Uiso   1.00
O590   O     0.56255   0.44332   0.46861   0.00000  Uiso   1.00
C591   C     0.60091   0.46626   0.46770   0.00000  Uiso   1.00
H592   H     0.61667   0.45670   0.49868   0.00000  Uiso   1.00
H593   H     0.59878   0.50535   0.46770   0.00000  Uiso   1.00
C594   C     0.62689   0.44956   0.42783   0.00000  Uiso   1.00
H595   H     0.62765   0.41063   0.42711   0.00000  Uiso   1.00
H596   H     0.61352   0.46201   0.39650   0.00000  Uiso   1.00
C597   C     0.33701   0.46834   0.42985   0.00000  Uiso   1.00
H598   H     0.33695   0.50730   0.42919   0.00000  Uiso   1.00
H599   H     0.35494   0.45538   0.40071   0.00000  Uiso   1.00
H600   H     0.35180   0.45618   0.46054   0.00000  Uiso   1.00
O601   O     0.45670   0.56309   0.47770   0.00000  Uiso   1.00
C602   C     0.42131   0.54055   0.49447   0.00000  Uiso   1.00
H603   H     0.42930   0.51559   0.02110   0.00000  Uiso   1.00
H604   H     0.40504   0.52167   0.46763   0.00000  Uiso   1.00
C605   C     0.39278   0.57731   0.01486   0.00000  Uiso   1.00
H606   H     0.40949   0.59811   0.03997   0.00000  Uiso   1.00
H607   H     0.38253   0.60140   0.48844   0.00000  Uiso   1.00
C608   C     0.35563   0.55459   0.03735   0.00000  Uiso   1.00
H609   H     0.33714   0.53564   0.01253   0.00000  Uiso   1.00
H610   H     0.33648   0.58206   0.05340   0.00000  Uiso   1.00
H611   H     0.36522   0.52962   0.06336   0.00000  Uiso   1.00
O612   O     0.49874   0.41507   0.02429   0.00000  Uiso   1.00
C613   C     0.45874   0.40830   0.00882   0.00000  Uiso   1.00
H614   H     0.46101   0.38657   0.47820   0.00000  Uiso   1.00
H615   H     0.44358   0.44134   0.49894   0.00000  Uiso   1.00
C616   C     0.43252   0.38181   0.04318   0.00000  Uiso   1.00
H617   H     0.44697   0.34757   0.05049   0.00000  Uiso   1.00
H618   H     0.43025   0.40243   0.07445   0.00000  Uiso   1.00
C619   C     0.38960   0.37328   0.02631   0.00000  Uiso   1.00
H620   H     0.37346   0.40714   0.02266   0.00000  Uiso   1.00
H621   H     0.37222   0.35124   0.05042   0.00000  Uiso   1.00
H622   H     0.39072   0.35490   0.49375   0.00000  Uiso   1.00
H623   H     0.51363   0.57463   0.11127   0.00000  Uiso   1.00
H624   H     0.54627   0.44444   0.38383   0.00000  Uiso   1.00
H625   H     0.45812   0.55516   0.39169   0.00000  Uiso   1.00
H626   H     0.49544   0.42480   0.10992   0.00000  Uiso   1.00
O627   O     0.37393   0.41429   0.24782   0.00000  Uiso   1.00
C628   C     0.37524   0.39903   0.20307   0.00000  Uiso   1.00
H629   H     0.40021   0.41771   0.18484   0.00000  Uiso   1.00
H630   H     0.34606   0.40526   0.18566   0.00000  Uiso   1.00
C631   C     0.38336   0.34642   0.20210   0.00000  Uiso   1.00
H632   H     0.40949   0.33841   0.22320   0.00000  Uiso   1.00
H633   H     0.35683   0.66105   0.21690   0.00000  Uiso   1.00
C634   C     0.39195   0.66188   0.15501   0.00000  Uiso   1.00
H635   H     0.41996   0.34516   0.14103   0.00000  Uiso   1.00
H636   H     0.36614   0.33656   0.13311   0.00000  Uiso   1.00
H637   H     0.39648   0.62332   0.15564   0.00000  Uiso   1.00
O638   O     0.62844   0.58267   0.22920   0.00000  Uiso   1.00
C639   C     0.63225   0.58161   0.18217   0.00000  Uiso   1.00
H640   H     0.61359   0.55252   0.16828   0.00000  Uiso   1.00
H641   H     0.66455   0.57630   0.17123   0.00000  Uiso   1.00
C642   C     0.61835   0.62777   0.16168   0.00000  Uiso   1.00
H643   H     0.63684   0.65748   0.17365   0.00000  Uiso   1.00
H644   H     0.62252   0.62557   0.12504   0.00000  Uiso   1.00
C645   C     0.57413   0.63826   0.17266   0.00000  Uiso   1.00
H646   H     0.55481   0.60774   0.16429   0.00000  Uiso   1.00
H647   H     0.56409   0.33583   0.15343   0.00000  Uiso   1.00
H648   H     0.57083   0.64633   0.20854   0.00000  Uiso   1.00
O649   O     0.62523   0.41458   0.25709   0.00000  Uiso   1.00
C650   C     0.62373   0.40040   0.30204   0.00000  Uiso   1.00
H651   H     0.59769   0.41804   0.31924   0.00000  Uiso   1.00
H652   H     0.65220   0.40890   0.32016   0.00000  Uiso   1.00
C653   C     0.61767   0.34734   0.30375   0.00000  Uiso   1.00
H654   H     0.59235   0.33702   0.28213   0.00000  Uiso   1.00
H655   H     0.64533   0.66318   0.29036   0.00000  Uiso   1.00
C656   C     0.60870   0.66378   0.35098   0.00000  Uiso   1.00
H657   H     0.63395   0.34030   0.37312   0.00000  Uiso   1.00
H658   H     0.60529   0.62502   0.35103   0.00000  Uiso   1.00
H659   H     0.58002   0.34621   0.36408   0.00000  Uiso   1.00
O660   O     0.37363   0.58491   0.26036   0.00000  Uiso   1.00
C661   C     0.37556   0.59261   0.30675   0.00000  Uiso   1.00
H662   H     0.39249   0.56381   0.32315   0.00000  Uiso   1.00
H663   H     0.34435   0.59459   0.32178   0.00000  Uiso   1.00
C664   C     0.39787   0.63877   0.31564   0.00000  Uiso   1.00
H665   H     0.42903   0.63689   0.30097   0.00000  Uiso   1.00
H666   H     0.38175   0.33483   0.29973   0.00000  Uiso   1.00
C667   C     0.40071   0.64907   0.36523   0.00000  Uiso   1.00
H668   H     0.36988   0.65130   0.38076   0.00000  Uiso   1.00
H669   H     0.41662   0.34973   0.37019   0.00000  Uiso   1.00
H670   H     0.41806   0.62120   0.38196   0.00000  Uiso   1.00
C671   C     0.75399   0.49991   0.25102   0.00000  Uiso   1.00
C672   C     0.91268   0.50001   0.24920   0.00000  Uiso   1.00
C673   C     0.83408   0.49993   0.16481   0.00000  Uiso   1.00
C674   C     0.83328   0.50002   0.33493   0.00000  Uiso   1.00
C675   C     0.82044   0.35797   0.21398   0.00000  Uiso   1.00
C676   C     0.84634   0.64205   0.28601   0.00000  Uiso   1.00
C677   C     0.84595   0.35828   0.28617   0.00000  Uiso   1.00
C678   C     0.81964   0.64173   0.21432   0.00000  Uiso   1.00
C679   C     0.68763   0.45704   0.25017   0.00000  Uiso   1.00
C680   C     0.97947   0.54209   0.24489   0.00000  Uiso   1.00
C681   C     0.97860   0.45722   0.25393   0.00000  Uiso   1.00
C682   C     0.68767   0.54237   0.25354   0.00000  Uiso   1.00
C683   C     0.84996   0.54179   0.04751   0.00000  Uiso   1.00
C684   C     0.86710   0.47155   0.44914   0.00000  Uiso   1.00
C685   C     0.81360   0.53111   0.45402   0.00000  Uiso   1.00
C686   C     0.83521   0.45757   0.04645   0.00000  Uiso   1.00
C687   C     0.84481   0.54173   0.09355   0.00000  Uiso   1.00
C688   C     0.86188   0.46917   0.40346   0.00000  Uiso   1.00
C689   C     0.81192   0.53137   0.40791   0.00000  Uiso   1.00
C690   C     0.83364   0.45769   0.09267   0.00000  Uiso   1.00
C691   C     0.83711   0.49981   0.11633   0.00000  Uiso   1.00
C692   C     0.83534   0.49992   0.38286   0.00000  Uiso   1.00
C693   C     0.84340   0.49998   0.02361   0.00000  Uiso   1.00
C694   C     0.84184   0.50136   0.47496   0.00000  Uiso   1.00
C695   C     0.95732   0.49978   0.24919   0.00000  Uiso   1.00
C696   C     0.70934   0.49971   0.25213   0.00000  Uiso   1.00
Cu697  Cu    0.83333   0.54689   0.25000   0.00000  Uiso   1.00
Cu698  Cu    0.83333   0.45311   0.25000   0.00000  Uiso   1.00
N699   N     0.83333   0.61736   0.25000   0.00000  Uiso   1.00
N700   N     0.83333   0.38264   0.25000   0.00000  Uiso   1.00
O701   O     0.77321   0.53958   0.24999   0.00000  Uiso   1.00
O702   O     0.89345   0.46042   0.25000   0.00000  Uiso   1.00
O703   O     0.89345   0.53958   0.25000   0.00000  Uiso   1.00
O704   O     0.77321   0.46042   0.24999   0.00000  Uiso   1.00
O705   O     0.83333   0.53959   0.18573   0.00000  Uiso   1.00
O706   O     0.83334   0.46041   0.31427   0.00000  Uiso   1.00
O707   O     0.83334   0.53959   0.31427   0.00000  Uiso   1.00
O708   O     0.83333   0.46041   0.18573   0.00000  Uiso   1.00
H709   H     0.80994   0.37634   0.18510   0.00000  Uiso   1.00
H710   H     0.85726   0.62373   0.31475   0.00000  Uiso   1.00
H711   H     0.85649   0.37687   0.31507   0.00000  Uiso   1.00
H712   H     0.80850   0.62314   0.18568   0.00000  Uiso   1.00
O713   O     0.85744   0.58353   0.02538   0.00000  Uiso   1.00
C714   C     0.89812   0.59763   0.03205   0.00000  Uiso   1.00
H715   H     0.91962   0.57004   0.01999   0.00000  Uiso   1.00
H716   H     0.90349   0.60479   0.06781   0.00000  Uiso   1.00
C717   C     0.90636   0.64273   0.00601   0.00000  Uiso   1.00
H718   H     0.90013   0.63667   0.47030   0.00000  Uiso   1.00
H719   H     0.88561   0.33737   0.01855   0.00000  Uiso   1.00
C720   C     0.95034   0.65917   0.01061   0.00000  Uiso   1.00
H721   H     0.95769   0.66432   0.04613   0.00000  Uiso   1.00
H722   H     0.95471   0.35972   0.49313   0.00000  Uiso   1.00
H723   H     0.97150   0.63308   0.49552   0.00000  Uiso   1.00
O724   O     0.89588   0.44332   0.46861   0.00000  Uiso   1.00
C725   C     0.93425   0.46626   0.46770   0.00000  Uiso   1.00
H726   H     0.95000   0.45670   0.49868   0.00000  Uiso   1.00
H727   H     0.93212   0.50535   0.46770   0.00000  Uiso   1.00
C728   C     0.96023   0.44956   0.42783   0.00000  Uiso   1.00
H729   H     0.96098   0.41063   0.42711   0.00000  Uiso   1.00
H730   H     0.94685   0.46201   0.39650   0.00000  Uiso   1.00
C731   C     0.67034   0.46834   0.42985   0.00000  Uiso   1.00
H732   H     0.67029   0.50730   0.42919   0.00000  Uiso   1.00
H733   H     0.68827   0.45538   0.40071   0.00000  Uiso   1.00
H734   H     0.68513   0.45618   0.46054   0.00000  Uiso   1.00
O735   O     0.79003   0.56309   0.47770   0.00000  Uiso   1.00
C736   C     0.75464   0.54055   0.49447   0.00000  Uiso   1.00
H737   H     0.76264   0.51559   0.02110   0.00000  Uiso   1.00
H738   H     0.73837   0.52167   0.46763   0.00000  Uiso   1.00
C739   C     0.72612   0.57731   0.01486   0.00000  Uiso   1.00
H740   H     0.74282   0.59811   0.03997   0.00000  Uiso   1.00
H741   H     0.71586   0.60140   0.48844   0.00000  Uiso   1.00
C742   C     0.68896   0.55459   0.03735   0.00000  Uiso   1.00
H743   H     0.67047   0.53564   0.01253   0.00000  Uiso   1.00
H744   H     0.66981   0.58206   0.05340   0.00000  Uiso   1.00
H745   H     0.69855   0.52962   0.06336   0.00000  Uiso   1.00
O746   O     0.83208   0.41507   0.02429   0.00000  Uiso   1.00
C747   C     0.79207   0.40830   0.00882   0.00000  Uiso   1.00
H748   H     0.79434   0.38657   0.47820   0.00000  Uiso   1.00
H749   H     0.77691   0.44134   0.49894   0.00000  Uiso   1.00
C750   C     0.76585   0.38181   0.04318   0.00000  Uiso   1.00
H751   H     0.78031   0.34757   0.05049   0.00000  Uiso   1.00
H752   H     0.76358   0.40243   0.07445   0.00000  Uiso   1.00
C753   C     0.72294   0.37328   0.02631   0.00000  Uiso   1.00
H754   H     0.70680   0.40714   0.02266   0.00000  Uiso   1.00
H755   H     0.70556   0.35124   0.05042   0.00000  Uiso   1.00
H756   H     0.72405   0.35490   0.49375   0.00000  Uiso   1.00
H757   H     0.84696   0.57463   0.11127   0.00000  Uiso   1.00
H758   H     0.87961   0.44444   0.38383   0.00000  Uiso   1.00
H759   H     0.79146   0.55516   0.39169   0.00000  Uiso   1.00
H760   H     0.82877   0.42480   0.10992   0.00000  Uiso   1.00
O761   O     0.70727   0.41429   0.24782   0.00000  Uiso   1.00
C762   C     0.70858   0.39903   0.20307   0.00000  Uiso   1.00
H763   H     0.73354   0.41771   0.18484   0.00000  Uiso   1.00
H764   H     0.67940   0.40526   0.18566   0.00000  Uiso   1.00
C765   C     0.71670   0.34642   0.20210   0.00000  Uiso   1.00
H766   H     0.74282   0.33841   0.22320   0.00000  Uiso   1.00
H767   H     0.69017   0.66105   0.21690   0.00000  Uiso   1.00
C768   C     0.72529   0.66188   0.15501   0.00000  Uiso   1.00
H769   H     0.75330   0.34516   0.14103   0.00000  Uiso   1.00
H770   H     0.69947   0.33656   0.13311   0.00000  Uiso   1.00
H771   H     0.72981   0.62332   0.15564   0.00000  Uiso   1.00
O772   O     0.96177   0.58267   0.22920   0.00000  Uiso   1.00
C773   C     0.96559   0.58161   0.18217   0.00000  Uiso   1.00
H774   H     0.94692   0.55252   0.16828   0.00000  Uiso   1.00
H775   H     0.99789   0.57630   0.17123   0.00000  Uiso   1.00
C776   C     0.95169   0.62777   0.16168   0.00000  Uiso   1.00
H777   H     0.97017   0.65748   0.17365   0.00000  Uiso   1.00
H778   H     0.95586   0.62557   0.12504   0.00000  Uiso   1.00
C779   C     0.90747   0.63826   0.17266   0.00000  Uiso   1.00
H780   H     0.88814   0.60774   0.16429   0.00000  Uiso   1.00
H781   H     0.89742   0.33583   0.15343   0.00000  Uiso   1.00
H782   H     0.90417   0.64633   0.20854   0.00000  Uiso   1.00
O783   O     0.95857   0.41458   0.25709   0.00000  Uiso   1.00
C784   C     0.95706   0.40040   0.30204   0.00000  Uiso   1.00
H785   H     0.93102   0.41804   0.31924   0.00000  Uiso   1.00
H786   H     0.98553   0.40890   0.32016   0.00000  Uiso   1.00
C787   C     0.95100   0.34734   0.30375   0.00000  Uiso   1.00
H788   H     0.92568   0.33702   0.28213   0.00000  Uiso   1.00
H789   H     0.97866   0.66318   0.29036   0.00000  Uiso   1.00
C790   C     0.94204   0.66378   0.35098   0.00000  Uiso   1.00
H791   H     0.96728   0.34030   0.37312   0.00000  Uiso   1.00
H792   H     0.93863   0.62502   0.35103   0.00000  Uiso   1.00
H793   H     0.91335   0.34621   0.36408   0.00000  Uiso   1.00
O794   O     0.70696   0.58491   0.26036   0.00000  Uiso   1.00
C795   C     0.70889   0.59261   0.30675   0.00000  Uiso   1.00
H796   H     0.72582   0.56381   0.32315   0.00000  Uiso   1.00
H797   H     0.67768   0.59459   0.32178   0.00000  Uiso   1.00
C798   C     0.73121   0.63877   0.31564   0.00000  Uiso   1.00
H799   H     0.76236   0.63689   0.30097   0.00000  Uiso   1.00
H800   H     0.71508   0.33483   0.29973   0.00000  Uiso   1.00
C801   C     0.73404   0.64907   0.36523   0.00000  Uiso   1.00
H802   H     0.70322   0.65130   0.38076   0.00000  Uiso   1.00
H803   H     0.74995   0.34973   0.37019   0.00000  Uiso   1.00
H804   H     0.75140   0.62120   0.38196   0.00000  Uiso   1.00
C805   C     0.08733   0.83325   0.25102   0.00000  Uiso   1.00
C806   C     0.24602   0.83334   0.24920   0.00000  Uiso   1.00
C807   C     0.16741   0.83327   0.16481   0.00000  Uiso   1.00
C808   C     0.16661   0.83335   0.33493   0.00000  Uiso   1.00
C809   C     0.15377   0.69130   0.21398   0.00000  Uiso   1.00
C810   C     0.17967   0.97538   0.28601   0.00000  Uiso   1.00
C811   C     0.17929   0.69161   0.28617   0.00000  Uiso   1.00
C812   C     0.15298   0.97506   0.21432   0.00000  Uiso   1.00
C813   C     0.02096   0.79037   0.25017   0.00000  Uiso   1.00
C814   C     0.31280   0.87542   0.24489   0.00000  Uiso   1.00
C815   C     0.31194   0.79055   0.25393   0.00000  Uiso   1.00
C816   C     0.02101   0.87571   0.25354   0.00000  Uiso   1.00
C817   C     0.18329   0.87512   0.04751   0.00000  Uiso   1.00
C818   C     0.20044   0.80488   0.44914   0.00000  Uiso   1.00
C819   C     0.14694   0.86445   0.45402   0.00000  Uiso   1.00
C820   C     0.16855   0.79090   0.04645   0.00000  Uiso   1.00
C821   C     0.17814   0.87506   0.09355   0.00000  Uiso   1.00
C822   C     0.19522   0.80250   0.40346   0.00000  Uiso   1.00
C823   C     0.14525   0.86470   0.40791   0.00000  Uiso   1.00
C824   C     0.16697   0.79102   0.09267   0.00000  Uiso   1.00
C825   C     0.17044   0.83315   0.11633   0.00000  Uiso   1.00
C826   C     0.16867   0.83326   0.38286   0.00000  Uiso   1.00
C827   C     0.17673   0.83332   0.02361   0.00000  Uiso   1.00
C828   C     0.17517   0.83469   0.47496   0.00000  Uiso   1.00
C829   C     0.29065   0.83311   0.24919   0.00000  Uiso   1.00
C830   C     0.04268   0.83305   0.25213   0.00000  Uiso   1.00
Cu831  Cu    0.16667   0.88022   0.25000   0.00000  Uiso   1.00
Cu832  Cu    0.16667   0.78645   0.25000   0.00000  Uiso   1.00
N833   N     0.16667   0.95069   0.25000   0.00000  Uiso   1.00
N834   N     0.16667   0.71598   0.25000   0.00000  Uiso   1.00
O835   O     0.10655   0.87291   0.24999   0.00000  Uiso   1.00
O836   O     0.22679   0.79375   0.25000   0.00000  Uiso   1.00
O837   O     0.22679   0.87291   0.25000   0.00000  Uiso   1.00
O838   O     0.10655   0.79375   0.24999   0.00000  Uiso   1.00
O839   O     0.16666   0.87293   0.18573   0.00000  Uiso   1.00
O840   O     0.16667   0.79374   0.31427   0.00000  Uiso   1.00
O841   O     0.16667   0.87293   0.31427   0.00000  Uiso   1.00
O842   O     0.16666   0.79374   0.18573   0.00000  Uiso   1.00
H843   H     0.14328   0.70967   0.18510   0.00000  Uiso   1.00
H844   H     0.19059   0.95706   0.31475   0.00000  Uiso   1.00
H845   H     0.18982   0.71020   0.31507   0.00000  Uiso   1.00
H846   H     0.14184   0.95647   0.18568   0.00000  Uiso   1.00
O847   O     0.19078   0.91687   0.02538   0.00000  Uiso   1.00
C848   C     0.23145   0.93096   0.03205   0.00000  Uiso   1.00
H849   H     0.25296   0.90338   0.01999   0.00000  Uiso   1.00
H850   H     0.23682   0.93812   0.06781   0.00000  Uiso   1.00
C851   C     0.23969   0.97606   0.00601   0.00000  Uiso   1.00
H852   H     0.23347   0.97000   0.47030   0.00000  Uiso   1.00
H853   H     0.21894   0.67070   0.01855   0.00000  Uiso   1.00
C854   C     0.28367   0.99251   0.01061   0.00000  Uiso   1.00
H855   H     0.29102   0.99766   0.04613   0.00000  Uiso   1.00
H856   H     0.28805   0.69305   0.49313   0.00000  Uiso   1.00
H857   H     0.30483   0.96641   0.49552   0.00000  Uiso   1.00
O858   O     0.22921   0.77666   0.46861   0.00000  Uiso   1.00
C859   C     0.26758   0.79959   0.46770   0.00000  Uiso   1.00
H860   H     0.28333   0.79003   0.49868   0.00000  Uiso   1.00
H861   H     0.26545   0.83868   0.46770   0.00000  Uiso   1.00
C862   C     0.29356   0.78289   0.42783   0.00000  Uiso   1.00
H863   H     0.29432   0.74396   0.42711   0.00000  Uiso   1.00
H864   H     0.28018   0.79534   0.39650   0.00000  Uiso   1.00
C865   C     0.00367   0.80168   0.42985   0.00000  Uiso   1.00
H866   H     0.00362   0.84063   0.42919   0.00000  Uiso   1.00
H867   H     0.02160   0.78871   0.40071   0.00000  Uiso   1.00
H868   H     0.01846   0.78951   0.46054   0.00000  Uiso   1.00
O869   O     0.12336   0.89642   0.47770   0.00000  Uiso   1.00
C870   C     0.08797   0.87389   0.49447   0.00000  Uiso   1.00
H871   H     0.09597   0.84893   0.02110   0.00000  Uiso   1.00
H872   H     0.07170   0.85500   0.46763   0.00000  Uiso   1.00
C873   C     0.05945   0.91064   0.01486   0.00000  Uiso   1.00
H874   H     0.07615   0.93145   0.03997   0.00000  Uiso   1.00
H875   H     0.04919   0.93473   0.48844   0.00000  Uiso   1.00
C876   C     0.02229   0.88792   0.03735   0.00000  Uiso   1.00
H877   H     0.00381   0.86897   0.01253   0.00000  Uiso   1.00
H878   H     0.00314   0.91539   0.05340   0.00000  Uiso   1.00
H879   H     0.03188   0.86296   0.06336   0.00000  Uiso   1.00
O880   O     0.16541   0.74840   0.02429   0.00000  Uiso   1.00
C881   C     0.12540   0.74164   0.00882   0.00000  Uiso   1.00
H882   H     0.12768   0.71990   0.47820   0.00000  Uiso   1.00
H883   H     0.11024   0.77467   0.49894   0.00000  Uiso   1.00
C884   C     0.09919   0.71514   0.04318   0.00000  Uiso   1.00
H885   H     0.11364   0.68091   0.05049   0.00000  Uiso   1.00
H886   H     0.09692   0.73576   0.07445   0.00000  Uiso   1.00
C887   C     0.05627   0.70661   0.02631   0.00000  Uiso   1.00
H888   H     0.04013   0.74048   0.02266   0.00000  Uiso   1.00
H889   H     0.03889   0.68458   0.05042   0.00000  Uiso   1.00
H890   H     0.05739   0.68823   0.49375   0.00000  Uiso   1.00
H891   H     0.18029   0.90797   0.11127   0.00000  Uiso   1.00
H892   H     0.21294   0.77778   0.38383   0.00000  Uiso   1.00
H893   H     0.12479   0.88849   0.39169   0.00000  Uiso   1.00
H894   H     0.16210   0.75813   0.10992   0.00000  Uiso   1.00
O895   O     0.04060   0.74762   0.24782   0.00000  Uiso   1.00
C896   C     0.04191   0.73236   0.20307   0.00000  Uiso   1.00
H897   H     0.06688   0.75104   0.18484   0.00000  Uiso   1.00
H898   H     0.01273   0.73860   0.18566   0.00000  Uiso   1.00
C899   C     0.05003   0.67976   0.20210   0.00000  Uiso   1.00
H900   H     0.07616   0.67175   0.22320   0.00000  Uiso   1.00
H901   H     0.02350   0.99439   0.21690   0.00000  Uiso   1.00
C902   C     0.05862   0.99521   0.15501   0.00000  Uiso   1.00
H903   H     0.08663   0.67850   0.14103   0.00000  Uiso   1.00
H904   H     0.03281   0.66989   0.13311   0.00000  Uiso   1.00
H905   H     0.06315   0.95665   0.15564   0.00000  Uiso   1.00
O906   O     0.29510   0.91601   0.22920   0.00000  Uiso   1.00
C907   C     0.29892   0.91495   0.18217   0.00000  Uiso   1.00
H908   H     0.28026   0.88585   0.16828   0.00000  Uiso   1.00
H909   H     0.33122   0.90963   0.17123   0.00000  Uiso   1.00
C910   C     0.28502   0.96111   0.16168   0.00000  Uiso   1.00
H911   H     0.30351   0.99081   0.17365   0.00000  Uiso   1.00
H912   H     0.28919   0.95890   0.12504   0.00000  Uiso   1.00
C913   C     0.24080   0.97159   0.17266   0.00000  Uiso   1.00
H914   H     0.22147   0.94107   0.16429   0.00000  Uiso   1.00
H915   H     0.23076   0.66916   0.15343   0.00000  Uiso   1.00
H916   H     0.23750   0.97967   0.20854   0.00000  Uiso   1.00
O917   O     0.29190   0.74792   0.25709   0.00000  Uiso   1.00
C918   C     0.29040   0.73374   0.30204   0.00000  Uiso   1.00
H919   H     0.26435   0.75137   0.31924   0.00000  Uiso   1.00
H920   H     0.31887   0.74223   0.32016   0.00000  Uiso   1.00
C921   C     0.28433   0.68067   0.30375   0.00000  Uiso   1.00
H922   H     0.25901   0.67035   0.28213   0.00000  Uiso   1.00
H923   H     0.31199   0.99651   0.29036   0.00000  Uiso   1.00
C924   C     0.27537   0.99711   0.35098   0.00000  Uiso   1.00
H925   H     0.30061   0.67363   0.37312   0.00000  Uiso   1.00
H926   H     0.27196   0.95835   0.35103   0.00000  Uiso   1.00
H927   H     0.24668   0.67955   0.36408   0.00000  Uiso   1.00
O928   O     0.04030   0.91824   0.26036   0.00000  Uiso   1.00
C929   C     0.04222   0.92594   0.30675   0.00000  Uiso   1.00
H930   H     0.05915   0.89715   0.32315   0.00000  Uiso   1.00
H931   H     0.01101   0.92793   0.32178   0.00000  Uiso   1.00
C932   C     0.06454   0.97211   0.31564   0.00000  Uiso   1.00
H933   H     0.09569   0.97023   0.30097   0.00000  Uiso   1.00
H934   H     0.04842   0.66816   0.29973   0.00000  Uiso   1.00
C935   C     0.06737   0.98240   0.36523   0.00000  Uiso   1.00
H936   H     0.03655   0.98463   0.38076   0.00000  Uiso   1.00
H937   H     0.08329   0.68306   0.37019   0.00000  Uiso   1.00
H938   H     0.08473   0.95454   0.38196   0.00000  Uiso   1.00
C939   C     0.42066   0.83325   0.25102   0.00000  Uiso   1.00
C940   C     0.57935   0.83334   0.24920   0.00000  Uiso   1.00
C941   C     0.50075   0.83327   0.16481   0.00000  Uiso   1.00
C942   C     0.49994   0.83335   0.33493   0.00000  Uiso   1.00
C943   C     0.48710   0.69130   0.21398   0.00000  Uiso   1.00
C944   C     0.51301   0.97538   0.28601   0.00000  Uiso   1.00
C945   C     0.51262   0.69161   0.28617   0.00000  Uiso   1.00
C946   C     0.48631   0.97506   0.21432   0.00000  Uiso   1.00
C947   C     0.35429   0.79037   0.25017   0.00000  Uiso   1.00
C948   C     0.64614   0.87542   0.24489   0.00000  Uiso   1.00
C949   C     0.64527   0.79055   0.25393   0.00000  Uiso   1.00
C950   C     0.35434   0.87571   0.25354   0.00000  Uiso   1.00
C951   C     0.51663   0.87512   0.04751   0.00000  Uiso   1.00
C952   C     0.53377   0.80488   0.44914   0.00000  Uiso   1.00
C953   C     0.48027   0.86445   0.45402   0.00000  Uiso   1.00
C954   C     0.50188   0.79090   0.04645   0.00000  Uiso   1.00
C955   C     0.51148   0.87506   0.09355   0.00000  Uiso   1.00
C956   C     0.52855   0.80250   0.40346   0.00000  Uiso   1.00
C957   C     0.47859   0.86470   0.40791   0.00000  Uiso   1.00
C958   C     0.50031   0.79102   0.09267   0.00000  Uiso   1.00
C959   C     0.50377   0.83315   0.11633   0.00000  Uiso   1.00
C960   C     0.50200   0.83326   0.38286   0.00000  Uiso   1.00
C961   C     0.51006   0.83332   0.02361   0.00000  Uiso   1.00
C962   C     0.50850   0.83469   0.47496   0.00000  Uiso   1.00
C963   C     0.62399   0.83311   0.24919   0.00000  Uiso   1.00
C964   C     0.37601   0.83305   0.25213   0.00000  Uiso   1.00
Cu965  Cu    0.50000   0.88022   0.25000   0.00000  Uiso   1.00
Cu966  Cu    0.50000   0.78645   0.25000   0.00000  Uiso   1.00
N967   N     0.50000   0.95069   0.25000   0.00000  Uiso   1.00
N968   N     0.50000   0.71598   0.25000   0.00000  Uiso   1.00
O969   O     0.43988   0.87291   0.24999   0.00000  Uiso   1.00
O970   O     0.56012   0.79375   0.25000   0.00000  Uiso   1.00
O971   O     0.56012   0.87291   0.25000   0.00000  Uiso   1.00
O972   O     0.43988   0.79375   0.24999   0.00000  Uiso   1.00
O973   O     0.50000   0.87293   0.18573   0.00000  Uiso   1.00
O974   O     0.50000   0.79374   0.31427   0.00000  Uiso   1.00
O975   O     0.50000   0.87293   0.31427   0.00000  Uiso   1.00
O976   O     0.50000   0.79374   0.18573   0.00000  Uiso   1.00
H977   H     0.47661   0.70967   0.18510   0.00000  Uiso   1.00
H978   H     0.52393   0.95706   0.31475   0.00000  Uiso   1.00
H979   H     0.52316   0.71020   0.31507   0.00000  Uiso   1.00
H980   H     0.47517   0.95647   0.18568   0.00000  Uiso   1.00
O981   O     0.52411   0.91687   0.02538   0.00000  Uiso   1.00
C982   C     0.56478   0.93096   0.03205   0.00000  Uiso   1.00
H983   H     0.58629   0.90338   0.01999   0.00000  Uiso   1.00
H984   H     0.57016   0.93812   0.06781   0.00000  Uiso   1.00
C985   C     0.57302   0.97606   0.00601   0.00000  Uiso   1.00
H986   H     0.56680   0.97000   0.47030   0.00000  Uiso   1.00
H987   H     0.55228   0.67070   0.01855   0.00000  Uiso   1.00
C988   C     0.61701   0.99251   0.01061   0.00000  Uiso   1.00
H989   H     0.62436   0.99766   0.04613   0.00000  Uiso   1.00
H990   H     0.62138   0.69305   0.49313   0.00000  Uiso   1.00
H991   H     0.63816   0.96641   0.49552   0.00000  Uiso   1.00
O992   O     0.56255   0.77666   0.46861   0.00000  Uiso   1.00
C993   C     0.60091   0.79959   0.46770   0.00000  Uiso   1.00
H994   H     0.61667   0.79003   0.49868   0.00000  Uiso   1.00
H995   H     0.59878   0.83868   0.46770   0.00000  Uiso   1.00
C996   C     0.62689   0.78289   0.42783   0.00000  Uiso   1.00
H997   H     0.62765   0.74396   0.42711   0.00000  Uiso   1.00
H998   H     0.61352   0.79534   0.39650   0.00000  Uiso   1.00
C999   C     0.33701   0.80168   0.42985   0.00000  Uiso   1.00
H1000  H     0.33695   0.84063   0.42919   0.00000  Uiso   1.00
H1001  H     0.35494   0.78871   0.40071   0.00000  Uiso   1.00
H1002  H     0.35180   0.78951   0.46054   0.00000  Uiso   1.00
O1003  O     0.45670   0.89642   0.47770   0.00000  Uiso   1.00
C1004  C     0.42131   0.87389   0.49447   0.00000  Uiso   1.00
H1005  H     0.42930   0.84893   0.02110   0.00000  Uiso   1.00
H1006  H     0.40504   0.85500   0.46763   0.00000  Uiso   1.00
C1007  C     0.39278   0.91064   0.01486   0.00000  Uiso   1.00
H1008  H     0.40949   0.93145   0.03997   0.00000  Uiso   1.00
H1009  H     0.38253   0.93473   0.48844   0.00000  Uiso   1.00
C1010  C     0.35563   0.88792   0.03735   0.00000  Uiso   1.00
H1011  H     0.33714   0.86897   0.01253   0.00000  Uiso   1.00
H1012  H     0.33648   0.91539   0.05340   0.00000  Uiso   1.00
H1013  H     0.36522   0.86296   0.06336   0.00000  Uiso   1.00
O1014  O     0.49874   0.74840   0.02429   0.00000  Uiso   1.00
C1015  C     0.45874   0.74164   0.00882   0.00000  Uiso   1.00
H1016  H     0.46101   0.71990   0.47820   0.00000  Uiso   1.00
H1017  H     0.44358   0.77467   0.49894   0.00000  Uiso   1.00
C1018  C     0.43252   0.71514   0.04318   0.00000  Uiso   1.00
H1019  H     0.44697   0.68091   0.05049   0.00000  Uiso   1.00
H1020  H     0.43025   0.73576   0.07445   0.00000  Uiso   1.00
C1021  C     0.38960   0.70661   0.02631   0.00000  Uiso   1.00
H1022  H     0.37346   0.74048   0.02266   0.00000  Uiso   1.00
H1023  H     0.37222   0.68458   0.05042   0.00000  Uiso   1.00
H1024  H     0.39072   0.68823   0.49375   0.00000  Uiso   1.00
H1025  H     0.51363   0.90797   0.11127   0.00000  Uiso   1.00
H1026  H     0.54627   0.77778   0.38383   0.00000  Uiso   1.00
H1027  H     0.45812   0.88849   0.39169   0.00000  Uiso   1.00
H1028  H     0.49544   0.75813   0.10992   0.00000  Uiso   1.00
O1029  O     0.37393   0.74762   0.24782   0.00000  Uiso   1.00
C1030  C     0.37524   0.73236   0.20307   0.00000  Uiso   1.00
H1031  H     0.40021   0.75104   0.18484   0.00000  Uiso   1.00
H1032  H     0.34606   0.73860   0.18566   0.00000  Uiso   1.00
C1033  C     0.38336   0.67976   0.20210   0.00000  Uiso   1.00
H1034  H     0.40949   0.67175   0.22320   0.00000  Uiso   1.00
H1035  H     0.35683   0.99439   0.21690   0.00000  Uiso   1.00
C1036  C     0.39195   0.99521   0.15501   0.00000  Uiso   1.00
H1037  H     0.41996   0.67850   0.14103   0.00000  Uiso   1.00
H1038  H     0.36614   0.66989   0.13311   0.00000  Uiso   1.00
H1039  H     0.39648   0.95665   0.15564   0.00000  Uiso   1.00
O1040  O     0.62844   0.91601   0.22920   0.00000  Uiso   1.00
C1041  C     0.63225   0.91495   0.18217   0.00000  Uiso   1.00
H1042  H     0.61359   0.88585   0.16828   0.00000  Uiso   1.00
H1043  H     0.66455   0.90963   0.17123   0.00000  Uiso   1.00
C1044  C     0.61835   0.96111   0.16168   0.00000  Uiso   1.00
H1045  H     0.63684   0.99081   0.17365   0.00000  Uiso   1.00
H1046  H     0.62252   0.95890   0.12504   0.00000  Uiso   1.00
C1047  C     0.57413   0.97159   0.17266   0.00000  Uiso   1.00
H1048  H     0.55481   0.94107   0.16429   0.00000  Uiso   1.00
H1049  H     0.56409   0.66916   0.15343   0.00000  Uiso   1.00
H1050  H     0.57083   0.97967   0.20854   0.00000  Uiso   1.00
O1051  O     0.62523   0.74792   0.25709   0.00000  Uiso   1.00
C1052  C     0.62373   0.73374   0.30204   0.00000  Uiso   1.00
H1053  H     0.59769   0.75137   0.31924   0.00000  Uiso   1.00
H1054  H     0.65220   0.74223   0.32016   0.00000  Uiso   1.00
C1055  C     0.61767   0.68067   0.30375   0.00000  Uiso   1.00
H1056  H     0.59235   0.67035   0.28213   0.00000  Uiso   1.00
H1057  H     0.64533   0.99651   0.29036   0.00000  Uiso   1.00
C1058  C     0.60870   0.99711   0.35098   0.00000  Uiso   1.00
H1059  H     0.63395   0.67363   0.37312   0.00000  Uiso   1.00
H1060  H     0.60529   0.95835   0.35103   0.00000  Uiso   1.00
H1061  H     0.58002   0.67955   0.36408   0.00000  Uiso   1.00
O1062  O     0.37363   0.91824   0.26036   0.00000  Uiso   1.00
C1063  C     0.37556   0.92594   0.30675   0.00000  Uiso   1.00
H1064  H     0.39249   0.89715   0.32315   0.00000  Uiso   1.00
H1065  H     0.34435   0.92793   0.32178   0.00000  Uiso   1.00
C1066  C     0.39787   0.97211   0.31564   0.00000  Uiso   1.00
H1067  H     0.42903   0.97023   0.30097   0.00000  Uiso   1.00
H1068  H     0.38175   0.66816   0.29973   0.00000  Uiso   1.00
C1069  C     0.40071   0.98240   0.36523   0.00000  Uiso   1.00
H1070  H     0.36988   0.98463   0.38076   0.00000  Uiso   1.00
H1071  H     0.41662   0.68306   0.37019   0.00000  Uiso   1.00
H1072  H     0.41806   0.95454   0.38196   0.00000  Uiso   1.00
C1073  C     0.75399   0.83325   0.25102   0.00000  Uiso   1.00
C1074  C     0.91268   0.83334   0.24920   0.00000  Uiso   1.00
C1075  C     0.83408   0.83327   0.16481   0.00000  Uiso   1.00
C1076  C     0.83328   0.83335   0.33493   0.00000  Uiso   1.00
C1077  C     0.82044   0.69130   0.21398   0.00000  Uiso   1.00
C1078  C     0.84634   0.97538   0.28601   0.00000  Uiso   1.00
C1079  C     0.84595   0.69161   0.28617   0.00000  Uiso   1.00
C1080  C     0.81964   0.97506   0.21432   0.00000  Uiso   1.00
C1081  C     0.68763   0.79037   0.25017   0.00000  Uiso   1.00
C1082  C     0.97947   0.87542   0.24489   0.00000  Uiso   1.00
C1083  C     0.97860   0.79055   0.25393   0.00000  Uiso   1.00
C1084  C     0.68767   0.87571   0.25354   0.00000  Uiso   1.00
C1085  C     0.84996   0.87512   0.04751   0.00000  Uiso   1.00
C1086  C     0.86710   0.80488   0.44914   0.00000  Uiso   1.00
C1087  C     0.81360   0.86445   0.45402   0.00000  Uiso   1.00
C1088  C     0.83521   0.79090   0.04645   0.00000  Uiso   1.00
C1089  C     0.84481   0.87506   0.09355   0.00000  Uiso   1.00
C1090  C     0.86188   0.80250   0.40346   0.00000  Uiso   1.00
C1091  C     0.81192   0.86470   0.40791   0.00000  Uiso   1.00
C1092  C     0.83364   0.79102   0.09267   0.00000  Uiso   1.00
C1093  C     0.83711   0.83315   0.11633   0.00000  Uiso   1.00
C1094  C     0.83534   0.83326   0.38286   0.00000  Uiso   1.00
C1095  C     0.84340   0.83332   0.02361   0.00000  Uiso   1.00
C1096  C     0.84184   0.83469   0.47496   0.00000  Uiso   1.00
C1097  C     0.95732   0.83311   0.24919   0.00000  Uiso   1.00
C1098  C     0.70934   0.83305   0.25213   0.00000  Uiso   1.00
Cu1099 Cu    0.83333   0.88022   0.25000   0.00000  Uiso   1.00
Cu1100 Cu    0.83333   0.78645   0.25000   0.00000  Uiso   1.00
N1101  N     0.83333   0.95069   0.25000   0.00000  Uiso   1.00
N1102  N     0.83333   0.71598   0.25000   0.00000  Uiso   1.00
O1103  O     0.77321   0.87291   0.24999   0.00000  Uiso   1.00
O1104  O     0.89345   0.79375   0.25000   0.00000  Uiso   1.00
O1105  O     0.89345   0.87291   0.25000   0.00000  Uiso   1.00
O1106  O     0.77321   0.79375   0.24999   0.00000  Uiso   1.00
O1107  O     0.83333   0.87293   0.18573   0.00000  Uiso   1.00
O1108  O     0.83334   0.79374   0.31427   0.00000  Uiso   1.00
O1109  O     0.83334   0.87293   0.31427   0.00000  Uiso   1.00
O1110  O     0.83333   0.79374   0.18573   0.00000  Uiso   1.00
H1111  H     0.80994   0.70967   0.18510   0.00000  Uiso   1.00
H1112  H     0.85726   0.95706   0.31475   0.00000  Uiso   1.00
H1113  H     0.85649   0.71020   0.31507   0.00000  Uiso   1.00
H1114  H     0.80850   0.95647   0.18568   0.00000  Uiso   1.00
O1115  O     0.85744   0.91687   0.02538   0.00000  Uiso   1.00
C1116  C     0.89812   0.93096   0.03205   0.00000  Uiso   1.00
H1117  H     0.91962   0.90338   0.01999   0.00000  Uiso   1.00
H1118  H     0.90349   0.93812   0.06781   0.00000  Uiso   1.00
C1119  C     0.90636   0.97606   0.00601   0.00000  Uiso   1.00
H1120  H     0.90013   0.97000   0.47030   0.00000  Uiso   1.00
H1121  H     0.88561   0.67070   0.01855   0.00000  Uiso   1.00
C1122  C     0.95034   0.99251   0.01061   0.00000  Uiso   1.00
H1123  H     0.95769   0.99766   0.04613   0.00000  Uiso   1.00
H1124  H     0.95471   0.69305   0.49313   0.00000  Uiso   1.00
H1125  H     0.97150   0.96641   0.49552   0.00000  Uiso   1.00
O1126  O     0.89588   0.77666   0.46861   0.00000  Uiso   1.00
C1127  C     0.93425   0.79959   0.46770   0.00000  Uiso   1.00
H1128  H     0.95000   0.79003   0.49868   0.00000  Uiso   1.00
H1129  H     0.93212   0.83868   0.46770   0.00000  Uiso   1.00
C1130  C     0.96023   0.78289   0.42783   0.00000  Uiso   1.00
H1131  H     0.96098   0.74396   0.42711   0.00000  Uiso   1.00
H1132  H     0.94685   0.79534   0.39650   0.00000  Uiso   1.00
C1133  C     0.67034   0.80168   0.42985   0.00000  Uiso   1.00
H1134  H     0.67029   0.84063   0.42919   0.00000  Uiso   1.00
H1135  H     0.68827   0.78871   0.40071   0.00000  Uiso   1.00
H1136  H     0.68513   0.78951   0.46054   0.00000  Uiso   1.00
O1137  O     0.79003   0.89642   0.47770   0.00000  Uiso   1.00
C1138  C     0.75464   0.87389   0.49447   0.00000  Uiso   1.00
H1139  H     0.76264   0.84893   0.02110   0.00000  Uiso   1.00
H1140  H     0.73837   0.85500   0.46763   0.00000  Uiso   1.00
C1141  C     0.72612   0.91064   0.01486   0.00000  Uiso   1.00
H1142  H     0.74282   0.93145   0.03997   0.00000  Uiso   1.00
H1143  H     0.71586   0.93473   0.48844   0.00000  Uiso   1.00
C1144  C     0.68896   0.88792   0.03735   0.00000  Uiso   1.00
H1145  H     0.67047   0.86897   0.01253   0.00000  Uiso   1.00
H1146  H     0.66981   0.91539   0.05340   0.00000  Uiso   1.00
H1147  H     0.69855   0.86296   0.06336   0.00000  Uiso   1.00
O1148  O     0.83208   0.74840   0.02429   0.00000  Uiso   1.00
C1149  C     0.79207   0.74164   0.00882   0.00000  Uiso   1.00
H1150  H     0.79434   0.71990   0.47820   0.00000  Uiso   1.00
H1151  H     0.77691   0.77467   0.49894   0.00000  Uiso   1.00
C1152  C     0.76585   0.71514   0.04318   0.00000  Uiso   1.00
H1153  H     0.78031   0.68091   0.05049   0.00000  Uiso   1.00
H1154  H     0.76358   0.73576   0.07445   0.00000  Uiso   1.00
C1155  C     0.72294   0.70661   0.02631   0.00000  Uiso   1.00
H1156  H     0.70680   0.74048   0.02266   0.00000  Uiso   1.00
H1157  H     0.70556   0.68458   0.05042   0.00000  Uiso   1.00
H1158  H     0.72405   0.68823   0.49375   0.00000  Uiso   1.00
H1159  H     0.84696   0.90797   0.11127   0.00000  Uiso   1.00
H1160  H     0.87961   0.77778   0.38383   0.00000  Uiso   1.00
H1161  H     0.79146   0.88849   0.39169   0.00000  Uiso   1.00
H1162  H     0.82877   0.75813   0.10992   0.00000  Uiso   1.00
O1163  O     0.70727   0.74762   0.24782   0.00000  Uiso   1.00
C1164  C     0.70858   0.73236   0.20307   0.00000  Uiso   1.00
H1165  H     0.73354   0.75104   0.18484   0.00000  Uiso   1.00
H1166  H     0.67940   0.73860   0.18566   0.00000  Uiso   1.00
C1167  C     0.71670   0.67976   0.20210   0.00000  Uiso   1.00
H1168  H     0.74282   0.67175   0.22320   0.00000  Uiso   1.00
H1169  H     0.69017   0.99439   0.21690   0.00000  Uiso   1.00
C1170  C     0.72529   0.99521   0.15501   0.00000  Uiso   1.00
H1171  H     0.75330   0.67850   0.14103   0.00000  Uiso   1.00
H1172  H     0.69947   0.66989   0.13311   0.00000  Uiso   1.00
H1173  H     0.72981   0.95665   0.15564   0.00000  Uiso   1.00
O1174  O     0.96177   0.91601   0.22920   0.00000  Uiso   1.00
C1175  C     0.96559   0.91495   0.18217   0.00000  Uiso   1.00
H1176  H     0.94692   0.88585   0.16828   0.00000  Uiso   1.00
H1177  H     0.99789   0.90963   0.17123   0.00000  Uiso   1.00
C1178  C     0.95169   0.96111   0.16168   0.00000  Uiso   1.00
H1179  H     0.97017   0.99081   0.17365   0.00000  Uiso   1.00
H1180  H     0.95586   0.95890   0.12504   0.00000  Uiso   1.00
C1181  C     0.90747   0.97159   0.17266   0.00000  Uiso   1.00
H1182  H     0.88814   0.94107   0.16429   0.00000  Uiso   1.00
H1183  H     0.89742   0.66916   0.15343   0.00000  Uiso   1.00
H1184  H     0.90417   0.97967   0.20854   0.00000  Uiso   1.00
O1185  O     0.95857   0.74792   0.25709   0.00000  Uiso   1.00
C1186  C     0.95706   0.73374   0.30204   0.00000  Uiso   1.00
H1187  H     0.93102   0.75137   0.31924   0.00000  Uiso   1.00
H1188  H     0.98553   0.74223   0.32016   0.00000  Uiso   1.00
C1189  C     0.95100   0.68067   0.30375   0.00000  Uiso   1.00
H1190  H     0.92568   0.67035   0.28213   0.00000  Uiso   1.00
H1191  H     0.97866   0.99651   0.29036   0.00000  Uiso   1.00
C1192  C     0.94204   0.99711   0.35098   0.00000  Uiso   1.00
H1193  H     0.96728   0.67363   0.37312   0.00000  Uiso   1.00
H1194  H     0.93863   0.95835   0.35103   0.00000  Uiso   1.00
H1195  H     0.91335   0.67955   0.36408   0.00000  Uiso   1.00
O1196  O     0.70696   0.91824   0.26036   0.00000  Uiso   1.00
C1197  C     0.70889   0.92594   0.30675   0.00000  Uiso   1.00
H1198  H     0.72582   0.89715   0.32315   0.00000  Uiso   1.00
H1199  H     0.67768   0.92793   0.32178   0.00000  Uiso   1.00
C1200  C     0.73121   0.97211   0.31564   0.00000  Uiso   1.00
H1201  H     0.76236   0.97023   0.30097   0.00000  Uiso   1.00
H1202  H     0.71508   0.66816   0.29973   0.00000  Uiso   1.00
C1203  C     0.73404   0.98240   0.36523   0.00000  Uiso   1.00
H1204  H     0.70322   0.98463   0.38076   0.00000  Uiso   1.00
H1205  H     0.74995   0.68306   0.37019   0.00000  Uiso   1.00
H1206  H     0.75140   0.95454   0.38196   0.00000  Uiso   1.00
C1207  C     0.08733   0.16658   0.75102   0.00000  Uiso   1.00
C1208  C     0.24602   0.16668   0.74920   0.00000  Uiso   1.00
C1209  C     0.16741   0.16660   0.66481   0.00000  Uiso   1.00
C1210  C     0.16661   0.16668   0.83493   0.00000  Uiso   1.00
C1211  C     0.15377   0.02464   0.71398   0.00000  Uiso   1.00
C1212  C     0.17967   0.30872   0.78601   0.00000  Uiso   1.00
C1213  C     0.17929   0.02494   0.78617   0.00000  Uiso   1.00
C1214  C     0.15298   0.30840   0.71432   0.00000  Uiso   1.00
C1215  C     0.02096   0.12370   0.75017   0.00000  Uiso   1.00
C1216  C     0.31280   0.20875   0.74489   0.00000  Uiso   1.00
C1217  C     0.31194   0.12388   0.75393   0.00000  Uiso   1.00
C1218  C     0.02101   0.20904   0.75354   0.00000  Uiso   1.00
C1219  C     0.18329   0.20846   0.54751   0.00000  Uiso   1.00
C1220  C     0.20044   0.13821   0.94914   0.00000  Uiso   1.00
C1221  C     0.14694   0.19778   0.95402   0.00000  Uiso   1.00
C1222  C     0.16855   0.12423   0.54645   0.00000  Uiso   1.00
C1223  C     0.17814   0.20839   0.59355   0.00000  Uiso   1.00
C1224  C     0.19522   0.13583   0.90346   0.00000  Uiso   1.00
C1225  C     0.14525   0.19804   0.90791   0.00000  Uiso   1.00
C1226  C     0.16697   0.12436   0.59267   0.00000  Uiso   1.00
C1227  C     0.17044   0.16648   0.61633   0.00000  Uiso   1.00
C1228  C     0.16867   0.16659   0.88286   0.00000  Uiso   1.00
C1229  C     0.17673   0.16665   0.52361   0.00000  Uiso   1.00
C1230  C     0.17517   0.16802   0.97496   0.00000  Uiso   1.00
C1231  C     0.29065   0.16644   0.74919   0.00000  Uiso   1.00
C1232  C     0.04268   0.16638   0.75213   0.00000  Uiso   1.00
Cu1233 Cu    0.16667   0.21355   0.75000   0.00000  Uiso   1.00
Cu1234 Cu    0.16667   0.11978   0.75000   0.00000  Uiso   1.00
N1235  N     0.16667   0.28402   0.75000   0.00000  Uiso   1.00
N1236  N     0.16667   0.04931   0.75000   0.00000  Uiso   1.00
O1237  O     0.10655   0.20625   0.74999   0.00000  Uiso   1.00
O1238  O     0.22679   0.12709   0.75000   0.00000  Uiso   1.00
O1239  O     0.22679   0.20625   0.75000   0.00000  Uiso   1.00
O1240  O     0.10655   0.12709   0.74999   0.00000  Uiso   1.00
O1241  O     0.16666   0.20626   0.68573   0.00000  Uiso   1.00
O1242  O     0.16667   0.12707   0.81427   0.00000  Uiso   1.00
O1243  O     0.16667   0.20626   0.81427   0.00000  Uiso   1.00
O1244  O     0.16666   0.12707   0.68573   0.00000  Uiso   1.00
H1245  H     0.14328   0.04301   0.68510   0.00000  Uiso   1.00
H1246  H     0.19059   0.29040   0.81475   0.00000  Uiso   1.00
H1247  H     0.18982   0.04354   0.81507   0.00000  Uiso   1.00
H1248  H     0.14184   0.28980   0.68568   0.00000  Uiso   1.00
O1249  O     0.19078   0.25020   0.52538   0.00000  Uiso   1.00
C1250  C     0.23145   0.26429   0.53205   0.00000  Uiso   1.00
H1251  H     0.25296   0.23671   0.51999   0.00000  Uiso   1.00
H1252  H     0.23682   0.27145   0.56781   0.00000  Uiso   1.00
C1253  C     0.23969   0.30940   0.50601   0.00000  Uiso   1.00
H1254  H     0.23347   0.30333   0.97030   0.00000  Uiso   1.00
H1255  H     0.21894   0.00404   0.51855   0.00000  Uiso   1.00
C1256  C     0.28367   0.32584   0.51061   0.00000  Uiso   1.00
H1257  H     0.29102   0.33099   0.54613   0.00000  Uiso   1.00
H1258  H     0.28805   0.02638   0.99313   0.00000  Uiso   1.00
H1259  H     0.30483   0.29975   0.99552   0.00000  Uiso   1.00
O1260  O     0.22921   0.10999   0.96861   0.00000  Uiso   1.00
C1261  C     0.26758   0.13293   0.96770   0.00000  Uiso   1.00
H1262  H     0.28333   0.12337   0.99868   0.00000  Uiso   1.00
H1263  H     0.26545   0.17201   0.96770   0.00000  Uiso   1.00
C1264  C     0.29356   0.11623   0.92783   0.00000  Uiso   1.00
H1265  H     0.29432   0.07729   0.92711   0.00000  Uiso   1.00
H1266  H     0.28018   0.12867   0.89650   0.00000  Uiso   1.00
C1267  C     0.00367   0.13501   0.92985   0.00000  Uiso   1.00
H1268  H     0.00362   0.17396   0.92919   0.00000  Uiso   1.00
H1269  H     0.02160   0.12205   0.90071   0.00000  Uiso   1.00
H1270  H     0.01846   0.12285   0.96054   0.00000  Uiso   1.00
O1271  O     0.12336   0.22975   0.97770   0.00000  Uiso   1.00
C1272  C     0.08797   0.20722   0.99447   0.00000  Uiso   1.00
H1273  H     0.09597   0.18226   0.52110   0.00000  Uiso   1.00
H1274  H     0.07170   0.18834   0.96763   0.00000  Uiso   1.00
C1275  C     0.05945   0.24397   0.51486   0.00000  Uiso   1.00
H1276  H     0.07615   0.26478   0.53997   0.00000  Uiso   1.00
H1277  H     0.04919   0.26806   0.98844   0.00000  Uiso   1.00
C1278  C     0.02229   0.22125   0.53735   0.00000  Uiso   1.00
H1279  H     0.00381   0.20231   0.51253   0.00000  Uiso   1.00
H1280  H     0.00314   0.24872   0.55340   0.00000  Uiso   1.00
H1281  H     0.03188   0.19629   0.56336   0.00000  Uiso   1.00
O1282  O     0.16541   0.08174   0.52429   0.00000  Uiso   1.00
C1283  C     0.12540   0.07497   0.50882   0.00000  Uiso   1.00
H1284  H     0.12768   0.05324   0.97820   0.00000  Uiso   1.00
H1285  H     0.11024   0.10800   0.99894   0.00000  Uiso   1.00
C1286  C     0.09919   0.04848   0.54318   0.00000  Uiso   1.00
H1287  H     0.11364   0.01424   0.55049   0.00000  Uiso   1.00
H1288  H     0.09692   0.06910   0.57445   0.00000  Uiso   1.00
C1289  C     0.05627   0.03994   0.52631   0.00000  Uiso   1.00
H1290  H     0.04013   0.07381   0.52266   0.00000  Uiso   1.00
H1291  H     0.03889   0.01791   0.55042   0.00000  Uiso   1.00
H1292  H     0.05739   0.02157   0.99375   0.00000  Uiso   1.00
H1293  H     0.18029   0.24130   0.61127   0.00000  Uiso   1.00
H1294  H     0.21294   0.11111   0.88383   0.00000  Uiso   1.00
H1295  H     0.12479   0.22183   0.89169   0.00000  Uiso   1.00
H1296  H     0.16210   0.09147   0.60992   0.00000  Uiso   1.00
O1297  O     0.04060   0.08095   0.74782   0.00000  Uiso   1.00
C1298  C     0.04191   0.06570   0.70307   0.00000  Uiso   1.00
H1299  H     0.06688   0.08437   0.68484   0.00000  Uiso   1.00
H1300  H     0.01273   0.07193   0.68566   0.00000  Uiso   1.00
C1301  C     0.05003   0.01309   0.70210   0.00000  Uiso   1.00
H1302  H     0.07616   0.00508   0.72320   0.00000  Uiso   1.00
H1303  H     0.02350   0.32772   0.71690   0.00000  Uiso   1.00
C1304  C     0.05862   0.32854   0.65501   0.00000  Uiso   1.00
H1305  H     0.08663   0.01183   0.64103   0.00000  Uiso   1.00
H1306  H     0.03281   0.00322   0.63311   0.00000  Uiso   1.00
H1307  H     0.06315   0.28999   0.65564   0.00000  Uiso   1.00
O1308  O     0.29510   0.24934   0.72920   0.00000  Uiso   1.00
C1309  C     0.29892   0.24828   0.68217   0.00000  Uiso   1.00
H1310  H     0.28026   0.21919   0.66828   0.00000  Uiso   1.00
H1311  H     0.33122   0.24297   0.67123   0.00000  Uiso   1.00
C1312  C     0.28502   0.29444   0.66168   0.00000  Uiso   1.00
H1313  H     0.30351   0.32415   0.67365   0.00000  Uiso   1.00
H1314  H     0.28919   0.29223   0.62504   0.00000  Uiso   1.00
C1315  C     0.24080   0.30493   0.67266   0.00000  Uiso   1.00
H1316  H     0.22147   0.27441   0.66429   0.00000  Uiso   1.00
H1317  H     0.23076   0.00249   0.65343   0.00000  Uiso   1.00
H1318  H     0.23750   0.31300   0.70854   0.00000  Uiso   1.00
O1319  O     0.29190   0.08125   0.75709   0.00000  Uiso   1.00
C1320  C     0.29040   0.06707   0.80204   0.00000  Uiso   1.00
H1321  H     0.26435   0.08471   0.81924   0.00000  Uiso   1.00
H1322  H     0.31887   0.07557   0.82016   0.00000  Uiso   1.00
C1323  C     0.28433   0.01401   0.80375   0.00000  Uiso   1.00
H1324  H     0.25901   0.00368   0.78213   0.00000  Uiso   1.00
H1325  H     0.31199   0.32984   0.79036   0.00000  Uiso   1.00
C1326  C     0.27537   0.33044   0.85098   0.00000  Uiso   1.00
H1327  H     0.30061   0.00696   0.87312   0.00000  Uiso   1.00
H1328  H     0.27196   0.29168   0.85103   0.00000  Uiso   1.00
H1329  H     0.24668   0.01288   0.86408   0.00000  Uiso   1.00
O1330  O     0.04030   0.25158   0.76036   0.00000  Uiso   1.00
C1331  C     0.04222   0.25928   0.80675   0.00000  Uiso   1.00
H1332  H     0.05915   0.23048   0.82315   0.00000  Uiso   1.00
H1333  H     0.01101   0.26126   0.82178   0.00000  Uiso   1.00
C1334  C     0.06454   0.30544   0.81564   0.00000  Uiso   1.00
H1335  H     0.09569   0.30356   0.80097   0.00000  Uiso   1.00
H1336  H     0.04842   0.00150   0.79973   0.00000  Uiso   1.00
C1337  C     0.06737   0.31574   0.86523   0.00000  Uiso   1.00
H1338  H     0.03655   0.31797   0.88076   0.00000  Uiso   1.00
H1339  H     0.08329   0.01640   0.87019   0.00000  Uiso   1.00
H1340  H     0.08473   0.28787   0.88196   0.00000  Uiso   1.00
C1341  C     0.42066   0.16658   0.75102   0.00000  Uiso   1.00
C1342  C     0.57935   0.16668   0.74920   0.00000  Uiso   1.00
C1343  C     0.50075   0.16660   0.66481   0.00000  Uiso   1.00
C1344  C     0.49994   0.16668   0.83493   0.00000  Uiso   1.00
C1345  C     0.48710   0.02464   0.71398   0.00000  Uiso   1.00
C1346  C     0.51301   0.30872   0.78601   0.00000  Uiso   1.00
C1347  C     0.51262   0.02494   0.78617   0.00000  Uiso   1.00
C1348  C     0.48631   0.30840   0.71432   0.00000  Uiso   1.00
C1349  C     0.35429   0.12370   0.75017   0.00000  Uiso   1.00
C1350  C     0.64614   0.20875   0.74489   0.00000  Uiso   1.00
C1351  C     0.64527   0.12388   0.75393   0.00000  Uiso   1.00
C1352  C     0.35434   0.20904   0.75354   0.00000  Uiso   1.00
C1353  C     0.51663   0.20846   0.54751   0.00000  Uiso   1.00
C1354  C     0.53377   0.13821   0.94914   0.00000  Uiso   1.00
C1355  C     0.48027   0.19778   0.95402   0.00000  Uiso   1.00
C1356  C     0.50188   0.12423   0.54645   0.00000  Uiso   1.00
C1357  C     0.51148   0.20839   0.59355   0.00000  Uiso   1.00
C1358  C     0.52855   0.13583   0.90346   0.00000  Uiso   1.00
C1359  C     0.47859   0.19804   0.90791   0.00000  Uiso   1.00
C1360  C     0.50031   0.12436   0.59267   0.00000  Uiso   1.00
C1361  C     0.50377   0.16648   0.61633   0.00000  Uiso   1.00
C1362  C     0.50200   0.16659   0.88286   0.00000  Uiso   1.00
C1363  C     0.51006   0.16665   0.52361   0.00000  Uiso   1.00
C1364  C     0.50850   0.16802   0.97496   0.00000  Uiso   1.00
C1365  C     0.62399   0.16644   0.74919   0.00000  Uiso   1.00
C1366  C     0.37601   0.16638   0.75213   0.00000  Uiso   1.00
Cu1367 Cu    0.50000   0.21355   0.75000   0.00000  Uiso   1.00
Cu1368 Cu    0.50000   0.11978   0.75000   0.00000  Uiso   1.00
N1369  N     0.50000   0.28402   0.75000   0.00000  Uiso   1.00
N1370  N     0.50000   0.04931   0.75000   0.00000  Uiso   1.00
O1371  O     0.43988   0.20625   0.74999   0.00000  Uiso   1.00
O1372  O     0.56012   0.12709   0.75000   0.00000  Uiso   1.00
O1373  O     0.56012   0.20625   0.75000   0.00000  Uiso   1.00
O1374  O     0.43988   0.12709   0.74999   0.00000  Uiso   1.00
O1375  O     0.50000   0.20626   0.68573   0.00000  Uiso   1.00
O1376  O     0.50000   0.12707   0.81427   0.00000  Uiso   1.00
O1377  O     0.50000   0.20626   0.81427   0.00000  Uiso   1.00
O1378  O     0.50000   0.12707   0.68573   0.00000  Uiso   1.00
H1379  H     0.47661   0.04301   0.68510   0.00000  Uiso   1.00
H1380  H     0.52393   0.29040   0.81475   0.00000  Uiso   1.00
H1381  H     0.52316   0.04354   0.81507   0.00000  Uiso   1.00
H1382  H     0.47517   0.28980   0.68568   0.00000  Uiso   1.00
O1383  O     0.52411   0.25020   0.52538   0.00000  Uiso   1.00
C1384  C     0.56478   0.26429   0.53205   0.00000  Uiso   1.00
H1385  H     0.58629   0.23671   0.51999   0.00000  Uiso   1.00
H1386  H     0.57016   0.27145   0.56781   0.00000  Uiso   1.00
C1387  C     0.57302   0.30940   0.50601   0.00000  Uiso   1.00
H1388  H     0.56680   0.30333   0.97030   0.00000  Uiso   1.00
H1389  H     0.55228   0.00404   0.51855   0.00000  Uiso   1.00
C1390  C     0.61701   0.32584   0.51061   0.00000  Uiso   1.00
H1391  H     0.62436   0.33099   0.54613   0.00000  Uiso   1.00
H1392  H     0.62138   0.02638   0.99313   0.00000  Uiso   1.00
H1393  H     0.63816   0.29975   0.99552   0.00000  Uiso   1.00
O1394  O     0.56255   0.10999   0.96861   0.00000  Uiso   1.00
C1395  C     0.60091   0.13293   0.96770   0.00000  Uiso   1.00
H1396  H     0.61667   0.12337   0.99868   0.00000  Uiso   1.00
H1397  H     0.59878   0.17201   0.96770   0.00000  Uiso   1.00
C1398  C     0.62689   0.11623   0.92783   0.00000  Uiso   1.00
H1399  H     0.62765   0.07729   0.92711   0.00000  Uiso   1.00
H1400  H     0.61352   0.12867   0.89650   0.00000  Uiso   1.00
C1401  C     0.33701   0.13501   0.92985   0.00000  Uiso   1.00
H1402  H     0.33695   0.17396   0.92919   0.00000  Uiso   1.00
H1403  H     0.35494   0.12205   0.90071   0.00000  Uiso   1.00
H1404  H     0.35180   0.12285   0.96054   0.00000  Uiso   1.00
O1405  O     0.45670   0.22975   0.97770   0.00000  Uiso   1.00
C1406  C     0.42131   0.20722   0.99447   0.00000  Uiso   1.00
H1407  H     0.42930   0.18226   0.52110   0.00000  Uiso   1.00
H1408  H     0.40504   0.18834   0.96763   0.00000  Uiso   1.00
C1409  C     0.39278   0.24397   0.51486   0.00000  Uiso   1.00
H1410  H     0.40949   0.26478   0.53997   0.00000  Uiso   1.00
H1411  H     0.38253   0.26806   0.98844   0.00000  Uiso   1.00
C1412  C     0.35563   0.22125   0.53735   0.00000  Uiso   1.00
H1413  H     0.33714   0.20231   0.51253   0.00000  Uiso   1.00
H1414  H     0.33648   0.24872   0.55340   0.00000  Uiso   1.00
H1415  H     0.36522   0.19629   0.56336   0.00000  Uiso   1.00
O1416  O     0.49874   0.08174   0.52429   0.00000  Uiso   1.00
C1417  C     0.45874   0.07497   0.50882   0.00000  Uiso   1.00
H1418  H     0.46101   0.05324   0.97820   0.00000  Uiso   1.00
H1419  H     0.44358   0.10800   0.99894   0.00000  Uiso   1.00
C1420  C     0.43252   0.04848   0.54318   0.00000  Uiso   1.00
H1421  H     0.44697   0.01424   0.55049   0.00000  Uiso   1.00
H1422  H     0.43025   0.06910   0.57445   0.00000  Uiso   1.00
C1423  C     0.38960   0.03994   0.52631   0.00000  Uiso   1.00
H1424  H     0.37346   0.07381   0.52266   0.00000  Uiso   1.00
H1425  H     0.37222   0.01791   0.55042   0.00000  Uiso   1.00
H1426  H     0.39072   0.02157   0.99375   0.00000  Uiso   1.00
H1427  H     0.51363   0.24130   0.61127   0.00000  Uiso   1.00
H1428  H     0.54627   0.11111   0.88383   0.00000  Uiso   1.00
H1429  H     0.45812   0.22183   0.89169   0.00000  Uiso   1.00
H1430  H     0.49544   0.09147   0.60992   0.00000  Uiso   1.00
O1431  O     0.37393   0.08095   0.74782   0.00000  Uiso   1.00
C1432  C     0.37524   0.06570   0.70307   0.00000  Uiso   1.00
H1433  H     0.40021   0.08437   0.68484   0.00000  Uiso   1.00
H1434  H     0.34606   0.07193   0.68566   0.00000  Uiso   1.00
C1435  C     0.38336   0.01309   0.70210   0.00000  Uiso   1.00
H1436  H     0.40949   0.00508   0.72320   0.00000  Uiso   1.00
H1437  H     0.35683   0.32772   0.71690   0.00000  Uiso   1.00
C1438  C     0.39195   0.32854   0.65501   0.00000  Uiso   1.00
H1439  H     0.41996   0.01183   0.64103   0.00000  Uiso   1.00
H1440  H     0.36614   0.00322   0.63311   0.00000  Uiso   1.00
H1441  H     0.39648   0.28999   0.65564   0.00000  Uiso   1.00
O1442  O     0.62844   0.24934   0.72920   0.00000  Uiso   1.00
C1443  C     0.63225   0.24828   0.68217   0.00000  Uiso   1.00
H1444  H     0.61359   0.21919   0.66828   0.00000  Uiso   1.00
H1445  H     0.66455   0.24297   0.67123   0.00000  Uiso   1.00
C1446  C     0.61835   0.29444   0.66168   0.00000  Uiso   1.00
H1447  H     0.63684   0.32415   0.67365   0.00000  Uiso   1.00
H1448  H     0.62252   0.29223   0.62504   0.00000  Uiso   1.00
C1449  C     0.57413   0.30493   0.67266   0.00000  Uiso   1.00
H1450  H     0.55481   0.27441   0.66429   0.00000  Uiso   1.00
H1451  H     0.56409   0.00249   0.65343   0.00000  Uiso   1.00
H1452  H     0.57083   0.31300   0.70854   0.00000  Uiso   1.00
O1453  O     0.62523   0.08125   0.75709   0.00000  Uiso   1.00
C1454  C     0.62373   0.06707   0.80204   0.00000  Uiso   1.00
H1455  H     0.59769   0.08471   0.81924   0.00000  Uiso   1.00
H1456  H     0.65220   0.07557   0.82016   0.00000  Uiso   1.00
C1457  C     0.61767   0.01401   0.80375   0.00000  Uiso   1.00
H1458  H     0.59235   0.00368   0.78213   0.00000  Uiso   1.00
H1459  H     0.64533   0.32984   0.79036   0.00000  Uiso   1.00
C1460  C     0.60870   0.33044   0.85098   0.00000  Uiso   1.00
H1461  H     0.63395   0.00696   0.87312   0.00000  Uiso   1.00
H1462  H     0.60529   0.29168   0.85103   0.00000  Uiso   1.00
H1463  H     0.58002   0.01288   0.86408   0.00000  Uiso   1.00
O1464  O     0.37363   0.25158   0.76036   0.00000  Uiso   1.00
C1465  C     0.37556   0.25928   0.80675   0.00000  Uiso   1.00
H1466  H     0.39249   0.23048   0.82315   0.00000  Uiso   1.00
H1467  H     0.34435   0.26126   0.82178   0.00000  Uiso   1.00
C1468  C     0.39787   0.30544   0.81564   0.00000  Uiso   1.00
H1469  H     0.42903   0.30356   0.80097   0.00000  Uiso   1.00
H1470  H     0.38175   0.00150   0.79973   0.00000  Uiso   1.00
C1471  C     0.40071   0.31574   0.86523   0.00000  Uiso   1.00
H1472  H     0.36988   0.31797   0.88076   0.00000  Uiso   1.00
H1473  H     0.41662   0.01640   0.87019   0.00000  Uiso   1.00
H1474  H     0.41806   0.28787   0.88196   0.00000  Uiso   1.00
C1475  C     0.75399   0.16658   0.75102   0.00000  Uiso   1.00
C1476  C     0.91268   0.16668   0.74920   0.00000  Uiso   1.00
C1477  C     0.83408   0.16660   0.66481   0.00000  Uiso   1.00
C1478  C     0.83328   0.16668   0.83493   0.00000  Uiso   1.00
C1479  C     0.82044   0.02464   0.71398   0.00000  Uiso   1.00
C1480  C     0.84634   0.30872   0.78601   0.00000  Uiso   1.00
C1481  C     0.84595   0.02494   0.78617   0.00000  Uiso   1.00
C1482  C     0.81964   0.30840   0.71432   0.00000  Uiso   1.00
C1483  C     0.68763   0.12370   0.75017   0.00000  Uiso   1.00
C1484  C     0.97947   0.20875   0.74489   0.00000  Uiso   1.00
C1485  C     0.97860   0.12388   0.75393   0.00000  Uiso   1.00
C1486  C     0.68767   0.20904   0.75354   0.00000  Uiso   1.00
C1487  C     0.84996   0.20846   0.54751   0.00000  Uiso   1.00
C1488  C     0.86710   0.13821   0.94914   0.00000  Uiso   1.00
C1489  C     0.81360   0.19778   0.95402   0.00000  Uiso   1.00
C1490  C     0.83521   0.12423   0.54645   0.00000  Uiso   1.00
C1491  C     0.84481   0.20839   0.59355   0.00000  Uiso   1.00
C1492  C     0.86188   0.13583   0.90346   0.00000  Uiso   1.00
C1493  C     0.81192   0.19804   0.90791   0.00000  Uiso   1.00
C1494  C     0.83364   0.12436   0.59267   0.00000  Uiso   1.00
C1495  C     0.83711   0.16648   0.61633   0.00000  Uiso   1.00
C1496  C     0.83534   0.16659   0.88286   0.00000  Uiso   1.00
C1497  C     0.84340   0.16665   0.52361   0.00000  Uiso   1.00
C1498  C     0.84184   0.16802   0.97496   0.00000  Uiso   1.00
C1499  C     0.95732   0.16644   0.74919   0.00000  Uiso   1.00
C1500  C     0.70934   0.16638   0.75213   0.00000  Uiso   1.00
Cu1501 Cu    0.83333   0.21355   0.75000   0.00000  Uiso   1.00
Cu1502 Cu    0.83333   0.11978   0.75000   0.00000  Uiso   1.00
N1503  N     0.83333   0.28402   0.75000   0.00000  Uiso   1.00
N1504  N     0.83333   0.04931   0.75000   0.00000  Uiso   1.00
O1505  O     0.77321   0.20625   0.74999   0.00000  Uiso   1.00
O1506  O     0.89345   0.12709   0.75000   0.00000  Uiso   1.00
O1507  O     0.89345   0.20625   0.75000   0.00000  Uiso   1.00
O1508  O     0.77321   0.12709   0.74999   0.00000  Uiso   1.00
O1509  O     0.83333   0.20626   0.68573   0.00000  Uiso   1.00
O1510  O     0.83334   0.12707   0.81427   0.00000  Uiso   1.00
O1511  O     0.83334   0.20626   0.81427   0.00000  Uiso   1.00
O1512  O     0.83333   0.12707   0.68573   0.00000  Uiso   1.00
H1513  H     0.80994   0.04301   0.68510   0.00000  Uiso   1.00
H1514  H     0.85726   0.29040   0.81475   0.00000  Uiso   1.00
H1515  H     0.85649   0.04354   0.81507   0.00000  Uiso   1.00
H1516  H     0.80850   0.28980   0.68568   0.00000  Uiso   1.00
O1517  O     0.85744   0.25020   0.52538   0.00000  Uiso   1.00
C1518  C     0.89812   0.26429   0.53205   0.00000  Uiso   1.00
H1519  H     0.91962   0.23671   0.51999   0.00000  Uiso   1.00
H1520  H     0.90349   0.27145   0.56781   0.00000  Uiso   1.00
C1521  C     0.90636   0.30940   0.50601   0.00000  Uiso   1.00
H1522  H     0.90013   0.30333   0.97030   0.00000  Uiso   1.00
H1523  H     0.88561   0.00404   0.51855   0.00000  Uiso   1.00
C1524  C     0.95034   0.32584   0.51061   0.00000  Uiso   1.00
H1525  H     0.95769   0.33099   0.54613   0.00000  Uiso   1.00
H1526  H     0.95471   0.02638   0.99313   0.00000  Uiso   1.00
H1527  H     0.97150   0.29975   0.99552   0.00000  Uiso   1.00
O1528  O     0.89588   0.10999   0.96861   0.00000  Uiso   1.00
C1529  C     0.93425   0.13293   0.96770   0.00000  Uiso   1.00
H1530  H     0.95000   0.12337   0.99868   0.00000  Uiso   1.00
H1531  H     0.93212   0.17201   0.96770   0.00000  Uiso   1.00
C1532  C     0.96023   0.11623   0.92783   0.00000  Uiso   1.00
H1533  H     0.96098   0.07729   0.92711   0.00000  Uiso   1.00
H1534  H     0.94685   0.12867   0.89650   0.00000  Uiso   1.00
C1535  C     0.67034   0.13501   0.92985   0.00000  Uiso   1.00
H1536  H     0.67029   0.17396   0.92919   0.00000  Uiso   1.00
H1537  H     0.68827   0.12205   0.90071   0.00000  Uiso   1.00
H1538  H     0.68513   0.12285   0.96054   0.00000  Uiso   1.00
O1539  O     0.79003   0.22975   0.97770   0.00000  Uiso   1.00
C1540  C     0.75464   0.20722   0.99447   0.00000  Uiso   1.00
H1541  H     0.76264   0.18226   0.52110   0.00000  Uiso   1.00
H1542  H     0.73837   0.18834   0.96763   0.00000  Uiso   1.00
C1543  C     0.72612   0.24397   0.51486   0.00000  Uiso   1.00
H1544  H     0.74282   0.26478   0.53997   0.00000  Uiso   1.00
H1545  H     0.71586   0.26806   0.98844   0.00000  Uiso   1.00
C1546  C     0.68896   0.22125   0.53735   0.00000  Uiso   1.00
H1547  H     0.67047   0.20231   0.51253   0.00000  Uiso   1.00
H1548  H     0.66981   0.24872   0.55340   0.00000  Uiso   1.00
H1549  H     0.69855   0.19629   0.56336   0.00000  Uiso   1.00
O1550  O     0.83208   0.08174   0.52429   0.00000  Uiso   1.00
C1551  C     0.79207   0.07497   0.50882   0.00000  Uiso   1.00
H1552  H     0.79434   0.05324   0.97820   0.00000  Uiso   1.00
H1553  H     0.77691   0.10800   0.99894   0.00000  Uiso   1.00
C1554  C     0.76585   0.04848   0.54318   0.00000  Uiso   1.00
H1555  H     0.78031   0.01424   0.55049   0.00000  Uiso   1.00
H1556  H     0.76358   0.06910   0.57445   0.00000  Uiso   1.00
C1557  C     0.72294   0.03994   0.52631   0.00000  Uiso   1.00
H1558  H     0.70680   0.07381   0.52266   0.00000  Uiso   1.00
H1559  H     0.70556   0.01791   0.55042   0.00000  Uiso   1.00
H1560  H     0.72405   0.02157   0.99375   0.00000  Uiso   1.00
H1561  H     0.84696   0.24130   0.61127   0.00000  Uiso   1.00
H1562  H     0.87961   0.11111   0.88383   0.00000  Uiso   1.00
H1563  H     0.79146   0.22183   0.89169   0.00000  Uiso   1.00
H1564  H     0.82877   0.09147   0.60992   0.00000  Uiso   1.00
O1565  O     0.70727   0.08095   0.74782   0.00000  Uiso   1.00
C1566  C     0.70858   0.06570   0.70307   0.00000  Uiso   1.00
H1567  H     0.73354   0.08437   0.68484   0.00000  Uiso   1.00
H1568  H     0.67940   0.07193   0.68566   0.00000  Uiso   1.00
C1569  C     0.71670   0.01309   0.70210   0.00000  Uiso   1.00
H1570  H     0.74282   0.00508   0.72320   0.00000  Uiso   1.00
H1571  H     0.69017   0.32772   0.71690   0.00000  Uiso   1.00
C1572  C     0.72529   0.32854   0.65501   0.00000  Uiso   1.00
H1573  H     0.75330   0.01183   0.64103   0.00000  Uiso   1.00
H1574  H     0.69947   0.00322   0.63311   0.00000  Uiso   1.00
H1575  H     0.72981   0.28999   0.65564   0.00000  Uiso   1.00
O1576  O     0.96177   0.24934   0.72920   0.00000  Uiso   1.00
C1577  C     0.96559   0.24828   0.68217   0.00000  Uiso   1.00
H1578  H     0.94692   0.21919   0.66828   0.00000  Uiso   1.00
H1579  H     0.99789   0.24297   0.67123   0.00000  Uiso   1.00
C1580  C     0.95169   0.29444   0.66168   0.00000  Uiso   1.00
H1581  H     0.97017   0.32415   0.67365   0.00000  Uiso   1.00
H1582  H     0.95586   0.29223   0.62504   0.00000  Uiso   1.00
C1583  C     0.90747   0.30493   0.67266   0.00000  Uiso   1.00
H1584  H     0.88814   0.27441   0.66429   0.00000  Uiso   1.00
H1585  H     0.89742   0.00249   0.65343   0.00000  Uiso   1.00
H1586  H     0.90417   0.31300   0.70854   0.00000  Uiso   1.00
O1587  O     0.95857   0.08125   0.75709   0.00000  Uiso   1.00
C1588  C     0.95706   0.06707   0.80204   0.00000  Uiso   1.00
H1589  H     0.93102   0.08471   0.81924   0.00000  Uiso   1.00
H1590  H     0.98553   0.07557   0.82016   0.00000  Uiso   1.00
C1591  C     0.95100   0.01401   0.80375   0.00000  Uiso   1.00
H1592  H     0.92568   0.00368   0.78213   0.00000  Uiso   1.00
H1593  H     0.97866   0.32984   0.79036   0.00000  Uiso   1.00
C1594  C     0.94204   0.33044   0.85098   0.00000  Uiso   1.00
H1595  H     0.96728   0.00696   0.87312   0.00000  Uiso   1.00
H1596  H     0.93863   0.29168   0.85103   0.00000  Uiso   1.00
H1597  H     0.91335   0.01288   0.86408   0.00000  Uiso   1.00
O1598  O     0.70696   0.25158   0.76036   0.00000  Uiso   1.00
C1599  C     0.70889   0.25928   0.80675   0.00000  Uiso   1.00
H1600  H     0.72582   0.23048   0.82315   0.00000  Uiso   1.00
H1601  H     0.67768   0.26126   0.82178   0.00000  Uiso   1.00
C1602  C     0.73121   0.30544   0.81564   0.00000  Uiso   1.00
H1603  H     0.76236   0.30356   0.80097   0.00000  Uiso   1.00
H1604  H     0.71508   0.00150   0.79973   0.00000  Uiso   1.00
C1605  C     0.73404   0.31574   0.86523   0.00000  Uiso   1.00
H1606  H     0.70322   0.31797   0.88076   0.00000  Uiso   1.00
H1607  H     0.74995   0.01640   0.87019   0.00000  Uiso   1.00
H1608  H     0.75140   0.28787   0.88196   0.00000  Uiso   1.00
C1609  C     0.08733   0.49991   0.75102   0.00000  Uiso   1.00
C1610  C     0.24602   0.50001   0.74920   0.00000  Uiso   1.00
C1611  C     0.16741   0.49993   0.66481   0.00000  Uiso   1.00
C1612  C     0.16661   0.50002   0.83493   0.00000  Uiso   1.00
C1613  C     0.15377   0.35797   0.71398   0.00000  Uiso   1.00
C1614  C     0.17967   0.64205   0.78601   0.00000  Uiso   1.00
C1615  C     0.17929   0.35828   0.78617   0.00000  Uiso   1.00
C1616  C     0.15298   0.64173   0.71432   0.00000  Uiso   1.00
C1617  C     0.02096   0.45704   0.75017   0.00000  Uiso   1.00
C1618  C     0.31280   0.54209   0.74489   0.00000  Uiso   1.00
C1619  C     0.31194   0.45722   0.75393   0.00000  Uiso   1.00
C1620  C     0.02101   0.54237   0.75354   0.00000  Uiso   1.00
C1621  C     0.18329   0.54179   0.54751   0.00000  Uiso   1.00
C1622  C     0.20044   0.47155   0.94914   0.00000  Uiso   1.00
C1623  C     0.14694   0.53111   0.95402   0.00000  Uiso   1.00
C1624  C     0.16855   0.45757   0.54645   0.00000  Uiso   1.00
C1625  C     0.17814   0.54173   0.59355   0.00000  Uiso   1.00
C1626  C     0.19522   0.46917   0.90346   0.00000  Uiso   1.00
C1627  C     0.14525   0.53137   0.90791   0.00000  Uiso   1.00
C1628  C     0.16697   0.45769   0.59267   0.00000  Uiso   1.00
C1629  C     0.17044   0.49981   0.61633   0.00000  Uiso   1.00
C1630  C     0.16867   0.49992   0.88286   0.00000  Uiso   1.00
C1631  C     0.17673   0.49998   0.52361   0.00000  Uiso   1.00
C1632  C     0.17517   0.50136   0.97496   0.00000  Uiso   1.00
C1633  C     0.29065   0.49978   0.74919   0.00000  Uiso   1.00
C1634  C     0.04268   0.49971   0.75213   0.00000  Uiso   1.00
Cu1635 Cu    0.16667   0.54689   0.75000   0.00000  Uiso   1.00
Cu1636 Cu    0.16667   0.45311   0.75000   0.00000  Uiso   1.00
N1637  N     0.16667   0.61736   0.75000   0.00000  Uiso   1.00
N1638  N     0.16667   0.38264   0.75000   0.00000  Uiso   1.00
O1639  O     0.10655   0.53958   0.74999   0.00000  Uiso   1.00
O1640  O     0.22679   0.46042   0.75000   0.00000  Uiso   1.00
O1641  O     0.22679   0.53958   0.75000   0.00000  Uiso   1.00
O1642  O     0.10655   0.46042   0.74999   0.00000  Uiso   1.00
O1643  O     0.16666   0.53959   0.68573   0.00000  Uiso   1.00
O1644  O     0.16667   0.46041   0.81427   0.00000  Uiso   1.00
O1645  O     0.16667   0.53959   0.81427   0.00000  Uiso   1.00
O1646  O     0.16666   0.46041   0.68573   0.00000  Uiso   1.00
H1647  H     0.14328   0.37634   0.68510   0.00000  Uiso   1.00
H1648  H     0.19059   0.62373   0.81475   0.00000  Uiso   1.00
H1649  H     0.18982   0.37687   0.81507   0.00000  Uiso   1.00
H1650  H     0.14184   0.62314   0.68568   0.00000  Uiso   1.00
O1651  O     0.19078   0.58353   0.52538   0.00000  Uiso   1.00
C1652  C     0.23145   0.59763   0.53205   0.00000  Uiso   1.00
H1653  H     0.25296   0.57004   0.51999   0.00000  Uiso   1.00
H1654  H     0.23682   0.60479   0.56781   0.00000  Uiso   1.00
C1655  C     0.23969   0.64273   0.50601   0.00000  Uiso   1.00
H1656  H     0.23347   0.63667   0.97030   0.00000  Uiso   1.00
H1657  H     0.21894   0.33737   0.51855   0.00000  Uiso   1.00
C1658  C     0.28367   0.65917   0.51061   0.00000  Uiso   1.00
H1659  H     0.29102   0.66432   0.54613   0.00000  Uiso   1.00
H1660  H     0.28805   0.35972   0.99313   0.00000  Uiso   1.00
H1661  H     0.30483   0.63308   0.99552   0.00000  Uiso   1.00
O1662  O     0.22921   0.44332   0.96861   0.00000  Uiso   1.00
C1663  C     0.26758   0.46626   0.96770   0.00000  Uiso   1.00
H1664  H     0.28333   0.45670   0.99868   0.00000  Uiso   1.00
H1665  H     0.26545   0.50535   0.96770   0.00000  Uiso   1.00
C1666  C     0.29356   0.44956   0.92783   0.00000  Uiso   1.00
H1667  H     0.29432   0.41063   0.92711   0.00000  Uiso   1.00
H1668  H     0.28018   0.46201   0.89650   0.00000  Uiso   1.00
C1669  C     0.00367   0.46834   0.92985   0.00000  Uiso   1.00
H1670  H     0.00362   0.50730   0.92919   0.00000  Uiso   1.00
H1671  H     0.02160   0.45538   0.90071   0.00000  Uiso   1.00
H1672  H     0.01846   0.45618   0.96054   0.00000  Uiso   1.00
O1673  O     0.12336   0.56309   0.97770   0.00000  Uiso   1.00
C1674  C     0.08797   0.54055   0.99447   0.00000  Uiso   1.00
H1675  H     0.09597   0.51559   0.52110   0.00000  Uiso   1.00
H1676  H     0.07170   0.52167   0.96763   0.00000  Uiso   1.00
C1677  C     0.05945   0.57731   0.51486   0.00000  Uiso   1.00
H1678  H     0.07615   0.59811   0.53997   0.00000  Uiso   1.00
H1679  H     0.04919   0.60140   0.98844   0.00000  Uiso   1.00
C1680  C     0.02229   0.55459   0.53735   0.00000  Uiso   1.00
H1681  H     0.00381   0.53564   0.51253   0.00000  Uiso   1.00
H1682  H     0.00314   0.58206   0.55340   0.00000  Uiso   1.00
H1683  H     0.03188   0.52962   0.56336   0.00000  Uiso   1.00
O1684  O     0.16541   0.41507   0.52429   0.00000  Uiso   1.00
C1685  C     0.12540   0.40830   0.50882   0.00000  Uiso   1.00
H1686  H     0.12768   0.38657   0.97820   0.00000  Uiso   1.00
H1687  H     0.11024   0.44134   0.99894   0.00000  Uiso   1.00
C1688  C     0.09919   0.38181   0.54318   0.00000  Uiso   1.00
H1689  H     0.11364   0.34757   0.55049   0.00000  Uiso   1.00
H1690  H     0.09692   0.40243   0.57445   0.00000  Uiso   1.00
C1691  C     0.05627   0.37328   0.52631   0.00000  Uiso   1.00
H1692  H     0.04013   0.40714   0.52266   0.00000  Uiso   1.00
H1693  H     0.03889   0.35124   0.55042   0.00000  Uiso   1.00
H1694  H     0.05739   0.35490   0.99375   0.00000  Uiso   1.00
H1695  H     0.18029   0.57463   0.61127   0.00000  Uiso   1.00
H1696  H     0.21294   0.44444   0.88383   0.00000  Uiso   1.00
H1697  H     0.12479   0.55516   0.89169   0.00000  Uiso   1.00
H1698  H     0.16210   0.42480   0.60992   0.00000  Uiso   1.00
O1699  O     0.04060   0.41429   0.74782   0.00000  Uiso   1.00
C1700  C     0.04191   0.39903   0.70307   0.00000  Uiso   1.00
H1701  H     0.06688   0.41771   0.68484   0.00000  Uiso   1.00
H1702  H     0.01273   0.40526   0.68566   0.00000  Uiso   1.00
C1703  C     0.05003   0.34642   0.70210   0.00000  Uiso   1.00
H1704  H     0.07616   0.33841   0.72320   0.00000  Uiso   1.00
H1705  H     0.02350   0.66105   0.71690   0.00000  Uiso   1.00
C1706  C     0.05862   0.66188   0.65501   0.00000  Uiso   1.00
H1707  H     0.08663   0.34516   0.64103   0.00000  Uiso   1.00
H1708  H     0.03281   0.33656   0.63311   0.00000  Uiso   1.00
H1709  H     0.06315   0.62332   0.65564   0.00000  Uiso   1.00
O1710  O     0.29510   0.58267   0.72920   0.00000  Uiso   1.00
C1711  C     0.29892   0.58161   0.68217   0.00000  Uiso   1.00
H1712  H     0.28026   0.55252   0.66828   0.00000  Uiso   1.00
H1713  H     0.33122   0.57630   0.67123   0.00000  Uiso   1.00
C1714  C     0.28502   0.62777   0.66168   0.00000  Uiso   1.00
H1715  H     0.30351   0.65748   0.67365   0.00000  Uiso   1.00
H1716  H     0.28919   0.62557   0.62504   0.00000  Uiso   1.00
C1717  C     0.24080   0.63826   0.67266   0.00000  Uiso   1.00
H1718  H     0.22147   0.60774   0.66429   0.00000  Uiso   1.00
H1719  H     0.23076   0.33583   0.65343   0.00000  Uiso   1.00
H1720  H     0.23750   0.64633   0.70854   0.00000  Uiso   1.00
O1721  O     0.29190   0.41458   0.75709   0.00000  Uiso   1.00
C1722  C     0.29040   0.40040   0.80204   0.00000  Uiso   1.00
H1723  H     0.26435   0.41804   0.81924   0.00000  Uiso   1.00
H1724  H     0.31887   0.40890   0.82016   0.00000  Uiso   1.00
C1725  C     0.28433   0.34734   0.80375   0.00000  Uiso   1.00
H1726  H     0.25901   0.33702   0.78213   0.00000  Uiso   1.00
H1727  H     0.31199   0.66318   0.79036   0.00000  Uiso   1.00
C1728  C     0.27537   0.66378   0.85098   0.00000  Uiso   1.00
H1729  H     0.30061   0.34030   0.87312   0.00000  Uiso   1.00
H1730  H     0.27196   0.62502   0.85103   0.00000  Uiso   1.00
H1731  H     0.24668   0.34621   0.86408   0.00000  Uiso   1.00
O1732  O     0.04030   0.58491   0.76036   0.00000  Uiso   1.00
C1733  C     0.04222   0.59261   0.80675   0.00000  Uiso   1.00
H1734  H     0.05915   0.56381   0.82315   0.00000  Uiso   1.00
H1735  H     0.01101   0.59459   0.82178   0.00000  Uiso   1.00
C1736  C     0.06454   0.63877   0.81564   0.00000  Uiso   1.00
H1737  H     0.09569   0.63689   0.80097   0.00000  Uiso   1.00
H1738  H     0.04842   0.33483   0.79973   0.00000  Uiso   1.00
C1739  C     0.06737   0.64907   0.86523   0.00000  Uiso   1.00
H1740  H     0.03655   0.65130   0.88076   0.00000  Uiso   1.00
H1741  H     0.08329   0.34973   0.87019   0.00000  Uiso   1.00
H1742  H     0.08473   0.62120   0.88196   0.00000  Uiso   1.00
C1743  C     0.42066   0.49991   0.75102   0.00000  Uiso   1.00
C1744  C     0.57935   0.50001   0.74920   0.00000  Uiso   1.00
C1745  C     0.50075   0.49993   0.66481   0.00000  Uiso   1.00
C1746  C     0.49994   0.50002   0.83493   0.00000  Uiso   1.00
C1747  C     0.48710   0.35797   0.71398   0.00000  Uiso   1.00
C1748  C     0.51301   0.64205   0.78601   0.00000  Uiso   1.00
C1749  C     0.51262   0.35828   0.78617   0.00000  Uiso   1.00
C1750  C     0.48631   0.64173   0.71432   0.00000  Uiso   1.00
C1751  C     0.35429   0.45704   0.75017   0.00000  Uiso   1.00
C1752  C     0.64614   0.54209   0.74489   0.00000  Uiso   1.00
C1753  C     0.64527   0.45722   0.75393   0.00000  Uiso   1.00
C1754  C     0.35434   0.54237   0.75354   0.00000  Uiso   1.00
C1755  C     0.51663   0.54179   0.54751   0.00000  Uiso   1.00
C1756  C     0.53377   0.47155   0.94914   0.00000  Uiso   1.00
C1757  C     0.48027   0.53111   0.95402   0.00000  Uiso   1.00
C1758  C     0.50188   0.45757   0.54645   0.00000  Uiso   1.00
C1759  C     0.51148   0.54173   0.59355   0.00000  Uiso   1.00
C1760  C     0.52855   0.46917   0.90346   0.00000  Uiso   1.00
C1761  C     0.47859   0.53137   0.90791   0.00000  Uiso   1.00
C1762  C     0.50031   0.45769   0.59267   0.00000  Uiso   1.00
C1763  C     0.50377   0.49981   0.61633   0.00000  Uiso   1.00
C1764  C     0.50200   0.49992   0.88286   0.00000  Uiso   1.00
C1765  C     0.51006   0.49998   0.52361   0.00000  Uiso   1.00
C1766  C     0.50850   0.50136   0.97496   0.00000  Uiso   1.00
C1767  C     0.62399   0.49978   0.74919   0.00000  Uiso   1.00
C1768  C     0.37601   0.49971   0.75213   0.00000  Uiso   1.00
Cu1769 Cu    0.50000   0.54689   0.75000   0.00000  Uiso   1.00
Cu1770 Cu    0.50000   0.45311   0.75000   0.00000  Uiso   1.00
N1771  N     0.50000   0.61736   0.75000   0.00000  Uiso   1.00
N1772  N     0.50000   0.38264   0.75000   0.00000  Uiso   1.00
O1773  O     0.43988   0.53958   0.74999   0.00000  Uiso   1.00
O1774  O     0.56012   0.46042   0.75000   0.00000  Uiso   1.00
O1775  O     0.56012   0.53958   0.75000   0.00000  Uiso   1.00
O1776  O     0.43988   0.46042   0.74999   0.00000  Uiso   1.00
O1777  O     0.50000   0.53959   0.68573   0.00000  Uiso   1.00
O1778  O     0.50000   0.46041   0.81427   0.00000  Uiso   1.00
O1779  O     0.50000   0.53959   0.81427   0.00000  Uiso   1.00
O1780  O     0.50000   0.46041   0.68573   0.00000  Uiso   1.00
H1781  H     0.47661   0.37634   0.68510   0.00000  Uiso   1.00
H1782  H     0.52393   0.62373   0.81475   0.00000  Uiso   1.00
H1783  H     0.52316   0.37687   0.81507   0.00000  Uiso   1.00
H1784  H     0.47517   0.62314   0.68568   0.00000  Uiso   1.00
O1785  O     0.52411   0.58353   0.52538   0.00000  Uiso   1.00
C1786  C     0.56478   0.59763   0.53205   0.00000  Uiso   1.00
H1787  H     0.58629   0.57004   0.51999   0.00000  Uiso   1.00
H1788  H     0.57016   0.60479   0.56781   0.00000  Uiso   1.00
C1789  C     0.57302   0.64273   0.50601   0.00000  Uiso   1.00
H1790  H     0.56680   0.63667   0.97030   0.00000  Uiso   1.00
H1791  H     0.55228   0.33737   0.51855   0.00000  Uiso   1.00
C1792  C     0.61701   0.65917   0.51061   0.00000  Uiso   1.00
H1793  H     0.62436   0.66432   0.54613   0.00000  Uiso   1.00
H1794  H     0.62138   0.35972   0.99313   0.00000  Uiso   1.00
H1795  H     0.63816   0.63308   0.99552   0.00000  Uiso   1.00
O1796  O     0.56255   0.44332   0.96861   0.00000  Uiso   1.00
C1797  C     0.60091   0.46626   0.96770   0.00000  Uiso   1.00
H1798  H     0.61667   0.45670   0.99868   0.00000  Uiso   1.00
H1799  H     0.59878   0.50535   0.96770   0.00000  Uiso   1.00
C1800  C     0.62689   0.44956   0.92783   0.00000  Uiso   1.00
H1801  H     0.62765   0.41063   0.92711   0.00000  Uiso   1.00
H1802  H     0.61352   0.46201   0.89650   0.00000  Uiso   1.00
C1803  C     0.33701   0.46834   0.92985   0.00000  Uiso   1.00
H1804  H     0.33695   0.50730   0.92919   0.00000  Uiso   1.00
H1805  H     0.35494   0.45538   0.90071   0.00000  Uiso   1.00
H1806  H     0.35180   0.45618   0.96054   0.00000  Uiso   1.00
O1807  O     0.45670   0.56309   0.97770   0.00000  Uiso   1.00
C1808  C     0.42131   0.54055   0.99447   0.00000  Uiso   1.00
H1809  H     0.42930   0.51559   0.52110   0.00000  Uiso   1.00
H1810  H     0.40504   0.52167   0.96763   0.00000  Uiso   1.00
C1811  C     0.39278   0.57731   0.51486   0.00000  Uiso   1.00
H1812  H     0.40949   0.59811   0.53997   0.00000  Uiso   1.00
H1813  H     0.38253   0.60140   0.98844   0.00000  Uiso   1.00
C1814  C     0.35563   0.55459   0.53735   0.00000  Uiso   1.00
H1815  H     0.33714   0.53564   0.51253   0.00000  Uiso   1.00
H1816  H     0.33648   0.58206   0.55340   0.00000  Uiso   1.00
H1817  H     0.36522   0.52962   0.56336   0.00000  Uiso   1.00
O1818  O     0.49874   0.41507   0.52429   0.00000  Uiso   1.00
C1819  C     0.45874   0.40830   0.50882   0.00000  Uiso   1.00
H1820  H     0.46101   0.38657   0.97820   0.00000  Uiso   1.00
H1821  H     0.44358   0.44134   0.99894   0.00000  Uiso   1.00
C1822  C     0.43252   0.38181   0.54318   0.00000  Uiso   1.00
H1823  H     0.44697   0.34757   0.55049   0.00000  Uiso   1.00
H1824  H     0.43025   0.40243   0.57445   0.00000  Uiso   1.00
C1825  C     0.38960   0.37328   0.52631   0.00000  Uiso   1.00
H1826  H     0.37346   0.40714   0.52266   0.00000  Uiso   1.00
H1827  H     0.37222   0.35124   0.55042   0.00000  Uiso   1.00
H1828  H     0.39072   0.35490   0.99375   0.00000  Uiso   1.00
H1829  H     0.51363   0.57463   0.61127   0.00000  Uiso   1.00
H1830  H     0.54627   0.44444   0.88383   0.00000  Uiso   1.00
H1831  H     0.45812   0.55516   0.89169   0.00000  Uiso   1.00
H1832  H     0.49544   0.42480   0.60992   0.00000  Uiso   1.00
O1833  O     0.37393   0.41429   0.74782   0.00000  Uiso   1.00
C1834  C     0.37524   0.39903   0.70307   0.00000  Uiso   1.00
H1835  H     0.40021   0.41771   0.68484   0.00000  Uiso   1.00
H1836  H     0.34606   0.40526   0.68566   0.00000  Uiso   1.00
C1837  C     0.38336   0.34642   0.70210   0.00000  Uiso   1.00
H1838  H     0.40949   0.33841   0.72320   0.00000  Uiso   1.00
H1839  H     0.35683   0.66105   0.71690   0.00000  Uiso   1.00
C1840  C     0.39195   0.66188   0.65501   0.00000  Uiso   1.00
H1841  H     0.41996   0.34516   0.64103   0.00000  Uiso   1.00
H1842  H     0.36614   0.33656   0.63311   0.00000  Uiso   1.00
H1843  H     0.39648   0.62332   0.65564   0.00000  Uiso   1.00
O1844  O     0.62844   0.58267   0.72920   0.00000  Uiso   1.00
C1845  C     0.63225   0.58161   0.68217   0.00000  Uiso   1.00
H1846  H     0.61359   0.55252   0.66828   0.00000  Uiso   1.00
H1847  H     0.66455   0.57630   0.67123   0.00000  Uiso   1.00
C1848  C     0.61835   0.62777   0.66168   0.00000  Uiso   1.00
H1849  H     0.63684   0.65748   0.67365   0.00000  Uiso   1.00
H1850  H     0.62252   0.62557   0.62504   0.00000  Uiso   1.00
C1851  C     0.57413   0.63826   0.67266   0.00000  Uiso   1.00
H1852  H     0.55481   0.60774   0.66429   0.00000  Uiso   1.00
H1853  H     0.56409   0.33583   0.65343   0.00000  Uiso   1.00
H1854  H     0.57083   0.64633   0.70854   0.00000  Uiso   1.00
O1855  O     0.62523   0.41458   0.75709   0.00000  Uiso   1.00
C1856  C     0.62373   0.40040   0.80204   0.00000  Uiso   1.00
H1857  H     0.59769   0.41804   0.81924   0.00000  Uiso   1.00
H1858  H     0.65220   0.40890   0.82016   0.00000  Uiso   1.00
C1859  C     0.61767   0.34734   0.80375   0.00000  Uiso   1.00
H1860  H     0.59235   0.33702   0.78213   0.00000  Uiso   1.00
H1861  H     0.64533   0.66318   0.79036   0.00000  Uiso   1.00
C1862  C     0.60870   0.66378   0.85098   0.00000  Uiso   1.00
H1863  H     0.63395   0.34030   0.87312   0.00000  Uiso   1.00
H1864  H     0.60529   0.62502   0.85103   0.00000  Uiso   1.00
H1865  H     0.58002   0.34621   0.86408   0.00000  Uiso   1.00
O1866  O     0.37363   0.58491   0.76036   0.00000  Uiso   1.00
C1867  C     0.37556   0.59261   0.80675   0.00000  Uiso   1.00
H1868  H     0.39249   0.56381   0.82315   0.00000  Uiso   1.00
H1869  H     0.34435   0.59459   0.82178   0.00000  Uiso   1.00
C1870  C     0.39787   0.63877   0.81564   0.00000  Uiso   1.00
H1871  H     0.42903   0.63689   0.80097   0.00000  Uiso   1.00
H1872  H     0.38175   0.33483   0.79973   0.00000  Uiso   1.00
C1873  C     0.40071   0.64907   0.86523   0.00000  Uiso   1.00
H1874  H     0.36988   0.65130   0.88076   0.00000  Uiso   1.00
H1875  H     0.41662   0.34973   0.87019   0.00000  Uiso   1.00
H1876  H     0.41806   0.62120   0.88196   0.00000  Uiso   1.00
C1877  C     0.75399   0.49991   0.75102   0.00000  Uiso   1.00
C1878  C     0.91268   0.50001   0.74920   0.00000  Uiso   1.00
C1879  C     0.83408   0.49993   0.66481   0.00000  Uiso   1.00
C1880  C     0.83328   0.50002   0.83493   0.00000  Uiso   1.00
C1881  C     0.82044   0.35797   0.71398   0.00000  Uiso   1.00
C1882  C     0.84634   0.64205   0.78601   0.00000  Uiso   1.00
C1883  C     0.84595   0.35828   0.78617   0.00000  Uiso   1.00
C1884  C     0.81964   0.64173   0.71432   0.00000  Uiso   1.00
C1885  C     0.68763   0.45704   0.75017   0.00000  Uiso   1.00
C1886  C     0.97947   0.54209   0.74489   0.00000  Uiso   1.00
C1887  C     0.97860   0.45722   0.75393   0.00000  Uiso   1.00
C1888  C     0.68767   0.54237   0.75354   0.00000  Uiso   1.00
C1889  C     0.84996   0.54179   0.54751   0.00000  Uiso   1.00
C1890  C     0.86710   0.47155   0.94914   0.00000  Uiso   1.00
C1891  C     0.81360   0.53111   0.95402   0.00000  Uiso   1.00
C1892  C     0.83521   0.45757   0.54645   0.00000  Uiso   1.00
C1893  C     0.84481   0.54173   0.59355   0.00000  Uiso   1.00
C1894  C     0.86188   0.46917   0.90346   0.00000  Uiso   1.00
C1895  C     0.81192   0.53137   0.90791   0.00000  Uiso   1.00
C1896  C     0.83364   0.45769   0.59267   0.00000  Uiso   1.00
C1897  C     0.83711   0.49981   0.61633   0.00000  Uiso   1.00
C1898  C     0.83534   0.49992   0.88286   0.00000  Uiso   1.00
C1899  C     0.84340   0.49998   0.52361   0.00000  Uiso   1.00
C1900  C     0.84184   0.50136   0.97496   0.00000  Uiso   1.00
C1901  C     0.95732   0.49978   0.74919   0.00000  Uiso   1.00
C1902  C     0.70934   0.49971   0.75213   0.00000  Uiso   1.00
Cu1903 Cu    0.83333   0.54689   0.75000   0.00000  Uiso   1.00
Cu1904 Cu    0.83333   0.45311   0.75000   0.00000  Uiso   1.00
N1905  N     0.83333   0.61736   0.75000   0.00000  Uiso   1.00
N1906  N     0.83333   0.38264   0.75000   0.00000  Uiso   1.00
O1907  O     0.77321   0.53958   0.74999   0.00000  Uiso   1.00
O1908  O     0.89345   0.46042   0.75000   0.00000  Uiso   1.00
O1909  O     0.89345   0.53958   0.75000   0.00000  Uiso   1.00
O1910  O     0.77321   0.46042   0.74999   0.00000  Uiso   1.00
O1911  O     0.83333   0.53959   0.68573   0.00000  Uiso   1.00
O1912  O     0.83334   0.46041   0.81427   0.00000  Uiso   1.00
O1913  O     0.83334   0.53959   0.81427   0.00000  Uiso   1.00
O1914  O     0.83333   0.46041   0.68573   0.00000  Uiso   1.00
H1915  H     0.80994   0.37634   0.68510   0.00000  Uiso   1.00
H1916  H     0.85726   0.62373   0.81475   0.00000  Uiso   1.00
H1917  H     0.85649   0.37687   0.81507   0.00000  Uiso   1.00
H1918  H     0.80850   0.62314   0.68568   0.00000  Uiso   1.00
O1919  O     0.85744   0.58353   0.52538   0.00000  Uiso   1.00
C1920  C     0.89812   0.59763   0.53205   0.00000  Uiso   1.00
H1921  H     0.91962   0.57004   0.51999   0.00000  Uiso   1.00
H1922  H     0.90349   0.60479   0.56781   0.00000  Uiso   1.00
C1923  C     0.90636   0.64273   0.50601   0.00000  Uiso   1.00
H1924  H     0.90013   0.63667   0.97030   0.00000  Uiso   1.00
H1925  H     0.88561   0.33737   0.51855   0.00000  Uiso   1.00
C1926  C     0.95034   0.65917   0.51061   0.00000  Uiso   1.00
H1927  H     0.95769   0.66432   0.54613   0.00000  Uiso   1.00
H1928  H     0.95471   0.35972   0.99313   0.00000  Uiso   1.00
H1929  H     0.97150   0.63308   0.99552   0.00000  Uiso   1.00
O1930  O     0.89588   0.44332   0.96861   0.00000  Uiso   1.00
C1931  C     0.93425   0.46626   0.96770   0.00000  Uiso   1.00
H1932  H     0.95000   0.45670   0.99868   0.00000  Uiso   1.00
H1933  H     0.93212   0.50535   0.96770   0.00000  Uiso   1.00
C1934  C     0.96023   0.44956   0.92783   0.00000  Uiso   1.00
H1935  H     0.96098   0.41063   0.92711   0.00000  Uiso   1.00
H1936  H     0.94685   0.46201   0.89650   0.00000  Uiso   1.00
C1937  C     0.67034   0.46834   0.92985   0.00000  Uiso   1.00
H1938  H     0.67029   0.50730   0.92919   0.00000  Uiso   1.00
H1939  H     0.68827   0.45538   0.90071   0.00000  Uiso   1.00
H1940  H     0.68513   0.45618   0.96054   0.00000  Uiso   1.00
O1941  O     0.79003   0.56309   0.97770   0.00000  Uiso   1.00
C1942  C     0.75464   0.54055   0.99447   0.00000  Uiso   1.00
H1943  H     0.76264   0.51559   0.52110   0.00000  Uiso   1.00
H1944  H     0.73837   0.52167   0.96763   0.00000  Uiso   1.00
C1945  C     0.72612   0.57731   0.51486   0.00000  Uiso   1.00
H1946  H     0.74282   0.59811   0.53997   0.00000  Uiso   1.00
H1947  H     0.71586   0.60140   0.98844   0.00000  Uiso   1.00
C1948  C     0.68896   0.55459   0.53735   0.00000  Uiso   1.00
H1949  H     0.67047   0.53564   0.51253   0.00000  Uiso   1.00
H1950  H     0.66981   0.58206   0.55340   0.00000  Uiso   1.00
H1951  H     0.69855   0.52962   0.56336   0.00000  Uiso   1.00
O1952  O     0.83208   0.41507   0.52429   0.00000  Uiso   1.00
C1953  C     0.79207   0.40830   0.50882   0.00000  Uiso   1.00
H1954  H     0.79434   0.38657   0.97820   0.00000  Uiso   1.00
H1955  H     0.77691   0.44134   0.99894   0.00000  Uiso   1.00
C1956  C     0.76585   0.38181   0.54318   0.00000  Uiso   1.00
H1957  H     0.78031   0.34757   0.55049   0.00000  Uiso   1.00
H1958  H     0.76358   0.40243   0.57445   0.00000  Uiso   1.00
C1959  C     0.72294   0.37328   0.52631   0.00000  Uiso   1.00
H1960  H     0.70680   0.40714   0.52266   0.00000  Uiso   1.00
H1961  H     0.70556   0.35124   0.55042   0.00000  Uiso   1.00
H1962  H     0.72405   0.35490   0.99375   0.00000  Uiso   1.00
H1963  H     0.84696   0.57463   0.61127   0.00000  Uiso   1.00
H1964  H     0.87961   0.44444   0.88383   0.00000  Uiso   1.00
H1965  H     0.79146   0.55516   0.89169   0.00000  Uiso   1.00
H1966  H     0.82877   0.42480   0.60992   0.00000  Uiso   1.00
O1967  O     0.70727   0.41429   0.74782   0.00000  Uiso   1.00
C1968  C     0.70858   0.39903   0.70307   0.00000  Uiso   1.00
H1969  H     0.73354   0.41771   0.68484   0.00000  Uiso   1.00
H1970  H     0.67940   0.40526   0.68566   0.00000  Uiso   1.00
C1971  C     0.71670   0.34642   0.70210   0.00000  Uiso   1.00
H1972  H     0.74282   0.33841   0.72320   0.00000  Uiso   1.00
H1973  H     0.69017   0.66105   0.71690   0.00000  Uiso   1.00
C1974  C     0.72529   0.66188   0.65501   0.00000  Uiso   1.00
H1975  H     0.75330   0.34516   0.64103   0.00000  Uiso   1.00
H1976  H     0.69947   0.33656   0.63311   0.00000  Uiso   1.00
H1977  H     0.72981   0.62332   0.65564   0.00000  Uiso   1.00
O1978  O     0.96177   0.58267   0.72920   0.00000  Uiso   1.00
C1979  C     0.96559   0.58161   0.68217   0.00000  Uiso   1.00
H1980  H     0.94692   0.55252   0.66828   0.00000  Uiso   1.00
H1981  H     0.99789   0.57630   0.67123   0.00000  Uiso   1.00
C1982  C     0.95169   0.62777   0.66168   0.00000  Uiso   1.00
H1983  H     0.97017   0.65748   0.67365   0.00000  Uiso   1.00
H1984  H     0.95586   0.62557   0.62504   0.00000  Uiso   1.00
C1985  C     0.90747   0.63826   0.67266   0.00000  Uiso   1.00
H1986  H     0.88814   0.60774   0.66429   0.00000  Uiso   1.00
H1987  H     0.89742   0.33583   0.65343   0.00000  Uiso   1.00
H1988  H     0.90417   0.64633   0.70854   0.00000  Uiso   1.00
O1989  O     0.95857   0.41458   0.75709   0.00000  Uiso   1.00
C1990  C     0.95706   0.40040   0.80204   0.00000  Uiso   1.00
H1991  H     0.93102   0.41804   0.81924   0.00000  Uiso   1.00
H1992  H     0.98553   0.40890   0.82016   0.00000  Uiso   1.00
C1993  C     0.95100   0.34734   0.80375   0.00000  Uiso   1.00
H1994  H     0.92568   0.33702   0.78213   0.00000  Uiso   1.00
H1995  H     0.97866   0.66318   0.79036   0.00000  Uiso   1.00
C1996  C     0.94204   0.66378   0.85098   0.00000  Uiso   1.00
H1997  H     0.96728   0.34030   0.87312   0.00000  Uiso   1.00
H1998  H     0.93863   0.62502   0.85103   0.00000  Uiso   1.00
H1999  H     0.91335   0.34621   0.86408   0.00000  Uiso   1.00
O2000  O     0.70696   0.58491   0.76036   0.00000  Uiso   1.00
C2001  C     0.70889   0.59261   0.80675   0.00000  Uiso   1.00
H2002  H     0.72582   0.56381   0.82315   0.00000  Uiso   1.00
H2003  H     0.67768   0.59459   0.82178   0.00000  Uiso   1.00
C2004  C     0.73121   0.63877   0.81564   0.00000  Uiso   1.00
H2005  H     0.76236   0.63689   0.80097   0.00000  Uiso   1.00
H2006  H     0.71508   0.33483   0.79973   0.00000  Uiso   1.00
C2007  C     0.73404   0.64907   0.86523   0.00000  Uiso   1.00
H2008  H     0.70322   0.65130   0.88076   0.00000  Uiso   1.00
H2009  H     0.74995   0.34973   0.87019   0.00000  Uiso   1.00
H2010  H     0.75140   0.62120   0.88196   0.00000  Uiso   1.00
C2011  C     0.08733   0.83325   0.75102   0.00000  Uiso   1.00
C2012  C     0.24602   0.83334   0.74920   0.00000  Uiso   1.00
C2013  C     0.16741   0.83327   0.66481   0.00000  Uiso   1.00
C2014  C     0.16661   0.83335   0.83493   0.00000  Uiso   1.00
C2015  C     0.15377   0.69130   0.71398   0.00000  Uiso   1.00
C2016  C     0.17967   0.97538   0.78601   0.00000  Uiso   1.00
C2017  C     0.17929   0.69161   0.78617   0.00000  Uiso   1.00
C2018  C     0.15298   0.97506   0.71432   0.00000  Uiso   1.00
C2019  C     0.02096   0.79037   0.75017   0.00000  Uiso   1.00
C2020  C     0.31280   0.87542   0.74489   0.00000  Uiso   1.00
C2021  C     0.31194   0.79055   0.75393   0.00000  Uiso   1.00
C2022  C     0.02101   0.87571   0.75354   0.00000  Uiso   1.00
C2023  C     0.18329   0.87512   0.54751   0.00000  Uiso   1.00
C2024  C     0.20044   0.80488   0.94914   0.00000  Uiso   1.00
C2025  C     0.14694   0.86445   0.95402   0.00000  Uiso   1.00
C2026  C     0.16855   0.79090   0.54645   0.00000  Uiso   1.00
C2027  C     0.17814   0.87506   0.59355   0.00000  Uiso   1.00
C2028  C     0.19522   0.80250   0.90346   0.00000  Uiso   1.00
C2029  C     0.14525   0.86470   0.90791   0.00000  Uiso   1.00
C2030  C     0.16697   0.79102   0.59267   0.00000  Uiso   1.00
C2031  C     0.17044   0.83315   0.61633   0.00000  Uiso   1.00
C2032  C     0.16867   0.83326   0.88286   0.00000  Uiso   1.00
C2033  C     0.17673   0.83332   0.52361   0.00000  Uiso   1.00
C2034  C     0.17517   0.83469   0.97496   0.00000  Uiso   1.00
C2035  C     0.29065   0.83311   0.74919   0.00000  Uiso   1.00
C2036  C     0.04268   0.83305   0.75213   0.00000  Uiso   1.00
Cu2037 Cu    0.16667   0.88022   0.75000   0.00000  Uiso   1.00
Cu2038 Cu    0.16667   0.78645   0.75000   0.00000  Uiso   1.00
N2039  N     0.16667   0.95069   0.75000   0.00000  Uiso   1.00
N2040  N     0.16667   0.71598   0.75000   0.00000  Uiso   1.00
O2041  O     0.10655   0.87291   0.74999   0.00000  Uiso   1.00
O2042  O     0.22679   0.79375   0.75000   0.00000  Uiso   1.00
O2043  O     0.22679   0.87291   0.75000   0.00000  Uiso   1.00
O2044  O     0.10655   0.79375   0.74999   0.00000  Uiso   1.00
O2045  O     0.16666   0.87293   0.68573   0.00000  Uiso   1.00
O2046  O     0.16667   0.79374   0.81427   0.00000  Uiso   1.00
O2047  O     0.16667   0.87293   0.81427   0.00000  Uiso   1.00
O2048  O     0.16666   0.79374   0.68573   0.00000  Uiso   1.00
H2049  H     0.14328   0.70967   0.68510   0.00000  Uiso   1.00
H2050  H     0.19059   0.95706   0.81475   0.00000  Uiso   1.00
H2051  H     0.18982   0.71020   0.81507   0.00000  Uiso   1.00
H2052  H     0.14184   0.95647   0.68568   0.00000  Uiso   1.00
O2053  O     0.19078   0.91687   0.52538   0.00000  Uiso   1.00
C2054  C     0.23145   0.93096   0.53205   0.00000  Uiso   1.00
H2055  H     0.25296   0.90338   0.51999   0.00000  Uiso   1.00
H2056  H     0.23682   0.93812   0.56781   0.00000  Uiso   1.00
C2057  C     0.23969   0.97606   0.50601   0.00000  Uiso   1.00
H2058  H     0.23347   0.97000   0.97030   0.00000  Uiso   1.00
H2059  H     0.21894   0.67070   0.51855   0.00000  Uiso   1.00
C2060  C     0.28367   0.99251   0.51061   0.00000  Uiso   1.00
H2061  H     0.29102   0.99766   0.54613   0.00000  Uiso   1.00
H2062  H     0.28805   0.69305   0.99313   0.00000  Uiso   1.00
H2063  H     0.30483   0.96641   0.99552   0.00000  Uiso   1.00
O2064  O     0.22921   0.77666   0.96861   0.00000  Uiso   1.00
C2065  C     0.26758   0.79959   0.96770   0.00000  Uiso   1.00
H2066  H     0.28333   0.79003   0.99868   0.00000  Uiso   1.00
H2067  H     0.26545   0.83868   0.96770   0.00000  Uiso   1.00
C2068  C     0.29356   0.78289   0.92783   0.00000  Uiso   1.00
H2069  H     0.29432   0.74396   0.92711   0.00000  Uiso   1.00
H2070  H     0.28018   0.79534   0.89650   0.00000  Uiso   1.00
C2071  C     0.00367   0.80168   0.92985   0.00000  Uiso   1.00
H2072  H     0.00362   0.84063   0.92919   0.00000  Uiso   1.00
H2073  H     0.02160   0.78871   0.90071   0.00000  Uiso   1.00
H2074  H     0.01846   0.78951   0.96054   0.00000  Uiso   1.00
O2075  O     0.12336   0.89642   0.97770   0.00000  Uiso   1.00
C2076  C     0.08797   0.87389   0.99447   0.00000  Uiso   1.00
H2077  H     0.09597   0.84893   0.52110   0.00000  Uiso   1.00
H2078  H     0.07170   0.85500   0.96763   0.00000  Uiso   1.00
C2079  C     0.05945   0.91064   0.51486   0.00000  Uiso   1.00
H2080  H     0.07615   0.93145   0.53997   0.00000  Uiso   1.00
H2081  H     0.04919   0.93473   0.98844   0.00000  Uiso   1.00
C2082  C     0.02229   0.88792   0.53735   0.00000  Uiso   1.00
H2083  H     0.00381   0.86897   0.51253   0.00000  Uiso   1.00
H2084  H     0.00314   0.91539   0.55340   0.00000  Uiso   1.00
H2085  H     0.03188   0.86296   0.56336   0.00000  Uiso   1.00
O2086  O     0.16541   0.74840   0.52429   0.00000  Uiso   1.00
C2087  C     0.12540   0.74164   0.50882   0.00000  Uiso   1.00
H2088  H     0.12768   0.71990   0.97820   0.00000  Uiso   1.00
H2089  H     0.11024   0.77467   0.99894   0.00000  Uiso   1.00
C2090  C     0.09919   0.71514   0.54318   0.00000  Uiso   1.00
H2091  H     0.11364   0.68091   0.55049   0.00000  Uiso   1.00
H2092  H     0.09692   0.73576   0.57445   0.00000  Uiso   1.00
C2093  C     0.05627   0.70661   0.52631   0.00000  Uiso   1.00
H2094  H     0.04013   0.74048   0.52266   0.00000  Uiso   1.00
H2095  H     0.03889   0.68458   0.55042   0.00000  Uiso   1.00
H2096  H     0.05739   0.68823   0.99375   0.00000  Uiso   1.00
H2097  H     0.18029   0.90797   0.61127   0.00000  Uiso   1.00
H2098  H     0.21294   0.77778   0.88383   0.00000  Uiso   1.00
H2099  H     0.12479   0.88849   0.89169   0.00000  Uiso   1.00
H2100  H     0.16210   0.75813   0.60992   0.00000  Uiso   1.00
O2101  O     0.04060   0.74762   0.74782   0.00000  Uiso   1.00
C2102  C     0.04191   0.73236   0.70307   0.00000  Uiso   1.00
H2103  H     0.06688   0.75104   0.68484   0.00000  Uiso   1.00
H2104  H     0.01273   0.73860   0.68566   0.00000  Uiso   1.00
C2105  C     0.05003   0.67976   0.70210   0.00000  Uiso   1.00
H2106  H     0.07616   0.67175   0.72320   0.00000  Uiso   1.00
H2107  H     0.02350   0.99439   0.71690   0.00000  Uiso   1.00
C2108  C     0.05862   0.99521   0.65501   0.00000  Uiso   1.00
H2109  H     0.08663   0.67850   0.64103   0.00000  Uiso   1.00
H2110  H     0.03281   0.66989   0.63311   0.00000  Uiso   1.00
H2111  H     0.06315   0.95665   0.65564   0.00000  Uiso   1.00
O2112  O     0.29510   0.91601   0.72920   0.00000  Uiso   1.00
C2113  C     0.29892   0.91495   0.68217   0.00000  Uiso   1.00
H2114  H     0.28026   0.88585   0.66828   0.00000  Uiso   1.00
H2115  H     0.33122   0.90963   0.67123   0.00000  Uiso   1.00
C2116  C     0.28502   0.96111   0.66168   0.00000  Uiso   1.00
H2117  H     0.30351   0.99081   0.67365   0.00000  Uiso   1.00
H2118  H     0.28919   0.95890   0.62504   0.00000  Uiso   1.00
C2119  C     0.24080   0.97159   0.67266   0.00000  Uiso   1.00
H2120  H     0.22147   0.94107   0.66429   0.00000  Uiso   1.00
H2121  H     0.23076   0.66916   0.65343   0.00000  Uiso   1.00
H2122  H     0.23750   0.97967   0.70854   0.00000  Uiso   1.00
O2123  O     0.29190   0.74792   0.75709   0.00000  Uiso   1.00
C2124  C     0.29040   0.73374   0.80204   0.00000  Uiso   1.00
H2125  H     0.26435   0.75137   0.81924   0.00000  Uiso   1.00
H2126  H     0.31887   0.74223   0.82016   0.00000  Uiso   1.00
C2127  C     0.28433   0.68067   0.80375   0.00000  Uiso   1.00
H2128  H     0.25901   0.67035   0.78213   0.00000  Uiso   1.00
H2129  H     0.31199   0.99651   0.79036   0.00000  Uiso   1.00
C2130  C     0.27537   0.99711   0.85098   0.00000  Uiso   1.00
H2131  H     0.30061   0.67363   0.87312   0.00000  Uiso   1.00
H2132  H     0.27196   0.95835   0.85103   0.00000  Uiso   1.00
H2133  H     0.24668   0.67955   0.86408   0.00000  Uiso   1.00
O2134  O     0.04030   0.91824   0.76036   0.00000  Uiso   1.00
C2135  C     0.04222   0.92594   0.80675   0.00000  Uiso   1.00
H2136  H     0.05915   0.89715   0.82315   0.00000  Uiso   1.00
H2137  H     0.01101   0.92793   0.82178   0.00000  Uiso   1.00
C2138  C     0.06454   0.97211   0.81564   0.00000  Uiso   1.00
H2139  H     0.09569   0.97023   0.80097   0.00000  Uiso   1.00
H2140  H     0.04842   0.66816   0.79973   0.00000  Uiso   1.00
C2141  C     0.06737   0.98240   0.86523   0.00000  Uiso   1.00
H2142  H     0.03655   0.98463   0.88076   0.00000  Uiso   1.00
H2143  H     0.08329   0.68306   0.87019   0.00000  Uiso   1.00
H2144  H     0.08473   0.95454   0.88196   0.00000  Uiso   1.00
C2145  C     0.42066   0.83325   0.75102   0.00000  Uiso   1.00
C2146  C     0.57935   0.83334   0.74920   0.00000  Uiso   1.00
C2147  C     0.50075   0.83327   0.66481   0.00000  Uiso   1.00
C2148  C     0.49994   0.83335   0.83493   0.00000  Uiso   1.00
C2149  C     0.48710   0.69130   0.71398   0.00000  Uiso   1.00
C2150  C     0.51301   0.97538   0.78601   0.00000  Uiso   1.00
C2151  C     0.51262   0.69161   0.78617   0.00000  Uiso   1.00
C2152  C     0.48631   0.97506   0.71432   0.00000  Uiso   1.00
C2153  C     0.35429   0.79037   0.75017   0.00000  Uiso   1.00
C2154  C     0.64614   0.87542   0.74489   0.00000  Uiso   1.00
C2155  C     0.64527   0.79055   0.75393   0.00000  Uiso   1.00
C2156  C     0.35434   0.87571   0.75354   0.00000  Uiso   1.00
C2157  C     0.51663   0.87512   0.54751   0.00000  Uiso   1.00
C2158  C     0.53377   0.80488   0.94914   0.00000  Uiso   1.00
C2159  C     0.48027   0.86445   0.95402   0.00000  Uiso   1.00
C2160  C     0.50188   0.79090   0.54645   0.00000  Uiso   1.00
C2161  C     0.51148   0.87506   0.59355   0.00000  Uiso   1.00
C2162  C     0.52855   0.80250   0.90346   0.00000  Uiso   1.00
C2163  C     0.47859   0.86470   0.90791   0.00000  Uiso   1.00
C2164  C     0.50031   0.79102   0.59267   0.00000  Uiso   1.00
C2165  C     0.50377   0.83315   0.61633   0.00000  Uiso   1.00
C2166  C     0.50200   0.83326   0.88286   0.00000  Uiso   1.00
C2167  C     0.51006   0.83332   0.52361   0.00000  Uiso   1.00
C2168  C     0.50850   0.83469   0.97496   0.00000  Uiso   1.00
C2169  C     0.62399   0.83311   0.74919   0.00000  Uiso   1.00
C2170  C     0.37601   0.83305   0.75213   0.00000  Uiso   1.00
Cu2171 Cu    0.50000   0.88022   0.75000   0.00000  Uiso   1.00
Cu2172 Cu    0.50000   0.78645   0.75000   0.00000  Uiso   1.00
N2173  N     0.50000   0.95069   0.75000   0.00000  Uiso   1.00
N2174  N     0.50000   0.71598   0.75000   0.00000  Uiso   1.00
O2175  O     0.43988   0.87291   0.74999   0.00000  Uiso   1.00
O2176  O     0.56012   0.79375   0.75000   0.00000  Uiso   1.00
O2177  O     0.56012   0.87291   0.75000   0.00000  Uiso   1.00
O2178  O     0.43988   0.79375   0.74999   0.00000  Uiso   1.00
O2179  O     0.50000   0.87293   0.68573   0.00000  Uiso   1.00
O2180  O     0.50000   0.79374   0.81427   0.00000  Uiso   1.00
O2181  O     0.50000   0.87293   0.81427   0.00000  Uiso   1.00
O2182  O     0.50000   0.79374   0.68573   0.00000  Uiso   1.00
H2183  H     0.47661   0.70967   0.68510   0.00000  Uiso   1.00
H2184  H     0.52393   0.95706   0.81475   0.00000  Uiso   1.00
H2185  H     0.52316   0.71020   0.81507   0.00000  Uiso   1.00
H2186  H     0.47517   0.95647   0.68568   0.00000  Uiso   1.00
O2187  O     0.52411   0.91687   0.52538   0.00000  Uiso   1.00
C2188  C     0.56478   0.93096   0.53205   0.00000  Uiso   1.00
H2189  H     0.58629   0.90338   0.51999   0.00000  Uiso   1.00
H2190  H     0.57016   0.93812   0.56781   0.00000  Uiso   1.00
C2191  C     0.57302   0.97606   0.50601   0.00000  Uiso   1.00
H2192  H     0.56680   0.97000   0.97030   0.00000  Uiso   1.00
H2193  H     0.55228   0.67070   0.51855   0.00000  Uiso   1.00
C2194  C     0.61701   0.99251   0.51061   0.00000  Uiso   1.00
H2195  H     0.62436   0.99766   0.54613   0.00000  Uiso   1.00
H2196  H     0.62138   0.69305   0.99313   0.00000  Uiso   1.00
H2197  H     0.63816   0.96641   0.99552   0.00000  Uiso   1.00
O2198  O     0.56255   0.77666   0.96861   0.00000  Uiso   1.00
C2199  C     0.60091   0.79959   0.96770   0.00000  Uiso   1.00
H2200  H     0.61667   0.79003   0.99868   0.00000  Uiso   1.00
H2201  H     0.59878   0.83868   0.96770   0.00000  Uiso   1.00
C2202  C     0.62689   0.78289   0.92783   0.00000  Uiso   1.00
H2203  H     0.62765   0.74396   0.92711   0.00000  Uiso   1.00
H2204  H     0.61352   0.79534   0.89650   0.00000  Uiso   1.00
C2205  C     0.33701   0.80168   0.92985   0.00000  Uiso   1.00
H2206  H     0.33695   0.84063   0.92919   0.00000  Uiso   1.00
H2207  H     0.35494   0.78871   0.90071   0.00000  Uiso   1.00
H2208  H     0.35180   0.78951   0.96054   0.00000  Uiso   1.00
O2209  O     0.45670   0.89642   0.97770   0.00000  Uiso   1.00
C2210  C     0.42131   0.87389   0.99447   0.00000  Uiso   1.00
H2211  H     0.42930   0.84893   0.52110   0.00000  Uiso   1.00
H2212  H     0.40504   0.85500   0.96763   0.00000  Uiso   1.00
C2213  C     0.39278   0.91064   0.51486   0.00000  Uiso   1.00
H2214  H     0.40949   0.93145   0.53997   0.00000  Uiso   1.00
H2215  H     0.38253   0.93473   0.98844   0.00000  Uiso   1.00
C2216  C     0.35563   0.88792   0.53735   0.00000  Uiso   1.00
H2217  H     0.33714   0.86897   0.51253   0.00000  Uiso   1.00
H2218  H     0.33648   0.91539   0.55340   0.00000  Uiso   1.00
H2219  H     0.36522   0.86296   0.56336   0.00000  Uiso   1.00
O2220  O     0.49874   0.74840   0.52429   0.00000  Uiso   1.00
C2221  C     0.45874   0.74164   0.50882   0.00000  Uiso   1.00
H2222  H     0.46101   0.71990   0.97820   0.00000  Uiso   1.00
H2223  H     0.44358   0.77467   0.99894   0.00000  Uiso   1.00
C2224  C     0.43252   0.71514   0.54318   0.00000  Uiso   1.00
H2225  H     0.44697   0.68091   0.55049   0.00000  Uiso   1.00
H2226  H     0.43025   0.73576   0.57445   0.00000  Uiso   1.00
C2227  C     0.38960   0.70661   0.52631   0.00000  Uiso   1.00
H2228  H     0.37346   0.74048   0.52266   0.00000  Uiso   1.00
H2229  H     0.37222   0.68458   0.55042   0.00000  Uiso   1.00
H2230  H     0.39072   0.68823   0.99375   0.00000  Uiso   1.00
H2231  H     0.51363   0.90797   0.61127   0.00000  Uiso   1.00
H2232  H     0.54627   0.77778   0.88383   0.00000  Uiso   1.00
H2233  H     0.45812   0.88849   0.89169   0.00000  Uiso   1.00
H2234  H     0.49544   0.75813   0.60992   0.00000  Uiso   1.00
O2235  O     0.37393   0.74762   0.74782   0.00000  Uiso   1.00
C2236  C     0.37524   0.73236   0.70307   0.00000  Uiso   1.00
H2237  H     0.40021   0.75104   0.68484   0.00000  Uiso   1.00
H2238  H     0.34606   0.73860   0.68566   0.00000  Uiso   1.00
C2239  C     0.38336   0.67976   0.70210   0.00000  Uiso   1.00
H2240  H     0.40949   0.67175   0.72320   0.00000  Uiso   1.00
H2241  H     0.35683   0.99439   0.71690   0.00000  Uiso   1.00
C2242  C     0.39195   0.99521   0.65501   0.00000  Uiso   1.00
H2243  H     0.41996   0.67850   0.64103   0.00000  Uiso   1.00
H2244  H     0.36614   0.66989   0.63311   0.00000  Uiso   1.00
H2245  H     0.39648   0.95665   0.65564   0.00000  Uiso   1.00
O2246  O     0.62844   0.91601   0.72920   0.00000  Uiso   1.00
C2247  C     0.63225   0.91495   0.68217   0.00000  Uiso   1.00
H2248  H     0.61359   0.88585   0.66828   0.00000  Uiso   1.00
H2249  H     0.66455   0.90963   0.67123   0.00000  Uiso   1.00
C2250  C     0.61835   0.96111   0.66168   0.00000  Uiso   1.00
H2251  H     0.63684   0.99081   0.67365   0.00000  Uiso   1.00
H2252  H     0.62252   0.95890   0.62504   0.00000  Uiso   1.00
C2253  C     0.57413   0.97159   0.67266   0.00000  Uiso   1.00
H2254  H     0.55481   0.94107   0.66429   0.00000  Uiso   1.00
H2255  H     0.56409   0.66916   0.65343   0.00000  Uiso   1.00
H2256  H     0.57083   0.97967   0.70854   0.00000  Uiso   1.00
O2257  O     0.62523   0.74792   0.75709   0.00000  Uiso   1.00
C2258  C     0.62373   0.73374   0.80204   0.00000  Uiso   1.00
H2259  H     0.59769   0.75137   0.81924   0.00000  Uiso   1.00
H2260  H     0.65220   0.74223   0.82016   0.00000  Uiso   1.00
C2261  C     0.61767   0.68067   0.80375   0.00000  Uiso   1.00
H2262  H     0.59235   0.67035   0.78213   0.00000  Uiso   1.00
H2263  H     0.64533   0.99651   0.79036   0.00000  Uiso   1.00
C2264  C     0.60870   0.99711   0.85098   0.00000  Uiso   1.00
H2265  H     0.63395   0.67363   0.87312   0.00000  Uiso   1.00
H2266  H     0.60529   0.95835   0.85103   0.00000  Uiso   1.00
H2267  H     0.58002   0.67955   0.86408   0.00000  Uiso   1.00
O2268  O     0.37363   0.91824   0.76036   0.00000  Uiso   1.00
C2269  C     0.37556   0.92594   0.80675   0.00000  Uiso   1.00
H2270  H     0.39249   0.89715   0.82315   0.00000  Uiso   1.00
H2271  H     0.34435   0.92793   0.82178   0.00000  Uiso   1.00
C2272  C     0.39787   0.97211   0.81564   0.00000  Uiso   1.00
H2273  H     0.42903   0.97023   0.80097   0.00000  Uiso   1.00
H2274  H     0.38175   0.66816   0.79973   0.00000  Uiso   1.00
C2275  C     0.40071   0.98240   0.86523   0.00000  Uiso   1.00
H2276  H     0.36988   0.98463   0.88076   0.00000  Uiso   1.00
H2277  H     0.41662   0.68306   0.87019   0.00000  Uiso   1.00
H2278  H     0.41806   0.95454   0.88196   0.00000  Uiso   1.00
C2279  C     0.75399   0.83325   0.75102   0.00000  Uiso   1.00
C2280  C     0.91268   0.83334   0.74920   0.00000  Uiso   1.00
C2281  C     0.83408   0.83327   0.66481   0.00000  Uiso   1.00
C2282  C     0.83328   0.83335   0.83493   0.00000  Uiso   1.00
C2283  C     0.82044   0.69130   0.71398   0.00000  Uiso   1.00
C2284  C     0.84634   0.97538   0.78601   0.00000  Uiso   1.00
C2285  C     0.84595   0.69161   0.78617   0.00000  Uiso   1.00
C2286  C     0.81964   0.97506   0.71432   0.00000  Uiso   1.00
C2287  C     0.68763   0.79037   0.75017   0.00000  Uiso   1.00
C2288  C     0.97947   0.87542   0.74489   0.00000  Uiso   1.00
C2289  C     0.97860   0.79055   0.75393   0.00000  Uiso   1.00
C2290  C     0.68767   0.87571   0.75354   0.00000  Uiso   1.00
C2291  C     0.84996   0.87512   0.54751   0.00000  Uiso   1.00
C2292  C     0.86710   0.80488   0.94914   0.00000  Uiso   1.00
C2293  C     0.81360   0.86445   0.95402   0.00000  Uiso   1.00
C2294  C     0.83521   0.79090   0.54645   0.00000  Uiso   1.00
C2295  C     0.84481   0.87506   0.59355   0.00000  Uiso   1.00
C2296  C     0.86188   0.80250   0.90346   0.00000  Uiso   1.00
C2297  C     0.81192   0.86470   0.90791   0.00000  Uiso   1.00
C2298  C     0.83364   0.79102   0.59267   0.00000  Uiso   1.00
C2299  C     0.83711   0.83315   0.61633   0.00000  Uiso   1.00
C2300  C     0.83534   0.83326   0.88286   0.00000  Uiso   1.00
C2301  C     0.84340   0.83332   0.52361   0.00000  Uiso   1.00
C2302  C     0.84184   0.83469   0.97496   0.00000  Uiso   1.00
C2303  C     0.95732   0.83311   0.74919   0.00000  Uiso   1.00
C2304  C     0.70934   0.83305   0.75213   0.00000  Uiso   1.00
Cu2305 Cu    0.83333   0.88022   0.75000   0.00000  Uiso   1.00
Cu2306 Cu    0.83333   0.78645   0.75000   0.00000  Uiso   1.00
N2307  N     0.83333   0.95069   0.75000   0.00000  Uiso   1.00
N2308  N     0.83333   0.71598   0.75000   0.00000  Uiso   1.00
O2309  O     0.77321   0.87291   0.74999   0.00000  Uiso   1.00
O2310  O     0.89345   0.79375   0.75000   0.00000  Uiso   1.00
O2311  O     0.89345   0.87291   0.75000   0.00000  Uiso   1.00
O2312  O     0.77321   0.79375   0.74999   0.00000  Uiso   1.00
O2313  O     0.83333   0.87293   0.68573   0.00000  Uiso   1.00
O2314  O     0.83334   0.79374   0.81427   0.00000  Uiso   1.00
O2315  O     0.83334   0.87293   0.81427   0.00000  Uiso   1.00
O2316  O     0.83333   0.79374   0.68573   0.00000  Uiso   1.00
H2317  H     0.80994   0.70967   0.68510   0.00000  Uiso   1.00
H2318  H     0.85726   0.95706   0.81475   0.00000  Uiso   1.00
H2319  H     0.85649   0.71020   0.81507   0.00000  Uiso   1.00
H2320  H     0.80850   0.95647   0.68568   0.00000  Uiso   1.00
O2321  O     0.85744   0.91687   0.52538   0.00000  Uiso   1.00
C2322  C     0.89812   0.93096   0.53205   0.00000  Uiso   1.00
H2323  H     0.91962   0.90338   0.51999   0.00000  Uiso   1.00
H2324  H     0.90349   0.93812   0.56781   0.00000  Uiso   1.00
C2325  C     0.90636   0.97606   0.50601   0.00000  Uiso   1.00
H2326  H     0.90013   0.97000   0.97030   0.00000  Uiso   1.00
H2327  H     0.88561   0.67070   0.51855   0.00000  Uiso   1.00
C2328  C     0.95034   0.99251   0.51061   0.00000  Uiso   1.00
H2329  H     0.95769   0.99766   0.54613   0.00000  Uiso   1.00
H2330  H     0.95471   0.69305   0.99313   0.00000  Uiso   1.00
H2331  H     0.97150   0.96641   0.99552   0.00000  Uiso   1.00
O2332  O     0.89588   0.77666   0.96861   0.00000  Uiso   1.00
C2333  C     0.93425   0.79959   0.96770   0.00000  Uiso   1.00
H2334  H     0.95000   0.79003   0.99868   0.00000  Uiso   1.00
H2335  H     0.93212   0.83868   0.96770   0.00000  Uiso   1.00
C2336  C     0.96023   0.78289   0.92783   0.00000  Uiso   1.00
H2337  H     0.96098   0.74396   0.92711   0.00000  Uiso   1.00
H2338  H     0.94685   0.79534   0.89650   0.00000  Uiso   1.00
C2339  C     0.67034   0.80168   0.92985   0.00000  Uiso   1.00
H2340  H     0.67029   0.84063   0.92919   0.00000  Uiso   1.00
H2341  H     0.68827   0.78871   0.90071   0.00000  Uiso   1.00
H2342  H     0.68513   0.78951   0.96054   0.00000  Uiso   1.00
O2343  O     0.79003   0.89642   0.97770   0.00000  Uiso   1.00
C2344  C     0.75464   0.87389   0.99447   0.00000  Uiso   1.00
H2345  H     0.76264   0.84893   0.52110   0.00000  Uiso   1.00
H2346  H     0.73837   0.85500   0.96763   0.00000  Uiso   1.00
C2347  C     0.72612   0.91064   0.51486   0.00000  Uiso   1.00
H2348  H     0.74282   0.93145   0.53997   0.00000  Uiso   1.00
H2349  H     0.71586   0.93473   0.98844   0.00000  Uiso   1.00
C2350  C     0.68896   0.88792   0.53735   0.00000  Uiso   1.00
H2351  H     0.67047   0.86897   0.51253   0.00000  Uiso   1.00
H2352  H     0.66981   0.91539   0.55340   0.00000  Uiso   1.00
H2353  H     0.69855   0.86296   0.56336   0.00000  Uiso   1.00
O2354  O     0.83208   0.74840   0.52429   0.00000  Uiso   1.00
C2355  C     0.79207   0.74164   0.50882   0.00000  Uiso   1.00
H2356  H     0.79434   0.71990   0.97820   0.00000  Uiso   1.00
H2357  H     0.77691   0.77467   0.99894   0.00000  Uiso   1.00
C2358  C     0.76585   0.71514   0.54318   0.00000  Uiso   1.00
H2359  H     0.78031   0.68091   0.55049   0.00000  Uiso   1.00
H2360  H     0.76358   0.73576   0.57445   0.00000  Uiso   1.00
C2361  C     0.72294   0.70661   0.52631   0.00000  Uiso   1.00
H2362  H     0.70680   0.74048   0.52266   0.00000  Uiso   1.00
H2363  H     0.70556   0.68458   0.55042   0.00000  Uiso   1.00
H2364  H     0.72405   0.68823   0.99375   0.00000  Uiso   1.00
H2365  H     0.84696   0.90797   0.61127   0.00000  Uiso   1.00
H2366  H     0.87961   0.77778   0.88383   0.00000  Uiso   1.00
H2367  H     0.79146   0.88849   0.89169   0.00000  Uiso   1.00
H2368  H     0.82877   0.75813   0.60992   0.00000  Uiso   1.00
O2369  O     0.70727   0.74762   0.74782   0.00000  Uiso   1.00
C2370  C     0.70858   0.73236   0.70307   0.00000  Uiso   1.00
H2371  H     0.73354   0.75104   0.68484   0.00000  Uiso   1.00
H2372  H     0.67940   0.73860   0.68566   0.00000  Uiso   1.00
C2373  C     0.71670   0.67976   0.70210   0.00000  Uiso   1.00
H2374  H     0.74282   0.67175   0.72320   0.00000  Uiso   1.00
H2375  H     0.69017   0.99439   0.71690   0.00000  Uiso   1.00
C2376  C     0.72529   0.99521   0.65501   0.00000  Uiso   1.00
H2377  H     0.75330   0.67850   0.64103   0.00000  Uiso   1.00
H2378  H     0.69947   0.66989   0.63311   0.00000  Uiso   1.00
H2379  H     0.72981   0.95665   0.65564   0.00000  Uiso   1.00
O2380  O     0.96177   0.91601   0.72920   0.00000  Uiso   1.00
C2381  C     0.96559   0.91495   0.68217   0.00000  Uiso   1.00
H2382  H     0.94692   0.88585   0.66828   0.00000  Uiso   1.00
H2383  H     0.99789   0.90963   0.67123   0.00000  Uiso   1.00
C2384  C     0.95169   0.96111   0.66168   0.00000  Uiso   1.00
H2385  H     0.97017   0.99081   0.67365   0.00000  Uiso   1.00
H2386  H     0.95586   0.95890   0.62504   0.00000  Uiso   1.00
C2387  C     0.90747   0.97159   0.67266   0.00000  Uiso   1.00
H2388  H     0.88814   0.94107   0.66429   0.00000  Uiso   1.00
H2389  H     0.89742   0.66916   0.65343   0.00000  Uiso   1.00
H2390  H     0.90417   0.97967   0.70854   0.00000  Uiso   1.00
O2391  O     0.95857   0.74792   0.75709   0.00000  Uiso   1.00
C2392  C     0.95706   0.73374   0.80204   0.00000  Uiso   1.00
H2393  H     0.93102   0.75137   0.81924   0.00000  Uiso   1.00
H2394  H     0.98553   0.74223   0.82016   0.00000  Uiso   1.00
C2395  C     0.95100   0.68067   0.80375   0.00000  Uiso   1.00
H2396  H     0.92568   0.67035   0.78213   0.00000  Uiso   1.00
H2397  H     0.97866   0.99651   0.79036   0.00000  Uiso   1.00
C2398  C     0.94204   0.99711   0.85098   0.00000  Uiso   1.00
H2399  H     0.96728   0.67363   0.87312   0.00000  Uiso   1.00
H2400  H     0.93863   0.95835   0.85103   0.00000  Uiso   1.00
H2401  H     0.91335   0.67955   0.86408   0.00000  Uiso   1.00
O2402  O     0.70696   0.91824   0.76036   0.00000  Uiso   1.00
C2403  C     0.70889   0.92594   0.80675   0.00000  Uiso   1.00
H2404  H     0.72582   0.89715   0.82315   0.00000  Uiso   1.00
H2405  H     0.67768   0.92793   0.82178   0.00000  Uiso   1.00
C2406  C     0.73121   0.97211   0.81564   0.00000  Uiso   1.00
H2407  H     0.76236   0.97023   0.80097   0.00000  Uiso   1.00
H2408  H     0.71508   0.66816   0.79973   0.00000  Uiso   1.00
C2409  C     0.73404   0.98240   0.86523   0.00000  Uiso   1.00
H2410  H     0.70322   0.98463   0.88076   0.00000  Uiso   1.00
H2411  H     0.74995   0.68306   0.87019   0.00000  Uiso   1.00
H2412  H     0.75140   0.95454   0.88196   0.00000  Uiso   1.00
loop_
_geom_bond_atom_site_label_1
_geom_bond_atom_site_label_2
_geom_bond_distance
_geom_bond_site_symmetry_2
_ccdc_geom_bond_type
C1     O31     1.293   .     A
C1     O34     1.293   .     A
C1     C26     1.467   .     S
C2     O32     1.292   .     A
C2     C25     1.466   .     S
C2     O33     1.295   .     A
C3     O38     1.293   .     A
C3     O35     1.293   .     A
C3     C21     1.462   .     S
C4     O36     1.288   .     A
C4     C22     1.447   .     S
C4     O37     1.290   .     A
C5     N30     1.365   .     A
C5     H39     1.080   .     S
C5     C812    1.414   1_545 S
C6     H40     1.080   .     S
C6     N29     1.366   .     A
C6     C409    1.413   .     S
C7     N30     1.366   .     A
C7     H41     1.080   .     S
C7     C810    1.413   1_545 S
C8     N29     1.366   .     A
C8     H42     1.080   .     S
C8     C407    1.414   .     S
C9     O91     1.382   .     S
C9     C26     1.410   .     A
C9     C279    1.394   1_455 S
C10    C25     1.411   .     A
C10    O102    1.386   .     S
C10    C146    1.394   .     S
C11    C25     1.412   .     A
C11    O113    1.383   .     S
C11    C143    1.394   .     S
C12    C26     1.412   .     A
C12    O124    1.383   .     S
C12    C278    1.394   1_455 S
C13    C23     1.409   .     A
C13    O43     1.385   .     S
C13    C17     1.394   .     A
C14    C18     1.391   .     A
C14    C24     1.412   .     A
C14    O54     1.384   .     S
C15    C19     1.391   .     A
C15    O65     1.385   .     S
C15    C24     1.418   .     A
C16    O76     1.386   .     S
C16    C20     1.392   .     A
C16    C23     1.416   .     A
C17    H87     1.081   .     S
C17    C21     1.400   .     A
C18    H88     1.083   .     S
C18    C22     1.395   .     A
C19    C22     1.394   .     A
C19    H89     1.081   .     S
C20    H90     1.083   .     S
C20    C21     1.400   .     A
C23    C1230   1.468   1_554 S
C24    C1229   1.468   .     S
Cu27   N29     2.009   .     S
Cu27   O33     1.987   .     S
Cu27   O31     1.985   .     S
Cu27   O35     1.947   .     S
Cu27   O37     1.948   .     S
Cu27   Cu28    2.674   .     S
Cu28   O38     1.948   .     S
Cu28   O34     1.987   .     S
Cu28   O32     1.985   .     S
Cu28   N30     2.009   .     S
Cu28   O36     1.947   .     S
O43    C44     1.412   .     S
C44    C47     1.529   .     S
C44    H46     1.113   .     S
C44    H45     1.114   .     S
C47    C50     1.526   .     S
C47    H1254   1.112   1_554 S
C47    H451    1.112   .     S
H48    C1253   1.112   .     S
H49    C851    1.112   1_545 S
C50    H51     1.111   .     S
C50    H1660   1.109   1_554 S
C50    H1259   1.110   1_554 S
H52    C2060   1.109   1_545 S
H53    C1256   1.110   .     S
O54    C55     1.418   .     S
C55    H56     1.111   .     S
C55    H57     1.117   .     S
C55    C58     1.535   .     S
C58    H60     1.109   .     S
C58    H59     1.111   .     S
C58    C195    1.525   .     S
C61    H62     1.111   .     S
C61    H64     1.110   .     S
C61    H63     1.111   .     S
C61    C326    1.525   1_455 S
O65    C66     1.412   .     S
C66    H68     1.114   .     S
C66    H1273   1.110   .     S
C66    C1275   1.528   .     S
H67    C1272   1.110   1_554 S
C69    C72     1.527   .     S
C69    H70     1.112   .     S
C69    C1272   1.528   1_554 S
C69    H1277   1.111   1_554 S
H71    C1275   1.111   .     S
C72    H75     1.111   .     S
C72    H73     1.110   .     S
C72    H74     1.110   .     S
O76    C77     1.415   .     S
C77    C80     1.532   .     S
C77    H1284   1.111   1_554 S
C77    H1285   1.111   1_554 S
H78    C1283   1.111   .     S
H79    C1283   1.111   .     S
C80    H82     1.110   .     S
C80    C83     1.526   .     S
C80    H81     1.112   .     S
C83    H84     1.110   .     S
C83    H85     1.110   .     S
C83    H1292   1.111   1_554 S
H86    C1289   1.111   .     S
O91    C92     1.415   .     S
C92    C95     1.525   .     S
C92    H94     1.117   .     S
C92    H93     1.113   .     S
C95    H96     1.103   .     S
C95    H901    1.107   1_545 S
C95    C902    1.527   1_545 S
H97    C497    1.107   .     S
C98    H101    1.110   .     S
C98    C497    1.527   .     S
C98    H501    1.110   .     S
C98    H502    1.109   .     S
H99    C902    1.110   1_545 S
H100   C902    1.109   1_545 S
O102   C103    1.420   .     S
C103   H104    1.115   .     S
C103   H105    1.116   .     S
C103   C106    1.531   .     S
C106   H107    1.104   .     S
C106   H108    1.111   .     S
C106   C109    1.514   .     S
C109   H112    1.108   .     S
C109   H110    1.107   .     S
C109   H513    1.111   .     S
H111   C913    1.111   1_545 S
O113   C114    1.414   .     S
C114   H115    1.113   .     S
C114   H116    1.117   .     S
C114   C117    1.526   .     S
C117   H118    1.105   .     S
C117   H923    1.107   1_545 S
C117   C924    1.526   1_545 S
H119   C519    1.107   .     S
C120   H122    1.110   .     S
C120   C519    1.526   .     S
C120   H523    1.109   .     S
C120   H525    1.111   .     S
H121   C924    1.109   1_545 S
H123   C924    1.111   1_545 S
O124   C125    1.416   .     S
C125   C128    1.530   .     S
C125   H126    1.115   .     S
C125   H127    1.114   .     S
C128   H129    1.108   .     S
C128   C131    1.526   .     S
C128   H532    1.108   .     S
H130   C932    1.108   1_545 S
C131   H134    1.108   .     S
C131   H132    1.109   .     S
C131   H535    1.111   .     S
H133   C935    1.111   1_545 S
C135   O165    1.293   .     A
C135   O168    1.293   .     A
C135   C160    1.467   .     S
C136   O166    1.292   .     A
C136   C159    1.466   .     S
C136   O167    1.295   .     A
C137   O172    1.293   .     A
C137   O169    1.293   .     A
C137   C155    1.462   .     S
C138   O170    1.288   .     A
C138   C156    1.447   .     S
C138   O171    1.290   .     A
C139   N164    1.365   .     A
C139   H173    1.080   .     S
C139   C946    1.414   1_545 S
C140   H174    1.080   .     S
C140   N163    1.366   .     A
C140   C543    1.413   .     S
C141   N164    1.366   .     A
C141   H175    1.080   .     S
C141   C944    1.413   1_545 S
C142   N163    1.366   .     A
C142   H176    1.080   .     S
C142   C541    1.414   .     S
C143   O225    1.382   .     S
C143   C160    1.410   .     A
C144   C159    1.411   .     A
C144   O236    1.386   .     S
C144   C280    1.394   .     S
C145   C159    1.412   .     A
C145   O247    1.383   .     S
C145   C277    1.394   .     S
C146   C160    1.412   .     A
C146   O258    1.383   .     S
C147   C157    1.409   .     A
C147   O177    1.385   .     S
C147   C151    1.394   .     A
C148   C152    1.391   .     A
C148   C158    1.412   .     A
C148   O188    1.384   .     S
C149   C153    1.391   .     A
C149   O199    1.385   .     S
C149   C158    1.418   .     A
C150   O210    1.386   .     S
C150   C154    1.392   .     A
C150   C157    1.416   .     A
C151   H221    1.081   .     S
C151   C155    1.400   .     A
C152   H222    1.083   .     S
C152   C156    1.395   .     A
C153   C156    1.394   .     A
C153   H223    1.081   .     S
C154   H224    1.083   .     S
C154   C155    1.400   .     A
C157   C1364   1.468   1_554 S
C158   C1363   1.468   .     S
Cu161  N163    2.009   .     S
Cu161  O167    1.987   .     S
Cu161  O165    1.985   .     S
Cu161  O169    1.947   .     S
Cu161  O171    1.948   .     S
Cu161  Cu162   2.674   .     S
Cu162  O172    1.948   .     S
Cu162  O168    1.987   .     S
Cu162  O166    1.985   .     S
Cu162  N164    2.009   .     S
Cu162  O170    1.947   .     S
O177   C178    1.412   .     S
C178   C181    1.529   .     S
C178   H180    1.113   .     S
C178   H179    1.114   .     S
C181   C184    1.526   .     S
C181   H1388   1.112   1_554 S
C181   H585    1.112   .     S
H182   C1387   1.112   .     S
H183   C985    1.112   1_545 S
C184   H185    1.111   .     S
C184   H1794   1.109   1_554 S
C184   H1393   1.110   1_554 S
H186   C2194   1.109   1_545 S
H187   C1390   1.110   .     S
O188   C189    1.418   .     S
C189   H190    1.111   .     S
C189   H191    1.117   .     S
C189   C192    1.535   .     S
C192   H194    1.109   .     S
C192   H193    1.111   .     S
C192   C329    1.525   .     S
C195   H196    1.111   .     S
C195   H198    1.110   .     S
C195   H197    1.111   .     S
O199   C200    1.412   .     S
C200   H202    1.114   .     S
C200   H1407   1.110   .     S
C200   C1409   1.528   .     S
H201   C1406   1.110   1_554 S
C203   C206    1.527   .     S
C203   H204    1.112   .     S
C203   C1406   1.528   1_554 S
C203   H1411   1.111   1_554 S
H205   C1409   1.111   .     S
C206   H209    1.111   .     S
C206   H207    1.110   .     S
C206   H208    1.110   .     S
O210   C211    1.415   .     S
C211   C214    1.532   .     S
C211   H1418   1.111   1_554 S
C211   H1419   1.111   1_554 S
H212   C1417   1.111   .     S
H213   C1417   1.111   .     S
C214   H216    1.110   .     S
C214   C217    1.526   .     S
C214   H215    1.112   .     S
C217   H218    1.110   .     S
C217   H219    1.110   .     S
C217   H1426   1.111   1_554 S
H220   C1423   1.111   .     S
O225   C226    1.415   .     S
C226   C229    1.525   .     S
C226   H228    1.117   .     S
C226   H227    1.113   .     S
C229   H230    1.103   .     S
C229   H1035   1.107   1_545 S
C229   C1036   1.527   1_545 S
H231   C631    1.107   .     S
C232   H235    1.110   .     S
C232   C631    1.527   .     S
C232   H635    1.110   .     S
C232   H636    1.109   .     S
H233   C1036   1.110   1_545 S
H234   C1036   1.109   1_545 S
O236   C237    1.420   .     S
C237   H238    1.115   .     S
C237   H239    1.116   .     S
C237   C240    1.531   .     S
C240   H241    1.104   .     S
C240   H242    1.111   .     S
C240   C243    1.514   .     S
C243   H246    1.108   .     S
C243   H244    1.107   .     S
C243   H647    1.111   .     S
H245   C1047   1.111   1_545 S
O247   C248    1.414   .     S
C248   H249    1.113   .     S
C248   H250    1.117   .     S
C248   C251    1.526   .     S
C251   H252    1.105   .     S
C251   H1057   1.107   1_545 S
C251   C1058   1.526   1_545 S
H253   C653    1.107   .     S
C254   H256    1.110   .     S
C254   C653    1.526   .     S
C254   H657    1.109   .     S
C254   H659    1.111   .     S
H255   C1058   1.109   1_545 S
H257   C1058   1.111   1_545 S
O258   C259    1.416   .     S
C259   C262    1.530   .     S
C259   H260    1.115   .     S
C259   H261    1.114   .     S
C262   H263    1.108   .     S
C262   C265    1.526   .     S
C262   H666    1.108   .     S
H264   C1066   1.108   1_545 S
C265   H268    1.108   .     S
C265   H266    1.109   .     S
C265   H669    1.111   .     S
H267   C1069   1.111   1_545 S
C269   O299    1.293   .     A
C269   O302    1.293   .     A
C269   C294    1.467   .     S
C270   O300    1.292   .     A
C270   C293    1.466   .     S
C270   O301    1.295   .     A
C271   O306    1.293   .     A
C271   O303    1.293   .     A
C271   C289    1.462   .     S
C272   O304    1.288   .     A
C272   C290    1.447   .     S
C272   O305    1.290   .     A
C273   N298    1.365   .     A
C273   H307    1.080   .     S
C273   C1080   1.414   1_545 S
C274   H308    1.080   .     S
C274   N297    1.366   .     A
C274   C677    1.413   .     S
C275   N298    1.366   .     A
C275   H309    1.080   .     S
C275   C1078   1.413   1_545 S
C276   N297    1.366   .     A
C276   H310    1.080   .     S
C276   C675    1.414   .     S
C277   O359    1.382   .     S
C277   C294    1.410   .     A
C278   C293    1.411   .     A
C278   O370    1.386   .     S
C278   C12     1.394   1_655 S
C279   C293    1.412   .     A
C279   O381    1.383   .     S
C279   C9      1.394   1_655 S
C280   C294    1.412   .     A
C280   O392    1.383   .     S
C281   C291    1.409   .     A
C281   O311    1.385   .     S
C281   C285    1.394   .     A
C282   C286    1.391   .     A
C282   C292    1.412   .     A
C282   O322    1.384   .     S
C283   C287    1.391   .     A
C283   O333    1.385   .     S
C283   C292    1.418   .     A
C284   O344    1.386   .     S
C284   C288    1.392   .     A
C284   C291    1.416   .     A
C285   H355    1.081   .     S
C285   C289    1.400   .     A
C286   H356    1.083   .     S
C286   C290    1.395   .     A
C287   C290    1.394   .     A
C287   H357    1.081   .     S
C288   H358    1.083   .     S
C288   C289    1.400   .     A
C291   C1498   1.468   1_554 S
C292   C1497   1.468   .     S
Cu295  N297    2.009   .     S
Cu295  O301    1.987   .     S
Cu295  O299    1.985   .     S
Cu295  O303    1.947   .     S
Cu295  O305    1.948   .     S
Cu295  Cu296   2.674   .     S
Cu296  O306    1.948   .     S
Cu296  O302    1.987   .     S
Cu296  O300    1.985   .     S
Cu296  N298    2.009   .     S
Cu296  O304    1.947   .     S
O311   C312    1.412   .     S
C312   C315    1.529   .     S
C312   H314    1.113   .     S
C312   H313    1.114   .     S
C315   C318    1.526   .     S
C315   H1522   1.112   1_554 S
C315   H719    1.112   .     S
H316   C1521   1.112   .     S
H317   C1119   1.112   1_545 S
C318   H319    1.111   .     S
C318   H1928   1.109   1_554 S
C318   H1527   1.110   1_554 S
H320   C2328   1.109   1_545 S
H321   C1524   1.110   .     S
O322   C323    1.418   .     S
C323   H324    1.111   .     S
C323   H325    1.117   .     S
C323   C326    1.535   .     S
C326   H328    1.109   .     S
C326   H327    1.111   .     S
C326   C61     1.525   1_655 S
C329   H330    1.111   .     S
C329   H332    1.110   .     S
C329   H331    1.111   .     S
O333   C334    1.412   .     S
C334   H336    1.114   .     S
C334   H1541   1.110   .     S
C334   C1543   1.528   .     S
H335   C1540   1.110   1_554 S
C337   C340    1.527   .     S
C337   H338    1.112   .     S
C337   C1540   1.528   1_554 S
C337   H1545   1.111   1_554 S
H339   C1543   1.111   .     S
C340   H343    1.111   .     S
C340   H341    1.110   .     S
C340   H342    1.110   .     S
O344   C345    1.415   .     S
C345   C348    1.532   .     S
C345   H1552   1.111   1_554 S
C345   H1553   1.111   1_554 S
H346   C1551   1.111   .     S
H347   C1551   1.111   .     S
C348   H350    1.110   .     S
C348   C351    1.526   .     S
C348   H349    1.112   .     S
C351   H352    1.110   .     S
C351   H353    1.110   .     S
C351   H1560   1.111   1_554 S
H354   C1557   1.111   .     S
O359   C360    1.415   .     S
C360   C363    1.525   .     S
C360   H362    1.117   .     S
C360   H361    1.113   .     S
C363   H364    1.103   .     S
C363   H1169   1.107   1_545 S
C363   C1170   1.527   1_545 S
H365   C765    1.107   .     S
C366   H369    1.110   .     S
C366   C765    1.527   .     S
C366   H769    1.110   .     S
C366   H770    1.109   .     S
H367   C1170   1.110   1_545 S
H368   C1170   1.109   1_545 S
O370   C371    1.420   .     S
C371   H372    1.115   .     S
C371   H373    1.116   .     S
C371   C374    1.531   .     S
C374   H375    1.104   .     S
C374   H376    1.111   .     S
C374   C377    1.514   .     S
C377   H380    1.108   .     S
C377   H378    1.107   .     S
C377   H781    1.111   .     S
H379   C1181   1.111   1_545 S
O381   C382    1.414   .     S
C382   H383    1.113   .     S
C382   H384    1.117   .     S
C382   C385    1.526   .     S
C385   H386    1.105   .     S
C385   H1191   1.107   1_545 S
C385   C1192   1.526   1_545 S
H387   C787    1.107   .     S
C388   H390    1.110   .     S
C388   C787    1.526   .     S
C388   H791    1.109   .     S
C388   H793    1.111   .     S
H389   C1192   1.109   1_545 S
H391   C1192   1.111   1_545 S
O392   C393    1.416   .     S
C393   C396    1.530   .     S
C393   H394    1.115   .     S
C393   H395    1.114   .     S
C396   H397    1.108   .     S
C396   C399    1.526   .     S
C396   H800    1.108   .     S
H398   C1200   1.108   1_545 S
C399   H402    1.108   .     S
C399   H400    1.109   .     S
C399   H803    1.111   .     S
H401   C1203   1.111   1_545 S
C403   O433    1.293   .     A
C403   O436    1.293   .     A
C403   C428    1.467   .     S
C404   O434    1.292   .     A
C404   C427    1.466   .     S
C404   O435    1.295   .     A
C405   O440    1.293   .     A
C405   O437    1.293   .     A
C405   C423    1.462   .     S
C406   O438    1.288   .     A
C406   C424    1.447   .     S
C406   O439    1.290   .     A
C407   N432    1.365   .     A
C407   H441    1.080   .     S
C408   H442    1.080   .     S
C408   N431    1.366   .     A
C408   C811    1.413   .     S
C409   N432    1.366   .     A
C409   H443    1.080   .     S
C410   N431    1.366   .     A
C410   H444    1.080   .     S
C410   C809    1.414   .     S
C411   O493    1.382   .     S
C411   C428    1.410   .     A
C411   C681    1.394   1_455 S
C412   C427    1.411   .     A
C412   O504    1.386   .     S
C412   C548    1.394   .     S
C413   C427    1.412   .     A
C413   O515    1.383   .     S
C413   C545    1.394   .     S
C414   C428    1.412   .     A
C414   O526    1.383   .     S
C414   C680    1.394   1_455 S
C415   C425    1.409   .     A
C415   O445    1.385   .     S
C415   C419    1.394   .     A
C416   C420    1.391   .     A
C416   C426    1.412   .     A
C416   O456    1.384   .     S
C417   C421    1.391   .     A
C417   O467    1.385   .     S
C417   C426    1.418   .     A
C418   O478    1.386   .     S
C418   C422    1.392   .     A
C418   C425    1.416   .     A
C419   H489    1.081   .     S
C419   C423    1.400   .     A
C420   H490    1.083   .     S
C420   C424    1.395   .     A
C421   C424    1.394   .     A
C421   H491    1.081   .     S
C422   H492    1.083   .     S
C422   C423    1.400   .     A
C425   C1632   1.468   1_554 S
C426   C1631   1.468   .     S
Cu429  N431    2.009   .     S
Cu429  O435    1.987   .     S
Cu429  O433    1.985   .     S
Cu429  O437    1.947   .     S
Cu429  O439    1.948   .     S
Cu429  Cu430   2.674   .     S
Cu430  O440    1.948   .     S
Cu430  O436    1.987   .     S
Cu430  O434    1.985   .     S
Cu430  N432    2.009   .     S
Cu430  O438    1.947   .     S
O445   C446    1.412   .     S
C446   C449    1.529   .     S
C446   H448    1.113   .     S
C446   H447    1.114   .     S
C449   C452    1.526   .     S
C449   H1656   1.112   1_554 S
C449   H853    1.112   .     S
H450   C1655   1.112   .     S
C452   H453    1.111   .     S
C452   H2062   1.109   1_554 S
C452   H1661   1.110   1_554 S
H454   C1256   1.109   .     S
H455   C1658   1.110   .     S
O456   C457    1.418   .     S
C457   H458    1.111   .     S
C457   H459    1.117   .     S
C457   C460    1.535   .     S
C460   H462    1.109   .     S
C460   H461    1.111   .     S
C460   C597    1.525   .     S
C463   H464    1.111   .     S
C463   H466    1.110   .     S
C463   H465    1.111   .     S
C463   C728    1.525   1_455 S
O467   C468    1.412   .     S
C468   H470    1.114   .     S
C468   H1675   1.110   .     S
C468   C1677   1.528   .     S
H469   C1674   1.110   1_554 S
C471   C474    1.527   .     S
C471   H472    1.112   .     S
C471   C1674   1.528   1_554 S
C471   H1679   1.111   1_554 S
H473   C1677   1.111   .     S
C474   H477    1.111   .     S
C474   H475    1.110   .     S
C474   H476    1.110   .     S
O478   C479    1.415   .     S
C479   C482    1.532   .     S
C479   H1686   1.111   1_554 S
C479   H1687   1.111   1_554 S
H480   C1685   1.111   .     S
H481   C1685   1.111   .     S
C482   H484    1.110   .     S
C482   C485    1.526   .     S
C482   H483    1.112   .     S
C485   H486    1.110   .     S
C485   H487    1.110   .     S
C485   H1694   1.111   1_554 S
H488   C1691   1.111   .     S
O493   C494    1.415   .     S
C494   C497    1.525   .     S
C494   H496    1.117   .     S
C494   H495    1.113   .     S
C497   H498    1.103   .     S
H499   C899    1.107   .     S
C500   H503    1.110   .     S
C500   C899    1.527   .     S
C500   H903    1.110   .     S
C500   H904    1.109   .     S
O504   C505    1.420   .     S
C505   H506    1.115   .     S
C505   H507    1.116   .     S
C505   C508    1.531   .     S
C508   H509    1.104   .     S
C508   H510    1.111   .     S
C508   C511    1.514   .     S
C511   H514    1.108   .     S
C511   H512    1.107   .     S
C511   H915    1.111   .     S
O515   C516    1.414   .     S
C516   H517    1.113   .     S
C516   H518    1.117   .     S
C516   C519    1.526   .     S
C519   H520    1.105   .     S
H521   C921    1.107   .     S
C522   H524    1.110   .     S
C522   C921    1.526   .     S
C522   H925    1.109   .     S
C522   H927    1.111   .     S
O526   C527    1.416   .     S
C527   C530    1.530   .     S
C527   H528    1.115   .     S
C527   H529    1.114   .     S
C530   H531    1.108   .     S
C530   C533    1.526   .     S
C530   H934    1.108   .     S
C533   H536    1.108   .     S
C533   H534    1.109   .     S
C533   H937    1.111   .     S
C537   O567    1.293   .     A
C537   O570    1.293   .     A
C537   C562    1.467   .     S
C538   O568    1.292   .     A
C538   C561    1.466   .     S
C538   O569    1.295   .     A
C539   O574    1.293   .     A
C539   O571    1.293   .     A
C539   C557    1.462   .     S
C540   O572    1.288   .     A
C540   C558    1.447   .     S
C540   O573    1.290   .     A
C541   N566    1.365   .     A
C541   H575    1.080   .     S
C542   H576    1.080   .     S
C542   N565    1.366   .     A
C542   C945    1.413   .     S
C543   N566    1.366   .     A
C543   H577    1.080   .     S
C544   N565    1.366   .     A
C544   H578    1.080   .     S
C544   C943    1.414   .     S
C545   O627    1.382   .     S
C545   C562    1.410   .     A
C546   C561    1.411   .     A
C546   O638    1.386   .     S
C546   C682    1.394   .     S
C547   C561    1.412   .     A
C547   O649    1.383   .     S
C547   C679    1.394   .     S
C548   C562    1.412   .     A
C548   O660    1.383   .     S
C549   C559    1.409   .     A
C549   O579    1.385   .     S
C549   C553    1.394   .     A
C550   C554    1.391   .     A
C550   C560    1.412   .     A
C550   O590    1.384   .     S
C551   C555    1.391   .     A
C551   O601    1.385   .     S
C551   C560    1.418   .     A
C552   O612    1.386   .     S
C552   C556    1.392   .     A
C552   C559    1.416   .     A
C553   H623    1.081   .     S
C553   C557    1.400   .     A
C554   H624    1.083   .     S
C554   C558    1.395   .     A
C555   C558    1.394   .     A
C555   H625    1.081   .     S
C556   H626    1.083   .     S
C556   C557    1.400   .     A
C559   C1766   1.468   1_554 S
C560   C1765   1.468   .     S
Cu563  N565    2.009   .     S
Cu563  O569    1.987   .     S
Cu563  O567    1.985   .     S
Cu563  O571    1.947   .     S
Cu563  O573    1.948   .     S
Cu563  Cu564   2.674   .     S
Cu564  O574    1.948   .     S
Cu564  O570    1.987   .     S
Cu564  O568    1.985   .     S
Cu564  N566    2.009   .     S
Cu564  O572    1.947   .     S
O579   C580    1.412   .     S
C580   C583    1.529   .     S
C580   H582    1.113   .     S
C580   H581    1.114   .     S
C583   C586    1.526   .     S
C583   H1790   1.112   1_554 S
C583   H987    1.112   .     S
H584   C1789   1.112   .     S
C586   H587    1.111   .     S
C586   H2196   1.109   1_554 S
C586   H1795   1.110   1_554 S
H588   C1390   1.109   .     S
H589   C1792   1.110   .     S
O590   C591    1.418   .     S
C591   H592    1.111   .     S
C591   H593    1.117   .     S
C591   C594    1.535   .     S
C594   H596    1.109   .     S
C594   H595    1.111   .     S
C594   C731    1.525   .     S
C597   H598    1.111   .     S
C597   H600    1.110   .     S
C597   H599    1.111   .     S
O601   C602    1.412   .     S
C602   H604    1.114   .     S
C602   H1809   1.110   .     S
C602   C1811   1.528   .     S
H603   C1808   1.110   1_554 S
C605   C608    1.527   .     S
C605   H606    1.112   .     S
C605   C1808   1.528   1_554 S
C605   H1813   1.111   1_554 S
H607   C1811   1.111   .     S
C608   H611    1.111   .     S
C608   H609    1.110   .     S
C608   H610    1.110   .     S
O612   C613    1.415   .     S
C613   C616    1.532   .     S
C613   H1820   1.111   1_554 S
C613   H1821   1.111   1_554 S
H614   C1819   1.111   .     S
H615   C1819   1.111   .     S
C616   H618    1.110   .     S
C616   C619    1.526   .     S
C616   H617    1.112   .     S
C619   H620    1.110   .     S
C619   H621    1.110   .     S
C619   H1828   1.111   1_554 S
H622   C1825   1.111   .     S
O627   C628    1.415   .     S
C628   C631    1.525   .     S
C628   H630    1.117   .     S
C628   H629    1.113   .     S
C631   H632    1.103   .     S
H633   C1033   1.107   .     S
C634   H637    1.110   .     S
C634   C1033   1.527   .     S
C634   H1037   1.110   .     S
C634   H1038   1.109   .     S
O638   C639    1.420   .     S
C639   H640    1.115   .     S
C639   H641    1.116   .     S
C639   C642    1.531   .     S
C642   H643    1.104   .     S
C642   H644    1.111   .     S
C642   C645    1.514   .     S
C645   H648    1.108   .     S
C645   H646    1.107   .     S
C645   H1049   1.111   .     S
O649   C650    1.414   .     S
C650   H651    1.113   .     S
C650   H652    1.117   .     S
C650   C653    1.526   .     S
C653   H654    1.105   .     S
H655   C1055   1.107   .     S
C656   H658    1.110   .     S
C656   C1055   1.526   .     S
C656   H1059   1.109   .     S
C656   H1061   1.111   .     S
O660   C661    1.416   .     S
C661   C664    1.530   .     S
C661   H662    1.115   .     S
C661   H663    1.114   .     S
C664   H665    1.108   .     S
C664   C667    1.526   .     S
C664   H1068   1.108   .     S
C667   H670    1.108   .     S
C667   H668    1.109   .     S
C667   H1071   1.111   .     S
C671   O701    1.293   .     A
C671   O704    1.293   .     A
C671   C696    1.467   .     S
C672   O702    1.292   .     A
C672   C695    1.466   .     S
C672   O703    1.295   .     A
C673   O708    1.293   .     A
C673   O705    1.293   .     A
C673   C691    1.462   .     S
C674   O706    1.288   .     A
C674   C692    1.447   .     S
C674   O707    1.290   .     A
C675   N700    1.365   .     A
C675   H709    1.080   .     S
C676   H710    1.080   .     S
C676   N699    1.366   .     A
C676   C1079   1.413   .     S
C677   N700    1.366   .     A
C677   H711    1.080   .     S
C678   N699    1.366   .     A
C678   H712    1.080   .     S
C678   C1077   1.414   .     S
C679   O761    1.382   .     S
C679   C696    1.410   .     A
C680   C695    1.411   .     A
C680   O772    1.386   .     S
C680   C414    1.394   1_655 S
C681   C695    1.412   .     A
C681   O783    1.383   .     S
C681   C411    1.394   1_655 S
C682   C696    1.412   .     A
C682   O794    1.383   .     S
C683   C693    1.409   .     A
C683   O713    1.385   .     S
C683   C687    1.394   .     A
C684   C688    1.391   .     A
C684   C694    1.412   .     A
C684   O724    1.384   .     S
C685   C689    1.391   .     A
C685   O735    1.385   .     S
C685   C694    1.418   .     A
C686   O746    1.386   .     S
C686   C690    1.392   .     A
C686   C693    1.416   .     A
C687   H757    1.081   .     S
C687   C691    1.400   .     A
C688   H758    1.083   .     S
C688   C692    1.395   .     A
C689   C692    1.394   .     A
C689   H759    1.081   .     S
C690   H760    1.083   .     S
C690   C691    1.400   .     A
C693   C1900   1.468   1_554 S
C694   C1899   1.468   .     S
Cu697  N699    2.009   .     S
Cu697  O703    1.987   .     S
Cu697  O701    1.985   .     S
Cu697  O705    1.947   .     S
Cu697  O707    1.948   .     S
Cu697  Cu698   2.674   .     S
Cu698  O708    1.948   .     S
Cu698  O704    1.987   .     S
Cu698  O702    1.985   .     S
Cu698  N700    2.009   .     S
Cu698  O706    1.947   .     S
O713   C714    1.412   .     S
C714   C717    1.529   .     S
C714   H716    1.113   .     S
C714   H715    1.114   .     S
C717   C720    1.526   .     S
C717   H1924   1.112   1_554 S
C717   H1121   1.112   .     S
H718   C1923   1.112   .     S
C720   H721    1.111   .     S
C720   H2330   1.109   1_554 S
C720   H1929   1.110   1_554 S
H722   C1524   1.109   .     S
H723   C1926   1.110   .     S
O724   C725    1.418   .     S
C725   H726    1.111   .     S
C725   H727    1.117   .     S
C725   C728    1.535   .     S
C728   H730    1.109   .     S
C728   H729    1.111   .     S
C728   C463    1.525   1_655 S
C731   H732    1.111   .     S
C731   H734    1.110   .     S
C731   H733    1.111   .     S
O735   C736    1.412   .     S
C736   H738    1.114   .     S
C736   H1943   1.110   .     S
C736   C1945   1.528   .     S
H737   C1942   1.110   1_554 S
C739   C742    1.527   .     S
C739   H740    1.112   .     S
C739   C1942   1.528   1_554 S
C739   H1947   1.111   1_554 S
H741   C1945   1.111   .     S
C742   H745    1.111   .     S
C742   H743    1.110   .     S
C742   H744    1.110   .     S
O746   C747    1.415   .     S
C747   C750    1.532   .     S
C747   H1954   1.111   1_554 S
C747   H1955   1.111   1_554 S
H748   C1953   1.111   .     S
H749   C1953   1.111   .     S
C750   H752    1.110   .     S
C750   C753    1.526   .     S
C750   H751    1.112   .     S
C753   H754    1.110   .     S
C753   H755    1.110   .     S
C753   H1962   1.111   1_554 S
H756   C1959   1.111   .     S
O761   C762    1.415   .     S
C762   C765    1.525   .     S
C762   H764    1.117   .     S
C762   H763    1.113   .     S
C765   H766    1.103   .     S
H767   C1167   1.107   .     S
C768   H771    1.110   .     S
C768   C1167   1.527   .     S
C768   H1171   1.110   .     S
C768   H1172   1.109   .     S
O772   C773    1.420   .     S
C773   H774    1.115   .     S
C773   H775    1.116   .     S
C773   C776    1.531   .     S
C776   H777    1.104   .     S
C776   H778    1.111   .     S
C776   C779    1.514   .     S
C779   H782    1.108   .     S
C779   H780    1.107   .     S
C779   H1183   1.111   .     S
O783   C784    1.414   .     S
C784   H785    1.113   .     S
C784   H786    1.117   .     S
C784   C787    1.526   .     S
C787   H788    1.105   .     S
H789   C1189   1.107   .     S
C790   H792    1.110   .     S
C790   C1189   1.526   .     S
C790   H1193   1.109   .     S
C790   H1195   1.111   .     S
O794   C795    1.416   .     S
C795   C798    1.530   .     S
C795   H796    1.115   .     S
C795   H797    1.114   .     S
C798   H799    1.108   .     S
C798   C801    1.526   .     S
C798   H1202   1.108   .     S
C801   H804    1.108   .     S
C801   H802    1.109   .     S
C801   H1205   1.111   .     S
C805   O835    1.293   .     A
C805   O838    1.293   .     A
C805   C830    1.467   .     S
C806   O836    1.292   .     A
C806   C829    1.466   .     S
C806   O837    1.295   .     A
C807   O842    1.293   .     A
C807   O839    1.293   .     A
C807   C825    1.462   .     S
C808   O840    1.288   .     A
C808   C826    1.447   .     S
C808   O841    1.290   .     A
C809   N834    1.365   .     A
C809   H843    1.080   .     S
C810   H844    1.080   .     S
C810   N833    1.366   .     A
C810   C7      1.413   1_565 S
C811   N834    1.366   .     A
C811   H845    1.080   .     S
C812   N833    1.366   .     A
C812   H846    1.080   .     S
C812   C5      1.414   1_565 S
C813   O895    1.382   .     S
C813   C830    1.410   .     A
C813   C1083   1.394   1_455 S
C814   C829    1.411   .     A
C814   O906    1.386   .     S
C814   C950    1.394   .     S
C815   C829    1.412   .     A
C815   O917    1.383   .     S
C815   C947    1.394   .     S
C816   C830    1.412   .     A
C816   O928    1.383   .     S
C816   C1082   1.394   1_455 S
C817   C827    1.409   .     A
C817   O847    1.385   .     S
C817   C821    1.394   .     A
C818   C822    1.391   .     A
C818   C828    1.412   .     A
C818   O858    1.384   .     S
C819   C823    1.391   .     A
C819   O869    1.385   .     S
C819   C828    1.418   .     A
C820   O880    1.386   .     S
C820   C824    1.392   .     A
C820   C827    1.416   .     A
C821   H891    1.081   .     S
C821   C825    1.400   .     A
C822   H892    1.083   .     S
C822   C826    1.395   .     A
C823   C826    1.394   .     A
C823   H893    1.081   .     S
C824   H894    1.083   .     S
C824   C825    1.400   .     A
C827   C2034   1.468   1_554 S
C828   C2033   1.468   .     S
Cu831  N833    2.009   .     S
Cu831  O837    1.987   .     S
Cu831  O835    1.985   .     S
Cu831  O839    1.947   .     S
Cu831  O841    1.948   .     S
Cu831  Cu832   2.674   .     S
Cu832  O842    1.948   .     S
Cu832  O838    1.987   .     S
Cu832  O836    1.985   .     S
Cu832  N834    2.009   .     S
Cu832  O840    1.947   .     S
O847   C848    1.412   .     S
C848   C851    1.529   .     S
C848   H850    1.113   .     S
C848   H849    1.114   .     S
C851   C854    1.526   .     S
C851   H2058   1.112   1_554 S
C851   H49     1.112   1_565 S
H852   C2057   1.112   .     S
C854   H855    1.111   .     S
C854   H1258   1.109   1_564 S
C854   H2063   1.110   1_554 S
H856   C1658   1.109   .     S
H857   C2060   1.110   .     S
O858   C859    1.418   .     S
C859   H860    1.111   .     S
C859   H861    1.117   .     S
C859   C862    1.535   .     S
C862   H864    1.109   .     S
C862   H863    1.111   .     S
C862   C999    1.525   .     S
C865   H866    1.111   .     S
C865   H868    1.110   .     S
C865   H867    1.111   .     S
C865   C1130   1.525   1_455 S
O869   C870    1.412   .     S
C870   H872    1.114   .     S
C870   H2077   1.110   .     S
C870   C2079   1.528   .     S
H871   C2076   1.110   1_554 S
C873   C876    1.527   .     S
C873   H874    1.112   .     S
C873   C2076   1.528   1_554 S
C873   H2081   1.111   1_554 S
H875   C2079   1.111   .     S
C876   H879    1.111   .     S
C876   H877    1.110   .     S
C876   H878    1.110   .     S
O880   C881    1.415   .     S
C881   C884    1.532   .     S
C881   H2088   1.111   1_554 S
C881   H2089   1.111   1_554 S
H882   C2087   1.111   .     S
H883   C2087   1.111   .     S
C884   H886    1.110   .     S
C884   C887    1.526   .     S
C884   H885    1.112   .     S
C887   H888    1.110   .     S
C887   H889    1.110   .     S
C887   H2096   1.111   1_554 S
H890   C2093   1.111   .     S
O895   C896    1.415   .     S
C896   C899    1.525   .     S
C896   H898    1.117   .     S
C896   H897    1.113   .     S
C899   H900    1.103   .     S
H901   C95     1.107   1_565 S
C902   H905    1.110   .     S
C902   C95     1.527   1_565 S
C902   H99     1.110   1_565 S
C902   H100    1.109   1_565 S
O906   C907    1.420   .     S
C907   H908    1.115   .     S
C907   H909    1.116   .     S
C907   C910    1.531   .     S
C910   H911    1.104   .     S
C910   H912    1.111   .     S
C910   C913    1.514   .     S
C913   H916    1.108   .     S
C913   H914    1.107   .     S
C913   H111    1.111   1_565 S
O917   C918    1.414   .     S
C918   H919    1.113   .     S
C918   H920    1.117   .     S
C918   C921    1.526   .     S
C921   H922    1.105   .     S
H923   C117    1.107   1_565 S
C924   H926    1.110   .     S
C924   C117    1.526   1_565 S
C924   H121    1.109   1_565 S
C924   H123    1.111   1_565 S
O928   C929    1.416   .     S
C929   C932    1.530   .     S
C929   H930    1.115   .     S
C929   H931    1.114   .     S
C932   H933    1.108   .     S
C932   C935    1.526   .     S
C932   H130    1.108   1_565 S
C935   H938    1.108   .     S
C935   H936    1.109   .     S
C935   H133    1.111   1_565 S
C939   O969    1.293   .     A
C939   O972    1.293   .     A
C939   C964    1.467   .     S
C940   O970    1.292   .     A
C940   C963    1.466   .     S
C940   O971    1.295   .     A
C941   O976    1.293   .     A
C941   O973    1.293   .     A
C941   C959    1.462   .     S
C942   O974    1.288   .     A
C942   C960    1.447   .     S
C942   O975    1.290   .     A
C943   N968    1.365   .     A
C943   H977    1.080   .     S
C944   H978    1.080   .     S
C944   N967    1.366   .     A
C944   C141    1.413   1_565 S
C945   N968    1.366   .     A
C945   H979    1.080   .     S
C946   N967    1.366   .     A
C946   H980    1.080   .     S
C946   C139    1.414   1_565 S
C947   O1029   1.382   .     S
C947   C964    1.410   .     A
C948   C963    1.411   .     A
C948   O1040   1.386   .     S
C948   C1084   1.394   .     S
C949   C963    1.412   .     A
C949   O1051   1.383   .     S
C949   C1081   1.394   .     S
C950   C964    1.412   .     A
C950   O1062   1.383   .     S
C951   C961    1.409   .     A
C951   O981    1.385   .     S
C951   C955    1.394   .     A
C952   C956    1.391   .     A
C952   C962    1.412   .     A
C952   O992    1.384   .     S
C953   C957    1.391   .     A
C953   O1003   1.385   .     S
C953   C962    1.418   .     A
C954   O1014   1.386   .     S
C954   C958    1.392   .     A
C954   C961    1.416   .     A
C955   H1025   1.081   .     S
C955   C959    1.400   .     A
C956   H1026   1.083   .     S
C956   C960    1.395   .     A
C957   C960    1.394   .     A
C957   H1027   1.081   .     S
C958   H1028   1.083   .     S
C958   C959    1.400   .     A
C961   C2168   1.468   1_554 S
C962   C2167   1.468   .     S
Cu965  N967    2.009   .     S
Cu965  O971    1.987   .     S
Cu965  O969    1.985   .     S
Cu965  O973    1.947   .     S
Cu965  O975    1.948   .     S
Cu965  Cu966   2.674   .     S
Cu966  O976    1.948   .     S
Cu966  O972    1.987   .     S
Cu966  O970    1.985   .     S
Cu966  N968    2.009   .     S
Cu966  O974    1.947   .     S
O981   C982    1.412   .     S
C982   C985    1.529   .     S
C982   H984    1.113   .     S
C982   H983    1.114   .     S
C985   C988    1.526   .     S
C985   H2192   1.112   1_554 S
C985   H183    1.112   1_565 S
H986   C2191   1.112   .     S
C988   H989    1.111   .     S
C988   H1392   1.109   1_564 S
C988   H2197   1.110   1_554 S
H990   C1792   1.109   .     S
H991   C2194   1.110   .     S
O992   C993    1.418   .     S
C993   H994    1.111   .     S
C993   H995    1.117   .     S
C993   C996    1.535   .     S
C996   H998    1.109   .     S
C996   H997    1.111   .     S
C996   C1133   1.525   .     S
C999   H1000   1.111   .     S
C999   H1002   1.110   .     S
C999   H1001   1.111   .     S
O1003  C1004   1.412   .     S
C1004  H1006   1.114   .     S
C1004  H2211   1.110   .     S
C1004  C2213   1.528   .     S
H1005  C2210   1.110   1_554 S
C1007  C1010   1.527   .     S
C1007  H1008   1.112   .     S
C1007  C2210   1.528   1_554 S
C1007  H2215   1.111   1_554 S
H1009  C2213   1.111   .     S
C1010  H1013   1.111   .     S
C1010  H1011   1.110   .     S
C1010  H1012   1.110   .     S
O1014  C1015   1.415   .     S
C1015  C1018   1.532   .     S
C1015  H2222   1.111   1_554 S
C1015  H2223   1.111   1_554 S
H1016  C2221   1.111   .     S
H1017  C2221   1.111   .     S
C1018  H1020   1.110   .     S
C1018  C1021   1.526   .     S
C1018  H1019   1.112   .     S
C1021  H1022   1.110   .     S
C1021  H1023   1.110   .     S
C1021  H2230   1.111   1_554 S
H1024  C2227   1.111   .     S
O1029  C1030   1.415   .     S
C1030  C1033   1.525   .     S
C1030  H1032   1.117   .     S
C1030  H1031   1.113   .     S
C1033  H1034   1.103   .     S
H1035  C229    1.107   1_565 S
C1036  H1039   1.110   .     S
C1036  C229    1.527   1_565 S
C1036  H233    1.110   1_565 S
C1036  H234    1.109   1_565 S
O1040  C1041   1.420   .     S
C1041  H1042   1.115   .     S
C1041  H1043   1.116   .     S
C1041  C1044   1.531   .     S
C1044  H1045   1.104   .     S
C1044  H1046   1.111   .     S
C1044  C1047   1.514   .     S
C1047  H1050   1.108   .     S
C1047  H1048   1.107   .     S
C1047  H245    1.111   1_565 S
O1051  C1052   1.414   .     S
C1052  H1053   1.113   .     S
C1052  H1054   1.117   .     S
C1052  C1055   1.526   .     S
C1055  H1056   1.105   .     S
H1057  C251    1.107   1_565 S
C1058  H1060   1.110   .     S
C1058  C251    1.526   1_565 S
C1058  H255    1.109   1_565 S
C1058  H257    1.111   1_565 S
O1062  C1063   1.416   .     S
C1063  C1066   1.530   .     S
C1063  H1064   1.115   .     S
C1063  H1065   1.114   .     S
C1066  H1067   1.108   .     S
C1066  C1069   1.526   .     S
C1066  H264    1.108   1_565 S
C1069  H1072   1.108   .     S
C1069  H1070   1.109   .     S
C1069  H267    1.111   1_565 S
C1073  O1103   1.293   .     A
C1073  O1106   1.293   .     A
C1073  C1098   1.467   .     S
C1074  O1104   1.292   .     A
C1074  C1097   1.466   .     S
C1074  O1105   1.295   .     A
C1075  O1110   1.293   .     A
C1075  O1107   1.293   .     A
C1075  C1093   1.462   .     S
C1076  O1108   1.288   .     A
C1076  C1094   1.447   .     S
C1076  O1109   1.290   .     A
C1077  N1102   1.365   .     A
C1077  H1111   1.080   .     S
C1078  H1112   1.080   .     S
C1078  N1101   1.366   .     A
C1078  C275    1.413   1_565 S
C1079  N1102   1.366   .     A
C1079  H1113   1.080   .     S
C1080  N1101   1.366   .     A
C1080  H1114   1.080   .     S
C1080  C273    1.414   1_565 S
C1081  O1163   1.382   .     S
C1081  C1098   1.410   .     A
C1082  C1097   1.411   .     A
C1082  O1174   1.386   .     S
C1082  C816    1.394   1_655 S
C1083  C1097   1.412   .     A
C1083  O1185   1.383   .     S
C1083  C813    1.394   1_655 S
C1084  C1098   1.412   .     A
C1084  O1196   1.383   .     S
C1085  C1095   1.409   .     A
C1085  O1115   1.385   .     S
C1085  C1089   1.394   .     A
C1086  C1090   1.391   .     A
C1086  C1096   1.412   .     A
C1086  O1126   1.384   .     S
C1087  C1091   1.391   .     A
C1087  O1137   1.385   .     S
C1087  C1096   1.418   .     A
C1088  O1148   1.386   .     S
C1088  C1092   1.392   .     A
C1088  C1095   1.416   .     A
C1089  H1159   1.081   .     S
C1089  C1093   1.400   .     A
C1090  H1160   1.083   .     S
C1090  C1094   1.395   .     A
C1091  C1094   1.394   .     A
C1091  H1161   1.081   .     S
C1092  H1162   1.083   .     S
C1092  C1093   1.400   .     A
C1095  C2302   1.468   1_554 S
C1096  C2301   1.468   .     S
Cu1099 N1101   2.009   .     S
Cu1099 O1105   1.987   .     S
Cu1099 O1103   1.985   .     S
Cu1099 O1107   1.947   .     S
Cu1099 O1109   1.948   .     S
Cu1099 Cu1100  2.674   .     S
Cu1100 O1110   1.948   .     S
Cu1100 O1106   1.987   .     S
Cu1100 O1104   1.985   .     S
Cu1100 N1102   2.009   .     S
Cu1100 O1108   1.947   .     S
O1115  C1116   1.412   .     S
C1116  C1119   1.529   .     S
C1116  H1118   1.113   .     S
C1116  H1117   1.114   .     S
C1119  C1122   1.526   .     S
C1119  H2326   1.112   1_554 S
C1119  H317    1.112   1_565 S
H1120  C2325   1.112   .     S
C1122  H1123   1.111   .     S
C1122  H1526   1.109   1_564 S
C1122  H2331   1.110   1_554 S
H1124  C1926   1.109   .     S
H1125  C2328   1.110   .     S
O1126  C1127   1.418   .     S
C1127  H1128   1.111   .     S
C1127  H1129   1.117   .     S
C1127  C1130   1.535   .     S
C1130  H1132   1.109   .     S
C1130  H1131   1.111   .     S
C1130  C865    1.525   1_655 S
C1133  H1134   1.111   .     S
C1133  H1136   1.110   .     S
C1133  H1135   1.111   .     S
O1137  C1138   1.412   .     S
C1138  H1140   1.114   .     S
C1138  H2345   1.110   .     S
C1138  C2347   1.528   .     S
H1139  C2344   1.110   1_554 S
C1141  C1144   1.527   .     S
C1141  H1142   1.112   .     S
C1141  C2344   1.528   1_554 S
C1141  H2349   1.111   1_554 S
H1143  C2347   1.111   .     S
C1144  H1147   1.111   .     S
C1144  H1145   1.110   .     S
C1144  H1146   1.110   .     S
O1148  C1149   1.415   .     S
C1149  C1152   1.532   .     S
C1149  H2356   1.111   1_554 S
C1149  H2357   1.111   1_554 S
H1150  C2355   1.111   .     S
H1151  C2355   1.111   .     S
C1152  H1154   1.110   .     S
C1152  C1155   1.526   .     S
C1152  H1153   1.112   .     S
C1155  H1156   1.110   .     S
C1155  H1157   1.110   .     S
C1155  H2364   1.111   1_554 S
H1158  C2361   1.111   .     S
O1163  C1164   1.415   .     S
C1164  C1167   1.525   .     S
C1164  H1166   1.117   .     S
C1164  H1165   1.113   .     S
C1167  H1168   1.103   .     S
H1169  C363    1.107   1_565 S
C1170  H1173   1.110   .     S
C1170  C363    1.527   1_565 S
C1170  H367    1.110   1_565 S
C1170  H368    1.109   1_565 S
O1174  C1175   1.420   .     S
C1175  H1176   1.115   .     S
C1175  H1177   1.116   .     S
C1175  C1178   1.531   .     S
C1178  H1179   1.104   .     S
C1178  H1180   1.111   .     S
C1178  C1181   1.514   .     S
C1181  H1184   1.108   .     S
C1181  H1182   1.107   .     S
C1181  H379    1.111   1_565 S
O1185  C1186   1.414   .     S
C1186  H1187   1.113   .     S
C1186  H1188   1.117   .     S
C1186  C1189   1.526   .     S
C1189  H1190   1.105   .     S
H1191  C385    1.107   1_565 S
C1192  H1194   1.110   .     S
C1192  C385    1.526   1_565 S
C1192  H389    1.109   1_565 S
C1192  H391    1.111   1_565 S
O1196  C1197   1.416   .     S
C1197  C1200   1.530   .     S
C1197  H1198   1.115   .     S
C1197  H1199   1.114   .     S
C1200  H1201   1.108   .     S
C1200  C1203   1.526   .     S
C1200  H398    1.108   1_565 S
C1203  H1206   1.108   .     S
C1203  H1204   1.109   .     S
C1203  H401    1.111   1_565 S
C1207  O1237   1.293   .     A
C1207  O1240   1.293   .     A
C1207  C1232   1.467   .     S
C1208  O1238   1.292   .     A
C1208  C1231   1.466   .     S
C1208  O1239   1.295   .     A
C1209  O1244   1.293   .     A
C1209  O1241   1.293   .     A
C1209  C1227   1.462   .     S
C1210  O1242   1.288   .     A
C1210  C1228   1.447   .     S
C1210  O1243   1.290   .     A
C1211  N1236   1.365   .     A
C1211  H1245   1.080   .     S
C1211  C2018   1.414   1_545 S
C1212  H1246   1.080   .     S
C1212  N1235   1.366   .     A
C1212  C1615   1.413   .     S
C1213  N1236   1.366   .     A
C1213  H1247   1.080   .     S
C1213  C2016   1.413   1_545 S
C1214  N1235   1.366   .     A
C1214  H1248   1.080   .     S
C1214  C1613   1.414   .     S
C1215  O1297   1.382   .     S
C1215  C1232   1.410   .     A
C1215  C1485   1.394   1_455 S
C1216  C1231   1.411   .     A
C1216  O1308   1.386   .     S
C1216  C1352   1.394   .     S
C1217  C1231   1.412   .     A
C1217  O1319   1.383   .     S
C1217  C1349   1.394   .     S
C1218  C1232   1.412   .     A
C1218  O1330   1.383   .     S
C1218  C1484   1.394   1_455 S
C1219  C1229   1.409   .     A
C1219  O1249   1.385   .     S
C1219  C1223   1.394   .     A
C1220  C1224   1.391   .     A
C1220  C1230   1.412   .     A
C1220  O1260   1.384   .     S
C1221  C1225   1.391   .     A
C1221  O1271   1.385   .     S
C1221  C1230   1.418   .     A
C1222  O1282   1.386   .     S
C1222  C1226   1.392   .     A
C1222  C1229   1.416   .     A
C1223  H1293   1.081   .     S
C1223  C1227   1.400   .     A
C1224  H1294   1.083   .     S
C1224  C1228   1.395   .     A
C1225  C1228   1.394   .     A
C1225  H1295   1.081   .     S
C1226  H1296   1.083   .     S
C1226  C1227   1.400   .     A
C1230  C23     1.468   1_556 S
Cu1233 N1235   2.009   .     S
Cu1233 O1239   1.987   .     S
Cu1233 O1237   1.985   .     S
Cu1233 O1241   1.947   .     S
Cu1233 O1243   1.948   .     S
Cu1233 Cu1234  2.674   .     S
Cu1234 O1244   1.948   .     S
Cu1234 O1240   1.987   .     S
Cu1234 O1238   1.985   .     S
Cu1234 N1236   2.009   .     S
Cu1234 O1242   1.947   .     S
O1249  C1250   1.412   .     S
C1250  C1253   1.529   .     S
C1250  H1252   1.113   .     S
C1250  H1251   1.114   .     S
C1253  C1256   1.526   .     S
C1253  H1657   1.112   .     S
H1254  C47     1.112   1_556 S
H1255  C2057   1.112   1_545 S
C1256  H1257   1.111   .     S
H1258  C854    1.109   1_546 S
H1259  C50     1.110   1_556 S
O1260  C1261   1.418   .     S
C1261  H1262   1.111   .     S
C1261  H1263   1.117   .     S
C1261  C1264   1.535   .     S
C1264  H1266   1.109   .     S
C1264  H1265   1.111   .     S
C1264  C1401   1.525   .     S
C1267  H1268   1.111   .     S
C1267  H1270   1.110   .     S
C1267  H1269   1.111   .     S
C1267  C1532   1.525   1_455 S
O1271  C1272   1.412   .     S
C1272  H1274   1.114   .     S
C1272  H67     1.110   1_556 S
C1272  C69     1.528   1_556 S
C1275  C1278   1.527   .     S
C1275  H1276   1.112   .     S
H1277  C69     1.111   1_556 S
C1278  H1281   1.111   .     S
C1278  H1279   1.110   .     S
C1278  H1280   1.110   .     S
O1282  C1283   1.415   .     S
C1283  C1286   1.532   .     S
H1284  C77     1.111   1_556 S
H1285  C77     1.111   1_556 S
C1286  H1288   1.110   .     S
C1286  C1289   1.526   .     S
C1286  H1287   1.112   .     S
C1289  H1290   1.110   .     S
C1289  H1291   1.110   .     S
H1292  C83     1.111   1_556 S
O1297  C1298   1.415   .     S
C1298  C1301   1.525   .     S
C1298  H1300   1.117   .     S
C1298  H1299   1.113   .     S
C1301  H1302   1.103   .     S
C1301  H2107   1.107   1_545 S
C1301  C2108   1.527   1_545 S
H1303  C1703   1.107   .     S
C1304  H1307   1.110   .     S
C1304  C1703   1.527   .     S
C1304  H1707   1.110   .     S
C1304  H1708   1.109   .     S
H1305  C2108   1.110   1_545 S
H1306  C2108   1.109   1_545 S
O1308  C1309   1.420   .     S
C1309  H1310   1.115   .     S
C1309  H1311   1.116   .     S
C1309  C1312   1.531   .     S
C1312  H1313   1.104   .     S
C1312  H1314   1.111   .     S
C1312  C1315   1.514   .     S
C1315  H1318   1.108   .     S
C1315  H1316   1.107   .     S
C1315  H1719   1.111   .     S
H1317  C2119   1.111   1_545 S
O1319  C1320   1.414   .     S
C1320  H1321   1.113   .     S
C1320  H1322   1.117   .     S
C1320  C1323   1.526   .     S
C1323  H1324   1.105   .     S
C1323  H2129   1.107   1_545 S
C1323  C2130   1.526   1_545 S
H1325  C1725   1.107   .     S
C1326  H1328   1.110   .     S
C1326  C1725   1.526   .     S
C1326  H1729   1.109   .     S
C1326  H1731   1.111   .     S
H1327  C2130   1.109   1_545 S
H1329  C2130   1.111   1_545 S
O1330  C1331   1.416   .     S
C1331  C1334   1.530   .     S
C1331  H1332   1.115   .     S
C1331  H1333   1.114   .     S
C1334  H1335   1.108   .     S
C1334  C1337   1.526   .     S
C1334  H1738   1.108   .     S
H1336  C2138   1.108   1_545 S
C1337  H1340   1.108   .     S
C1337  H1338   1.109   .     S
C1337  H1741   1.111   .     S
H1339  C2141   1.111   1_545 S
C1341  O1371   1.293   .     A
C1341  O1374   1.293   .     A
C1341  C1366   1.467   .     S
C1342  O1372   1.292   .     A
C1342  C1365   1.466   .     S
C1342  O1373   1.295   .     A
C1343  O1378   1.293   .     A
C1343  O1375   1.293   .     A
C1343  C1361   1.462   .     S
C1344  O1376   1.288   .     A
C1344  C1362   1.447   .     S
C1344  O1377   1.290   .     A
C1345  N1370   1.365   .     A
C1345  H1379   1.080   .     S
C1345  C2152   1.414   1_545 S
C1346  H1380   1.080   .     S
C1346  N1369   1.366   .     A
C1346  C1749   1.413   .     S
C1347  N1370   1.366   .     A
C1347  H1381   1.080   .     S
C1347  C2150   1.413   1_545 S
C1348  N1369   1.366   .     A
C1348  H1382   1.080   .     S
C1348  C1747   1.414   .     S
C1349  O1431   1.382   .     S
C1349  C1366   1.410   .     A
C1350  C1365   1.411   .     A
C1350  O1442   1.386   .     S
C1350  C1486   1.394   .     S
C1351  C1365   1.412   .     A
C1351  O1453   1.383   .     S
C1351  C1483   1.394   .     S
C1352  C1366   1.412   .     A
C1352  O1464   1.383   .     S
C1353  C1363   1.409   .     A
C1353  O1383   1.385   .     S
C1353  C1357   1.394   .     A
C1354  C1358   1.391   .     A
C1354  C1364   1.412   .     A
C1354  O1394   1.384   .     S
C1355  C1359   1.391   .     A
C1355  O1405   1.385   .     S
C1355  C1364   1.418   .     A
C1356  O1416   1.386   .     S
C1356  C1360   1.392   .     A
C1356  C1363   1.416   .     A
C1357  H1427   1.081   .     S
C1357  C1361   1.400   .     A
C1358  H1428   1.083   .     S
C1358  C1362   1.395   .     A
C1359  C1362   1.394   .     A
C1359  H1429   1.081   .     S
C1360  H1430   1.083   .     S
C1360  C1361   1.400   .     A
C1364  C157    1.468   1_556 S
Cu1367 N1369   2.009   .     S
Cu1367 O1373   1.987   .     S
Cu1367 O1371   1.985   .     S
Cu1367 O1375   1.947   .     S
Cu1367 O1377   1.948   .     S
Cu1367 Cu1368  2.674   .     S
Cu1368 O1378   1.948   .     S
Cu1368 O1374   1.987   .     S
Cu1368 O1372   1.985   .     S
Cu1368 N1370   2.009   .     S
Cu1368 O1376   1.947   .     S
O1383  C1384   1.412   .     S
C1384  C1387   1.529   .     S
C1384  H1386   1.113   .     S
C1384  H1385   1.114   .     S
C1387  C1390   1.526   .     S
C1387  H1791   1.112   .     S
H1388  C181    1.112   1_556 S
H1389  C2191   1.112   1_545 S
C1390  H1391   1.111   .     S
H1392  C988    1.109   1_546 S
H1393  C184    1.110   1_556 S
O1394  C1395   1.418   .     S
C1395  H1396   1.111   .     S
C1395  H1397   1.117   .     S
C1395  C1398   1.535   .     S
C1398  H1400   1.109   .     S
C1398  H1399   1.111   .     S
C1398  C1535   1.525   .     S
C1401  H1402   1.111   .     S
C1401  H1404   1.110   .     S
C1401  H1403   1.111   .     S
O1405  C1406   1.412   .     S
C1406  H1408   1.114   .     S
C1406  H201    1.110   1_556 S
C1406  C203    1.528   1_556 S
C1409  C1412   1.527   .     S
C1409  H1410   1.112   .     S
H1411  C203    1.111   1_556 S
C1412  H1415   1.111   .     S
C1412  H1413   1.110   .     S
C1412  H1414   1.110   .     S
O1416  C1417   1.415   .     S
C1417  C1420   1.532   .     S
H1418  C211    1.111   1_556 S
H1419  C211    1.111   1_556 S
C1420  H1422   1.110   .     S
C1420  C1423   1.526   .     S
C1420  H1421   1.112   .     S
C1423  H1424   1.110   .     S
C1423  H1425   1.110   .     S
H1426  C217    1.111   1_556 S
O1431  C1432   1.415   .     S
C1432  C1435   1.525   .     S
C1432  H1434   1.117   .     S
C1432  H1433   1.113   .     S
C1435  H1436   1.103   .     S
C1435  H2241   1.107   1_545 S
C1435  C2242   1.527   1_545 S
H1437  C1837   1.107   .     S
C1438  H1441   1.110   .     S
C1438  C1837   1.527   .     S
C1438  H1841   1.110   .     S
C1438  H1842   1.109   .     S
H1439  C2242   1.110   1_545 S
H1440  C2242   1.109   1_545 S
O1442  C1443   1.420   .     S
C1443  H1444   1.115   .     S
C1443  H1445   1.116   .     S
C1443  C1446   1.531   .     S
C1446  H1447   1.104   .     S
C1446  H1448   1.111   .     S
C1446  C1449   1.514   .     S
C1449  H1452   1.108   .     S
C1449  H1450   1.107   .     S
C1449  H1853   1.111   .     S
H1451  C2253   1.111   1_545 S
O1453  C1454   1.414   .     S
C1454  H1455   1.113   .     S
C1454  H1456   1.117   .     S
C1454  C1457   1.526   .     S
C1457  H1458   1.105   .     S
C1457  H2263   1.107   1_545 S
C1457  C2264   1.526   1_545 S
H1459  C1859   1.107   .     S
C1460  H1462   1.110   .     S
C1460  C1859   1.526   .     S
C1460  H1863   1.109   .     S
C1460  H1865   1.111   .     S
H1461  C2264   1.109   1_545 S
H1463  C2264   1.111   1_545 S
O1464  C1465   1.416   .     S
C1465  C1468   1.530   .     S
C1465  H1466   1.115   .     S
C1465  H1467   1.114   .     S
C1468  H1469   1.108   .     S
C1468  C1471   1.526   .     S
C1468  H1872   1.108   .     S
H1470  C2272   1.108   1_545 S
C1471  H1474   1.108   .     S
C1471  H1472   1.109   .     S
C1471  H1875   1.111   .     S
H1473  C2275   1.111   1_545 S
C1475  O1505   1.293   .     A
C1475  O1508   1.293   .     A
C1475  C1500   1.467   .     S
C1476  O1506   1.292   .     A
C1476  C1499   1.466   .     S
C1476  O1507   1.295   .     A
C1477  O1512   1.293   .     A
C1477  O1509   1.293   .     A
C1477  C1495   1.462   .     S
C1478  O1510   1.288   .     A
C1478  C1496   1.447   .     S
C1478  O1511   1.290   .     A
C1479  N1504   1.365   .     A
C1479  H1513   1.080   .     S
C1479  C2286   1.414   1_545 S
C1480  H1514   1.080   .     S
C1480  N1503   1.366   .     A
C1480  C1883   1.413   .     S
C1481  N1504   1.366   .     A
C1481  H1515   1.080   .     S
C1481  C2284   1.413   1_545 S
C1482  N1503   1.366   .     A
C1482  H1516   1.080   .     S
C1482  C1881   1.414   .     S
C1483  O1565   1.382   .     S
C1483  C1500   1.410   .     A
C1484  C1499   1.411   .     A
C1484  O1576   1.386   .     S
C1484  C1218   1.394   1_655 S
C1485  C1499   1.412   .     A
C1485  O1587   1.383   .     S
C1485  C1215   1.394   1_655 S
C1486  C1500   1.412   .     A
C1486  O1598   1.383   .     S
C1487  C1497   1.409   .     A
C1487  O1517   1.385   .     S
C1487  C1491   1.394   .     A
C1488  C1492   1.391   .     A
C1488  C1498   1.412   .     A
C1488  O1528   1.384   .     S
C1489  C1493   1.391   .     A
C1489  O1539   1.385   .     S
C1489  C1498   1.418   .     A
C1490  O1550   1.386   .     S
C1490  C1494   1.392   .     A
C1490  C1497   1.416   .     A
C1491  H1561   1.081   .     S
C1491  C1495   1.400   .     A
C1492  H1562   1.083   .     S
C1492  C1496   1.395   .     A
C1493  C1496   1.394   .     A
C1493  H1563   1.081   .     S
C1494  H1564   1.083   .     S
C1494  C1495   1.400   .     A
C1498  C291    1.468   1_556 S
Cu1501 N1503   2.009   .     S
Cu1501 O1507   1.987   .     S
Cu1501 O1505   1.985   .     S
Cu1501 O1509   1.947   .     S
Cu1501 O1511   1.948   .     S
Cu1501 Cu1502  2.674   .     S
Cu1502 O1512   1.948   .     S
Cu1502 O1508   1.987   .     S
Cu1502 O1506   1.985   .     S
Cu1502 N1504   2.009   .     S
Cu1502 O1510   1.947   .     S
O1517  C1518   1.412   .     S
C1518  C1521   1.529   .     S
C1518  H1520   1.113   .     S
C1518  H1519   1.114   .     S
C1521  C1524   1.526   .     S
C1521  H1925   1.112   .     S
H1522  C315    1.112   1_556 S
H1523  C2325   1.112   1_545 S
C1524  H1525   1.111   .     S
H1526  C1122   1.109   1_546 S
H1527  C318    1.110   1_556 S
O1528  C1529   1.418   .     S
C1529  H1530   1.111   .     S
C1529  H1531   1.117   .     S
C1529  C1532   1.535   .     S
C1532  H1534   1.109   .     S
C1532  H1533   1.111   .     S
C1532  C1267   1.525   1_655 S
C1535  H1536   1.111   .     S
C1535  H1538   1.110   .     S
C1535  H1537   1.111   .     S
O1539  C1540   1.412   .     S
C1540  H1542   1.114   .     S
C1540  H335    1.110   1_556 S
C1540  C337    1.528   1_556 S
C1543  C1546   1.527   .     S
C1543  H1544   1.112   .     S
H1545  C337    1.111   1_556 S
C1546  H1549   1.111   .     S
C1546  H1547   1.110   .     S
C1546  H1548   1.110   .     S
O1550  C1551   1.415   .     S
C1551  C1554   1.532   .     S
H1552  C345    1.111   1_556 S
H1553  C345    1.111   1_556 S
C1554  H1556   1.110   .     S
C1554  C1557   1.526   .     S
C1554  H1555   1.112   .     S
C1557  H1558   1.110   .     S
C1557  H1559   1.110   .     S
H1560  C351    1.111   1_556 S
O1565  C1566   1.415   .     S
C1566  C1569   1.525   .     S
C1566  H1568   1.117   .     S
C1566  H1567   1.113   .     S
C1569  H1570   1.103   .     S
C1569  H2375   1.107   1_545 S
C1569  C2376   1.527   1_545 S
H1571  C1971   1.107   .     S
C1572  H1575   1.110   .     S
C1572  C1971   1.527   .     S
C1572  H1975   1.110   .     S
C1572  H1976   1.109   .     S
H1573  C2376   1.110   1_545 S
H1574  C2376   1.109   1_545 S
O1576  C1577   1.420   .     S
C1577  H1578   1.115   .     S
C1577  H1579   1.116   .     S
C1577  C1580   1.531   .     S
C1580  H1581   1.104   .     S
C1580  H1582   1.111   .     S
C1580  C1583   1.514   .     S
C1583  H1586   1.108   .     S
C1583  H1584   1.107   .     S
C1583  H1987   1.111   .     S
H1585  C2387   1.111   1_545 S
O1587  C1588   1.414   .     S
C1588  H1589   1.113   .     S
C1588  H1590   1.117   .     S
C1588  C1591   1.526   .     S
C1591  H1592   1.105   .     S
C1591  H2397   1.107   1_545 S
C1591  C2398   1.526   1_545 S
H1593  C1993   1.107   .     S
C1594  H1596   1.110   .     S
C1594  C1993   1.526   .     S
C1594  H1997   1.109   .     S
C1594  H1999   1.111   .     S
H1595  C2398   1.109   1_545 S
H1597  C2398   1.111   1_545 S
O1598  C1599   1.416   .     S
C1599  C1602   1.530   .     S
C1599  H1600   1.115   .     S
C1599  H1601   1.114   .     S
C1602  H1603   1.108   .     S
C1602  C1605   1.526   .     S
C1602  H2006   1.108   .     S
H1604  C2406   1.108   1_545 S
C1605  H1608   1.108   .     S
C1605  H1606   1.109   .     S
C1605  H2009   1.111   .     S
H1607  C2409   1.111   1_545 S
C1609  O1639   1.293   .     A
C1609  O1642   1.293   .     A
C1609  C1634   1.467   .     S
C1610  O1640   1.292   .     A
C1610  C1633   1.466   .     S
C1610  O1641   1.295   .     A
C1611  O1646   1.293   .     A
C1611  O1643   1.293   .     A
C1611  C1629   1.462   .     S
C1612  O1644   1.288   .     A
C1612  C1630   1.447   .     S
C1612  O1645   1.290   .     A
C1613  N1638   1.365   .     A
C1613  H1647   1.080   .     S
C1614  H1648   1.080   .     S
C1614  N1637   1.366   .     A
C1614  C2017   1.413   .     S
C1615  N1638   1.366   .     A
C1615  H1649   1.080   .     S
C1616  N1637   1.366   .     A
C1616  H1650   1.080   .     S
C1616  C2015   1.414   .     S
C1617  O1699   1.382   .     S
C1617  C1634   1.410   .     A
C1617  C1887   1.394   1_455 S
C1618  C1633   1.411   .     A
C1618  O1710   1.386   .     S
C1618  C1754   1.394   .     S
C1619  C1633   1.412   .     A
C1619  O1721   1.383   .     S
C1619  C1751   1.394   .     S
C1620  C1634   1.412   .     A
C1620  O1732   1.383   .     S
C1620  C1886   1.394   1_455 S
C1621  C1631   1.409   .     A
C1621  O1651   1.385   .     S
C1621  C1625   1.394   .     A
C1622  C1626   1.391   .     A
C1622  C1632   1.412   .     A
C1622  O1662   1.384   .     S
C1623  C1627   1.391   .     A
C1623  O1673   1.385   .     S
C1623  C1632   1.418   .     A
C1624  O1684   1.386   .     S
C1624  C1628   1.392   .     A
C1624  C1631   1.416   .     A
C1625  H1695   1.081   .     S
C1625  C1629   1.400   .     A
C1626  H1696   1.083   .     S
C1626  C1630   1.395   .     A
C1627  C1630   1.394   .     A
C1627  H1697   1.081   .     S
C1628  H1698   1.083   .     S
C1628  C1629   1.400   .     A
C1632  C425    1.468   1_556 S
Cu1635 N1637   2.009   .     S
Cu1635 O1641   1.987   .     S
Cu1635 O1639   1.985   .     S
Cu1635 O1643   1.947   .     S
Cu1635 O1645   1.948   .     S
Cu1635 Cu1636  2.674   .     S
Cu1636 O1646   1.948   .     S
Cu1636 O1642   1.987   .     S
Cu1636 O1640   1.985   .     S
Cu1636 N1638   2.009   .     S
Cu1636 O1644   1.947   .     S
O1651  C1652   1.412   .     S
C1652  C1655   1.529   .     S
C1652  H1654   1.113   .     S
C1652  H1653   1.114   .     S
C1655  C1658   1.526   .     S
C1655  H2059   1.112   .     S
H1656  C449    1.112   1_556 S
C1658  H1659   1.111   .     S
H1660  C50     1.109   1_556 S
H1661  C452    1.110   1_556 S
O1662  C1663   1.418   .     S
C1663  H1664   1.111   .     S
C1663  H1665   1.117   .     S
C1663  C1666   1.535   .     S
C1666  H1668   1.109   .     S
C1666  H1667   1.111   .     S
C1666  C1803   1.525   .     S
C1669  H1670   1.111   .     S
C1669  H1672   1.110   .     S
C1669  H1671   1.111   .     S
C1669  C1934   1.525   1_455 S
O1673  C1674   1.412   .     S
C1674  H1676   1.114   .     S
C1674  H469    1.110   1_556 S
C1674  C471    1.528   1_556 S
C1677  C1680   1.527   .     S
C1677  H1678   1.112   .     S
H1679  C471    1.111   1_556 S
C1680  H1683   1.111   .     S
C1680  H1681   1.110   .     S
C1680  H1682   1.110   .     S
O1684  C1685   1.415   .     S
C1685  C1688   1.532   .     S
H1686  C479    1.111   1_556 S
H1687  C479    1.111   1_556 S
C1688  H1690   1.110   .     S
C1688  C1691   1.526   .     S
C1688  H1689   1.112   .     S
C1691  H1692   1.110   .     S
C1691  H1693   1.110   .     S
H1694  C485    1.111   1_556 S
O1699  C1700   1.415   .     S
C1700  C1703   1.525   .     S
C1700  H1702   1.117   .     S
C1700  H1701   1.113   .     S
C1703  H1704   1.103   .     S
H1705  C2105   1.107   .     S
C1706  H1709   1.110   .     S
C1706  C2105   1.527   .     S
C1706  H2109   1.110   .     S
C1706  H2110   1.109   .     S
O1710  C1711   1.420   .     S
C1711  H1712   1.115   .     S
C1711  H1713   1.116   .     S
C1711  C1714   1.531   .     S
C1714  H1715   1.104   .     S
C1714  H1716   1.111   .     S
C1714  C1717   1.514   .     S
C1717  H1720   1.108   .     S
C1717  H1718   1.107   .     S
C1717  H2121   1.111   .     S
O1721  C1722   1.414   .     S
C1722  H1723   1.113   .     S
C1722  H1724   1.117   .     S
C1722  C1725   1.526   .     S
C1725  H1726   1.105   .     S
H1727  C2127   1.107   .     S
C1728  H1730   1.110   .     S
C1728  C2127   1.526   .     S
C1728  H2131   1.109   .     S
C1728  H2133   1.111   .     S
O1732  C1733   1.416   .     S
C1733  C1736   1.530   .     S
C1733  H1734   1.115   .     S
C1733  H1735   1.114   .     S
C1736  H1737   1.108   .     S
C1736  C1739   1.526   .     S
C1736  H2140   1.108   .     S
C1739  H1742   1.108   .     S
C1739  H1740   1.109   .     S
C1739  H2143   1.111   .     S
C1743  O1773   1.293   .     A
C1743  O1776   1.293   .     A
C1743  C1768   1.467   .     S
C1744  O1774   1.292   .     A
C1744  C1767   1.466   .     S
C1744  O1775   1.295   .     A
C1745  O1780   1.293   .     A
C1745  O1777   1.293   .     A
C1745  C1763   1.462   .     S
C1746  O1778   1.288   .     A
C1746  C1764   1.447   .     S
C1746  O1779   1.290   .     A
C1747  N1772   1.365   .     A
C1747  H1781   1.080   .     S
C1748  H1782   1.080   .     S
C1748  N1771   1.366   .     A
C1748  C2151   1.413   .     S
C1749  N1772   1.366   .     A
C1749  H1783   1.080   .     S
C1750  N1771   1.366   .     A
C1750  H1784   1.080   .     S
C1750  C2149   1.414   .     S
C1751  O1833   1.382   .     S
C1751  C1768   1.410   .     A
C1752  C1767   1.411   .     A
C1752  O1844   1.386   .     S
C1752  C1888   1.394   .     S
C1753  C1767   1.412   .     A
C1753  O1855   1.383   .     S
C1753  C1885   1.394   .     S
C1754  C1768   1.412   .     A
C1754  O1866   1.383   .     S
C1755  C1765   1.409   .     A
C1755  O1785   1.385   .     S
C1755  C1759   1.394   .     A
C1756  C1760   1.391   .     A
C1756  C1766   1.412   .     A
C1756  O1796   1.384   .     S
C1757  C1761   1.391   .     A
C1757  O1807   1.385   .     S
C1757  C1766   1.418   .     A
C1758  O1818   1.386   .     S
C1758  C1762   1.392   .     A
C1758  C1765   1.416   .     A
C1759  H1829   1.081   .     S
C1759  C1763   1.400   .     A
C1760  H1830   1.083   .     S
C1760  C1764   1.395   .     A
C1761  C1764   1.394   .     A
C1761  H1831   1.081   .     S
C1762  H1832   1.083   .     S
C1762  C1763   1.400   .     A
C1766  C559    1.468   1_556 S
Cu1769 N1771   2.009   .     S
Cu1769 O1775   1.987   .     S
Cu1769 O1773   1.985   .     S
Cu1769 O1777   1.947   .     S
Cu1769 O1779   1.948   .     S
Cu1769 Cu1770  2.674   .     S
Cu1770 O1780   1.948   .     S
Cu1770 O1776   1.987   .     S
Cu1770 O1774   1.985   .     S
Cu1770 N1772   2.009   .     S
Cu1770 O1778   1.947   .     S
O1785  C1786   1.412   .     S
C1786  C1789   1.529   .     S
C1786  H1788   1.113   .     S
C1786  H1787   1.114   .     S
C1789  C1792   1.526   .     S
C1789  H2193   1.112   .     S
H1790  C583    1.112   1_556 S
C1792  H1793   1.111   .     S
H1794  C184    1.109   1_556 S
H1795  C586    1.110   1_556 S
O1796  C1797   1.418   .     S
C1797  H1798   1.111   .     S
C1797  H1799   1.117   .     S
C1797  C1800   1.535   .     S
C1800  H1802   1.109   .     S
C1800  H1801   1.111   .     S
C1800  C1937   1.525   .     S
C1803  H1804   1.111   .     S
C1803  H1806   1.110   .     S
C1803  H1805   1.111   .     S
O1807  C1808   1.412   .     S
C1808  H1810   1.114   .     S
C1808  H603    1.110   1_556 S
C1808  C605    1.528   1_556 S
C1811  C1814   1.527   .     S
C1811  H1812   1.112   .     S
H1813  C605    1.111   1_556 S
C1814  H1817   1.111   .     S
C1814  H1815   1.110   .     S
C1814  H1816   1.110   .     S
O1818  C1819   1.415   .     S
C1819  C1822   1.532   .     S
H1820  C613    1.111   1_556 S
H1821  C613    1.111   1_556 S
C1822  H1824   1.110   .     S
C1822  C1825   1.526   .     S
C1822  H1823   1.112   .     S
C1825  H1826   1.110   .     S
C1825  H1827   1.110   .     S
H1828  C619    1.111   1_556 S
O1833  C1834   1.415   .     S
C1834  C1837   1.525   .     S
C1834  H1836   1.117   .     S
C1834  H1835   1.113   .     S
C1837  H1838   1.103   .     S
H1839  C2239   1.107   .     S
C1840  H1843   1.110   .     S
C1840  C2239   1.527   .     S
C1840  H2243   1.110   .     S
C1840  H2244   1.109   .     S
O1844  C1845   1.420   .     S
C1845  H1846   1.115   .     S
C1845  H1847   1.116   .     S
C1845  C1848   1.531   .     S
C1848  H1849   1.104   .     S
C1848  H1850   1.111   .     S
C1848  C1851   1.514   .     S
C1851  H1854   1.108   .     S
C1851  H1852   1.107   .     S
C1851  H2255   1.111   .     S
O1855  C1856   1.414   .     S
C1856  H1857   1.113   .     S
C1856  H1858   1.117   .     S
C1856  C1859   1.526   .     S
C1859  H1860   1.105   .     S
H1861  C2261   1.107   .     S
C1862  H1864   1.110   .     S
C1862  C2261   1.526   .     S
C1862  H2265   1.109   .     S
C1862  H2267   1.111   .     S
O1866  C1867   1.416   .     S
C1867  C1870   1.530   .     S
C1867  H1868   1.115   .     S
C1867  H1869   1.114   .     S
C1870  H1871   1.108   .     S
C1870  C1873   1.526   .     S
C1870  H2274   1.108   .     S
C1873  H1876   1.108   .     S
C1873  H1874   1.109   .     S
C1873  H2277   1.111   .     S
C1877  O1907   1.293   .     A
C1877  O1910   1.293   .     A
C1877  C1902   1.467   .     S
C1878  O1908   1.292   .     A
C1878  C1901   1.466   .     S
C1878  O1909   1.295   .     A
C1879  O1914   1.293   .     A
C1879  O1911   1.293   .     A
C1879  C1897   1.462   .     S
C1880  O1912   1.288   .     A
C1880  C1898   1.447   .     S
C1880  O1913   1.290   .     A
C1881  N1906   1.365   .     A
C1881  H1915   1.080   .     S
C1882  H1916   1.080   .     S
C1882  N1905   1.366   .     A
C1882  C2285   1.413   .     S
C1883  N1906   1.366   .     A
C1883  H1917   1.080   .     S
C1884  N1905   1.366   .     A
C1884  H1918   1.080   .     S
C1884  C2283   1.414   .     S
C1885  O1967   1.382   .     S
C1885  C1902   1.410   .     A
C1886  C1901   1.411   .     A
C1886  O1978   1.386   .     S
C1886  C1620   1.394   1_655 S
C1887  C1901   1.412   .     A
C1887  O1989   1.383   .     S
C1887  C1617   1.394   1_655 S
C1888  C1902   1.412   .     A
C1888  O2000   1.383   .     S
C1889  C1899   1.409   .     A
C1889  O1919   1.385   .     S
C1889  C1893   1.394   .     A
C1890  C1894   1.391   .     A
C1890  C1900   1.412   .     A
C1890  O1930   1.384   .     S
C1891  C1895   1.391   .     A
C1891  O1941   1.385   .     S
C1891  C1900   1.418   .     A
C1892  O1952   1.386   .     S
C1892  C1896   1.392   .     A
C1892  C1899   1.416   .     A
C1893  H1963   1.081   .     S
C1893  C1897   1.400   .     A
C1894  H1964   1.083   .     S
C1894  C1898   1.395   .     A
C1895  C1898   1.394   .     A
C1895  H1965   1.081   .     S
C1896  H1966   1.083   .     S
C1896  C1897   1.400   .     A
C1900  C693    1.468   1_556 S
Cu1903 N1905   2.009   .     S
Cu1903 O1909   1.987   .     S
Cu1903 O1907   1.985   .     S
Cu1903 O1911   1.947   .     S
Cu1903 O1913   1.948   .     S
Cu1903 Cu1904  2.674   .     S
Cu1904 O1914   1.948   .     S
Cu1904 O1910   1.987   .     S
Cu1904 O1908   1.985   .     S
Cu1904 N1906   2.009   .     S
Cu1904 O1912   1.947   .     S
O1919  C1920   1.412   .     S
C1920  C1923   1.529   .     S
C1920  H1922   1.113   .     S
C1920  H1921   1.114   .     S
C1923  C1926   1.526   .     S
C1923  H2327   1.112   .     S
H1924  C717    1.112   1_556 S
C1926  H1927   1.111   .     S
H1928  C318    1.109   1_556 S
H1929  C720    1.110   1_556 S
O1930  C1931   1.418   .     S
C1931  H1932   1.111   .     S
C1931  H1933   1.117   .     S
C1931  C1934   1.535   .     S
C1934  H1936   1.109   .     S
C1934  H1935   1.111   .     S
C1934  C1669   1.525   1_655 S
C1937  H1938   1.111   .     S
C1937  H1940   1.110   .     S
C1937  H1939   1.111   .     S
O1941  C1942   1.412   .     S
C1942  H1944   1.114   .     S
C1942  H737    1.110   1_556 S
C1942  C739    1.528   1_556 S
C1945  C1948   1.527   .     S
C1945  H1946   1.112   .     S
H1947  C739    1.111   1_556 S
C1948  H1951   1.111   .     S
C1948  H1949   1.110   .     S
C1948  H1950   1.110   .     S
O1952  C1953   1.415   .     S
C1953  C1956   1.532   .     S
H1954  C747    1.111   1_556 S
H1955  C747    1.111   1_556 S
C1956  H1958   1.110   .     S
C1956  C1959   1.526   .     S
C1956  H1957   1.112   .     S
C1959  H1960   1.110   .     S
C1959  H1961   1.110   .     S
H1962  C753    1.111   1_556 S
O1967  C1968   1.415   .     S
C1968  C1971   1.525   .     S
C1968  H1970   1.117   .     S
C1968  H1969   1.113   .     S
C1971  H1972   1.103   .     S
H1973  C2373   1.107   .     S
C1974  H1977   1.110   .     S
C1974  C2373   1.527   .     S
C1974  H2377   1.110   .     S
C1974  H2378   1.109   .     S
O1978  C1979   1.420   .     S
C1979  H1980   1.115   .     S
C1979  H1981   1.116   .     S
C1979  C1982   1.531   .     S
C1982  H1983   1.104   .     S
C1982  H1984   1.111   .     S
C1982  C1985   1.514   .     S
C1985  H1988   1.108   .     S
C1985  H1986   1.107   .     S
C1985  H2389   1.111   .     S
O1989  C1990   1.414   .     S
C1990  H1991   1.113   .     S
C1990  H1992   1.117   .     S
C1990  C1993   1.526   .     S
C1993  H1994   1.105   .     S
H1995  C2395   1.107   .     S
C1996  H1998   1.110   .     S
C1996  C2395   1.526   .     S
C1996  H2399   1.109   .     S
C1996  H2401   1.111   .     S
O2000  C2001   1.416   .     S
C2001  C2004   1.530   .     S
C2001  H2002   1.115   .     S
C2001  H2003   1.114   .     S
C2004  H2005   1.108   .     S
C2004  C2007   1.526   .     S
C2004  H2408   1.108   .     S
C2007  H2010   1.108   .     S
C2007  H2008   1.109   .     S
C2007  H2411   1.111   .     S
C2011  O2041   1.293   .     A
C2011  O2044   1.293   .     A
C2011  C2036   1.467   .     S
C2012  O2042   1.292   .     A
C2012  C2035   1.466   .     S
C2012  O2043   1.295   .     A
C2013  O2048   1.293   .     A
C2013  O2045   1.293   .     A
C2013  C2031   1.462   .     S
C2014  O2046   1.288   .     A
C2014  C2032   1.447   .     S
C2014  O2047   1.290   .     A
C2015  N2040   1.365   .     A
C2015  H2049   1.080   .     S
C2016  H2050   1.080   .     S
C2016  N2039   1.366   .     A
C2016  C1213   1.413   1_565 S
C2017  N2040   1.366   .     A
C2017  H2051   1.080   .     S
C2018  N2039   1.366   .     A
C2018  H2052   1.080   .     S
C2018  C1211   1.414   1_565 S
C2019  O2101   1.382   .     S
C2019  C2036   1.410   .     A
C2019  C2289   1.394   1_455 S
C2020  C2035   1.411   .     A
C2020  O2112   1.386   .     S
C2020  C2156   1.394   .     S
C2021  C2035   1.412   .     A
C2021  O2123   1.383   .     S
C2021  C2153   1.394   .     S
C2022  C2036   1.412   .     A
C2022  O2134   1.383   .     S
C2022  C2288   1.394   1_455 S
C2023  C2033   1.409   .     A
C2023  O2053   1.385   .     S
C2023  C2027   1.394   .     A
C2024  C2028   1.391   .     A
C2024  C2034   1.412   .     A
C2024  O2064   1.384   .     S
C2025  C2029   1.391   .     A
C2025  O2075   1.385   .     S
C2025  C2034   1.418   .     A
C2026  O2086   1.386   .     S
C2026  C2030   1.392   .     A
C2026  C2033   1.416   .     A
C2027  H2097   1.081   .     S
C2027  C2031   1.400   .     A
C2028  H2098   1.083   .     S
C2028  C2032   1.395   .     A
C2029  C2032   1.394   .     A
C2029  H2099   1.081   .     S
C2030  H2100   1.083   .     S
C2030  C2031   1.400   .     A
C2034  C827    1.468   1_556 S
Cu2037 N2039   2.009   .     S
Cu2037 O2043   1.987   .     S
Cu2037 O2041   1.985   .     S
Cu2037 O2045   1.947   .     S
Cu2037 O2047   1.948   .     S
Cu2037 Cu2038  2.674   .     S
Cu2038 O2048   1.948   .     S
Cu2038 O2044   1.987   .     S
Cu2038 O2042   1.985   .     S
Cu2038 N2040   2.009   .     S
Cu2038 O2046   1.947   .     S
O2053  C2054   1.412   .     S
C2054  C2057   1.529   .     S
C2054  H2056   1.113   .     S
C2054  H2055   1.114   .     S
C2057  C2060   1.526   .     S
C2057  H1255   1.112   1_565 S
H2058  C851    1.112   1_556 S
C2060  H2061   1.111   .     S
C2060  H52     1.109   1_565 S
H2062  C452    1.109   1_556 S
H2063  C854    1.110   1_556 S
O2064  C2065   1.418   .     S
C2065  H2066   1.111   .     S
C2065  H2067   1.117   .     S
C2065  C2068   1.535   .     S
C2068  H2070   1.109   .     S
C2068  H2069   1.111   .     S
C2068  C2205   1.525   .     S
C2071  H2072   1.111   .     S
C2071  H2074   1.110   .     S
C2071  H2073   1.111   .     S
C2071  C2336   1.525   1_455 S
O2075  C2076   1.412   .     S
C2076  H2078   1.114   .     S
C2076  H871    1.110   1_556 S
C2076  C873    1.528   1_556 S
C2079  C2082   1.527   .     S
C2079  H2080   1.112   .     S
H2081  C873    1.111   1_556 S
C2082  H2085   1.111   .     S
C2082  H2083   1.110   .     S
C2082  H2084   1.110   .     S
O2086  C2087   1.415   .     S
C2087  C2090   1.532   .     S
H2088  C881    1.111   1_556 S
H2089  C881    1.111   1_556 S
C2090  H2092   1.110   .     S
C2090  C2093   1.526   .     S
C2090  H2091   1.112   .     S
C2093  H2094   1.110   .     S
C2093  H2095   1.110   .     S
H2096  C887    1.111   1_556 S
O2101  C2102   1.415   .     S
C2102  C2105   1.525   .     S
C2102  H2104   1.117   .     S
C2102  H2103   1.113   .     S
C2105  H2106   1.103   .     S
H2107  C1301   1.107   1_565 S
C2108  H2111   1.110   .     S
C2108  C1301   1.527   1_565 S
C2108  H1305   1.110   1_565 S
C2108  H1306   1.109   1_565 S
O2112  C2113   1.420   .     S
C2113  H2114   1.115   .     S
C2113  H2115   1.116   .     S
C2113  C2116   1.531   .     S
C2116  H2117   1.104   .     S
C2116  H2118   1.111   .     S
C2116  C2119   1.514   .     S
C2119  H2122   1.108   .     S
C2119  H2120   1.107   .     S
C2119  H1317   1.111   1_565 S
O2123  C2124   1.414   .     S
C2124  H2125   1.113   .     S
C2124  H2126   1.117   .     S
C2124  C2127   1.526   .     S
C2127  H2128   1.105   .     S
H2129  C1323   1.107   1_565 S
C2130  H2132   1.110   .     S
C2130  C1323   1.526   1_565 S
C2130  H1327   1.109   1_565 S
C2130  H1329   1.111   1_565 S
O2134  C2135   1.416   .     S
C2135  C2138   1.530   .     S
C2135  H2136   1.115   .     S
C2135  H2137   1.114   .     S
C2138  H2139   1.108   .     S
C2138  C2141   1.526   .     S
C2138  H1336   1.108   1_565 S
C2141  H2144   1.108   .     S
C2141  H2142   1.109   .     S
C2141  H1339   1.111   1_565 S
C2145  O2175   1.293   .     A
C2145  O2178   1.293   .     A
C2145  C2170   1.467   .     S
C2146  O2176   1.292   .     A
C2146  C2169   1.466   .     S
C2146  O2177   1.295   .     A
C2147  O2182   1.293   .     A
C2147  O2179   1.293   .     A
C2147  C2165   1.462   .     S
C2148  O2180   1.288   .     A
C2148  C2166   1.447   .     S
C2148  O2181   1.290   .     A
C2149  N2174   1.365   .     A
C2149  H2183   1.080   .     S
C2150  H2184   1.080   .     S
C2150  N2173   1.366   .     A
C2150  C1347   1.413   1_565 S
C2151  N2174   1.366   .     A
C2151  H2185   1.080   .     S
C2152  N2173   1.366   .     A
C2152  H2186   1.080   .     S
C2152  C1345   1.414   1_565 S
C2153  O2235   1.382   .     S
C2153  C2170   1.410   .     A
C2154  C2169   1.411   .     A
C2154  O2246   1.386   .     S
C2154  C2290   1.394   .     S
C2155  C2169   1.412   .     A
C2155  O2257   1.383   .     S
C2155  C2287   1.394   .     S
C2156  C2170   1.412   .     A
C2156  O2268   1.383   .     S
C2157  C2167   1.409   .     A
C2157  O2187   1.385   .     S
C2157  C2161   1.394   .     A
C2158  C2162   1.391   .     A
C2158  C2168   1.412   .     A
C2158  O2198   1.384   .     S
C2159  C2163   1.391   .     A
C2159  O2209   1.385   .     S
C2159  C2168   1.418   .     A
C2160  O2220   1.386   .     S
C2160  C2164   1.392   .     A
C2160  C2167   1.416   .     A
C2161  H2231   1.081   .     S
C2161  C2165   1.400   .     A
C2162  H2232   1.083   .     S
C2162  C2166   1.395   .     A
C2163  C2166   1.394   .     A
C2163  H2233   1.081   .     S
C2164  H2234   1.083   .     S
C2164  C2165   1.400   .     A
C2168  C961    1.468   1_556 S
Cu2171 N2173   2.009   .     S
Cu2171 O2177   1.987   .     S
Cu2171 O2175   1.985   .     S
Cu2171 O2179   1.947   .     S
Cu2171 O2181   1.948   .     S
Cu2171 Cu2172  2.674   .     S
Cu2172 O2182   1.948   .     S
Cu2172 O2178   1.987   .     S
Cu2172 O2176   1.985   .     S
Cu2172 N2174   2.009   .     S
Cu2172 O2180   1.947   .     S
O2187  C2188   1.412   .     S
C2188  C2191   1.529   .     S
C2188  H2190   1.113   .     S
C2188  H2189   1.114   .     S
C2191  C2194   1.526   .     S
C2191  H1389   1.112   1_565 S
H2192  C985    1.112   1_556 S
C2194  H2195   1.111   .     S
C2194  H186    1.109   1_565 S
H2196  C586    1.109   1_556 S
H2197  C988    1.110   1_556 S
O2198  C2199   1.418   .     S
C2199  H2200   1.111   .     S
C2199  H2201   1.117   .     S
C2199  C2202   1.535   .     S
C2202  H2204   1.109   .     S
C2202  H2203   1.111   .     S
C2202  C2339   1.525   .     S
C2205  H2206   1.111   .     S
C2205  H2208   1.110   .     S
C2205  H2207   1.111   .     S
O2209  C2210   1.412   .     S
C2210  H2212   1.114   .     S
C2210  H1005   1.110   1_556 S
C2210  C1007   1.528   1_556 S
C2213  C2216   1.527   .     S
C2213  H2214   1.112   .     S
H2215  C1007   1.111   1_556 S
C2216  H2219   1.111   .     S
C2216  H2217   1.110   .     S
C2216  H2218   1.110   .     S
O2220  C2221   1.415   .     S
C2221  C2224   1.532   .     S
H2222  C1015   1.111   1_556 S
H2223  C1015   1.111   1_556 S
C2224  H2226   1.110   .     S
C2224  C2227   1.526   .     S
C2224  H2225   1.112   .     S
C2227  H2228   1.110   .     S
C2227  H2229   1.110   .     S
H2230  C1021   1.111   1_556 S
O2235  C2236   1.415   .     S
C2236  C2239   1.525   .     S
C2236  H2238   1.117   .     S
C2236  H2237   1.113   .     S
C2239  H2240   1.103   .     S
H2241  C1435   1.107   1_565 S
C2242  H2245   1.110   .     S
C2242  C1435   1.527   1_565 S
C2242  H1439   1.110   1_565 S
C2242  H1440   1.109   1_565 S
O2246  C2247   1.420   .     S
C2247  H2248   1.115   .     S
C2247  H2249   1.116   .     S
C2247  C2250   1.531   .     S
C2250  H2251   1.104   .     S
C2250  H2252   1.111   .     S
C2250  C2253   1.514   .     S
C2253  H2256   1.108   .     S
C2253  H2254   1.107   .     S
C2253  H1451   1.111   1_565 S
O2257  C2258   1.414   .     S
C2258  H2259   1.113   .     S
C2258  H2260   1.117   .     S
C2258  C2261   1.526   .     S
C2261  H2262   1.105   .     S
H2263  C1457   1.107   1_565 S
C2264  H2266   1.110   .     S
C2264  C1457   1.526   1_565 S
C2264  H1461   1.109   1_565 S
C2264  H1463   1.111   1_565 S
O2268  C2269   1.416   .     S
C2269  C2272   1.530   .     S
C2269  H2270   1.115   .     S
C2269  H2271   1.114   .     S
C2272  H2273   1.108   .     S
C2272  C2275   1.526   .     S
C2272  H1470   1.108   1_565 S
C2275  H2278   1.108   .     S
C2275  H2276   1.109   .     S
C2275  H1473   1.111   1_565 S
C2279  O2309   1.293   .     A
C2279  O2312   1.293   .     A
C2279  C2304   1.467   .     S
C2280  O2310   1.292   .     A
C2280  C2303   1.466   .     S
C2280  O2311   1.295   .     A
C2281  O2316   1.293   .     A
C2281  O2313   1.293   .     A
C2281  C2299   1.462   .     S
C2282  O2314   1.288   .     A
C2282  C2300   1.447   .     S
C2282  O2315   1.290   .     A
C2283  N2308   1.365   .     A
C2283  H2317   1.080   .     S
C2284  H2318   1.080   .     S
C2284  N2307   1.366   .     A
C2284  C1481   1.413   1_565 S
C2285  N2308   1.366   .     A
C2285  H2319   1.080   .     S
C2286  N2307   1.366   .     A
C2286  H2320   1.080   .     S
C2286  C1479   1.414   1_565 S
C2287  O2369   1.382   .     S
C2287  C2304   1.410   .     A
C2288  C2303   1.411   .     A
C2288  O2380   1.386   .     S
C2288  C2022   1.394   1_655 S
C2289  C2303   1.412   .     A
C2289  O2391   1.383   .     S
C2289  C2019   1.394   1_655 S
C2290  C2304   1.412   .     A
C2290  O2402   1.383   .     S
C2291  C2301   1.409   .     A
C2291  O2321   1.385   .     S
C2291  C2295   1.394   .     A
C2292  C2296   1.391   .     A
C2292  C2302   1.412   .     A
C2292  O2332   1.384   .     S
C2293  C2297   1.391   .     A
C2293  O2343   1.385   .     S
C2293  C2302   1.418   .     A
C2294  O2354   1.386   .     S
C2294  C2298   1.392   .     A
C2294  C2301   1.416   .     A
C2295  H2365   1.081   .     S
C2295  C2299   1.400   .     A
C2296  H2366   1.083   .     S
C2296  C2300   1.395   .     A
C2297  C2300   1.394   .     A
C2297  H2367   1.081   .     S
C2298  H2368   1.083   .     S
C2298  C2299   1.400   .     A
C2302  C1095   1.468   1_556 S
Cu2305 N2307   2.009   .     S
Cu2305 O2311   1.987   .     S
Cu2305 O2309   1.985   .     S
Cu2305 O2313   1.947   .     S
Cu2305 O2315   1.948   .     S
Cu2305 Cu2306  2.674   .     S
Cu2306 O2316   1.948   .     S
Cu2306 O2312   1.987   .     S
Cu2306 O2310   1.985   .     S
Cu2306 N2308   2.009   .     S
Cu2306 O2314   1.947   .     S
O2321  C2322   1.412   .     S
C2322  C2325   1.529   .     S
C2322  H2324   1.113   .     S
C2322  H2323   1.114   .     S
C2325  C2328   1.526   .     S
C2325  H1523   1.112   1_565 S
H2326  C1119   1.112   1_556 S
C2328  H2329   1.111   .     S
C2328  H320    1.109   1_565 S
H2330  C720    1.109   1_556 S
H2331  C1122   1.110   1_556 S
O2332  C2333   1.418   .     S
C2333  H2334   1.111   .     S
C2333  H2335   1.117   .     S
C2333  C2336   1.535   .     S
C2336  H2338   1.109   .     S
C2336  H2337   1.111   .     S
C2336  C2071   1.525   1_655 S
C2339  H2340   1.111   .     S
C2339  H2342   1.110   .     S
C2339  H2341   1.111   .     S
O2343  C2344   1.412   .     S
C2344  H2346   1.114   .     S
C2344  H1139   1.110   1_556 S
C2344  C1141   1.528   1_556 S
C2347  C2350   1.527   .     S
C2347  H2348   1.112   .     S
H2349  C1141   1.111   1_556 S
C2350  H2353   1.111   .     S
C2350  H2351   1.110   .     S
C2350  H2352   1.110   .     S
O2354  C2355   1.415   .     S
C2355  C2358   1.532   .     S
H2356  C1149   1.111   1_556 S
H2357  C1149   1.111   1_556 S
C2358  H2360   1.110   .     S
C2358  C2361   1.526   .     S
C2358  H2359   1.112   .     S
C2361  H2362   1.110   .     S
C2361  H2363   1.110   .     S
H2364  C1155   1.111   1_556 S
O2369  C2370   1.415   .     S
C2370  C2373   1.525   .     S
C2370  H2372   1.117   .     S
C2370  H2371   1.113   .     S
C2373  H2374   1.103   .     S
H2375  C1569   1.107   1_565 S
C2376  H2379   1.110   .     S
C2376  C1569   1.527   1_565 S
C2376  H1573   1.110   1_565 S
C2376  H1574   1.109   1_565 S
O2380  C2381   1.420   .     S
C2381  H2382   1.115   .     S
C2381  H2383   1.116   .     S
C2381  C2384   1.531   .     S
C2384  H2385   1.104   .     S
C2384  H2386   1.111   .     S
C2384  C2387   1.514   .     S
C2387  H2390   1.108   .     S
C2387  H2388   1.107   .     S
C2387  H1585   1.111   1_565 S
O2391  C2392   1.414   .     S
C2392  H2393   1.113   .     S
C2392  H2394   1.117   .     S
C2392  C2395   1.526   .     S
C2395  H2396   1.105   .     S
H2397  C1591   1.107   1_565 S
C2398  H2400   1.110   .     S
C2398  C1591   1.526   1_565 S
C2398  H1595   1.109   1_565 S
C2398  H1597   1.111   1_565 S
O2402  C2403   1.416   .     S
C2403  C2406   1.530   .     S
C2403  H2404   1.115   .     S
C2403  H2405   1.114   .     S
C2406  H2407   1.108   .     S
C2406  C2409   1.526   .     S
C2406  H1604   1.108   1_565 S
C2409  H2412   1.108   .     S
C2409  H2410   1.109   .     S
C2409  H1607   1.111   1_565 S
