data_str_m2_o2_o10_pcu_sym.194
_audit_creation_date              2020-01-03
_audit_creation_method            'Materials Studio'
_symmetry_space_group_name_H-M    'P1'
_symmetry_Int_Tables_number       1
_symmetry_cell_setting            triclinic
loop_
_symmetry_equiv_pos_as_xyz
  x,y,z
_cell_length_a                    26.1416
_cell_length_b                    30.2994
_cell_length_c                    27.9982
_cell_angle_alpha                 89.9853
_cell_angle_beta                  98.1078
_cell_angle_gamma                 92.2481
loop_
_atom_site_label
_atom_site_type_symbol
_atom_site_fract_x
_atom_site_fract_y
_atom_site_fract_z
_atom_site_U_iso_or_equiv
_atom_site_adp_type
_atom_site_occupancy
C1     C     0.17056   0.16506   0.25047   0.00000  Uiso   1.00
C2     C     0.16607   0.33476   0.24991   0.00000  Uiso   1.00
C3     C     0.21206   0.26134   0.05949   0.00000  Uiso   1.00
C4     C     0.15226   0.21151   0.44456   0.00000  Uiso   1.00
C5     C     0.20899   0.26634   0.10953   0.00000  Uiso   1.00
C6     C     0.14649   0.21423   0.39337   0.00000  Uiso   1.00
C7     C     0.12489   0.23227   0.09839   0.00000  Uiso   1.00
C8     C     0.18826   0.28534   0.39892   0.00000  Uiso   1.00
C9     C     0.12255   0.23570   0.04734   0.00000  Uiso   1.00
C10    C     0.18445   0.28738   0.44916   0.00000  Uiso   1.00
C11    C     0.16748   0.24870   0.02735   0.00000  Uiso   1.00
C12    C     0.16813   0.24930   0.47293   0.00000  Uiso   1.00
C13    C     0.06798   0.24971   0.23759   0.00000  Uiso   1.00
C14    C     0.26536   0.25010   0.26244   0.00000  Uiso   1.00
C15    C     0.01260   0.24972   0.23091   0.00000  Uiso   1.00
C16    C     0.32076   0.25003   0.26925   0.00000  Uiso   1.00
C17    C     0.17094   0.04645   0.29306   0.00000  Uiso   1.00
C18    C     0.20576   0.45227   0.22830   0.00000  Uiso   1.00
C19    C     0.17551   0.09226   0.29452   0.00000  Uiso   1.00
C20    C     0.20442   0.40610   0.22823   0.00000  Uiso   1.00
C21    C     0.17712   0.11650   0.25113   0.00000  Uiso   1.00
C22    C     0.16587   0.38289   0.24963   0.00000  Uiso   1.00
C23    C     0.18200   0.09277   0.20808   0.00000  Uiso   1.00
C24    C     0.12894   0.40597   0.27142   0.00000  Uiso   1.00
C25    C     0.17781   0.04671   0.20796   0.00000  Uiso   1.00
C26    C     0.13188   0.45211   0.27172   0.00000  Uiso   1.00
C27    C     0.17175   0.02358   0.25004   0.00000  Uiso   1.00
C28    C     0.16963   0.47520   0.24986   0.00000  Uiso   1.00
Cu29   Cu    0.16667   0.25000   0.29822   0.00000  Uiso   1.00
Cu30   Cu    0.16667   0.25001   0.20179   0.00000  Uiso   1.00
H31    H     0.32580   0.24959   0.19426   0.00000  Uiso   1.00
H32    H     0.00754   0.25021   0.30599   0.00000  Uiso   1.00
H33    H     0.16901   0.02851   0.32631   0.00000  Uiso   1.00
H34    H     0.23565   0.47039   0.21240   0.00000  Uiso   1.00
H35    H     0.18035   0.02861   0.17501   0.00000  Uiso   1.00
H36    H     0.10361   0.47034   0.28766   0.00000  Uiso   1.00
N37    N     0.16667   0.25001   0.12935   0.00000  Uiso   1.00
N38    N     0.16667   0.24999   0.37066   0.00000  Uiso   1.00
O39    O     0.16667   0.18573   0.29072   0.00000  Uiso   1.00
O40    O     0.16666   0.31428   0.20929   0.00000  Uiso   1.00
O41    O     0.16667   0.18573   0.20928   0.00000  Uiso   1.00
O42    O     0.16666   0.31427   0.29072   0.00000  Uiso   1.00
O43    O     0.09161   0.25000   0.28132   0.00000  Uiso   1.00
O44    O     0.24172   0.25001   0.21868   0.00000  Uiso   1.00
O45    O     0.09161   0.25000   0.19989   0.00000  Uiso   1.00
O46    O     0.24172   0.25000   0.30012   0.00000  Uiso   1.00
O47    O     0.17972   0.11188   0.33926   0.00000  Uiso   1.00
H48    H     0.20972   0.13322   0.34170   0.00000  Uiso   1.00
O49    O     0.24113   0.38299   0.20869   0.00000  Uiso   1.00
H50    H     0.26538   0.40416   0.19551   0.00000  Uiso   1.00
C51    C     0.19482   0.11387   0.16324   0.00000  Uiso   1.00
O52    O     0.23064   0.14132   0.16505   0.00000  Uiso   1.00
O53    O     0.16760   0.10058   0.11864   0.00000  Uiso   1.00
H54    H     0.18000   0.11715   0.09068   0.00000  Uiso   1.00
C55    C     0.08575   0.38354   0.29251   0.00000  Uiso   1.00
O56    O     0.06695   0.34812   0.27637   0.00000  Uiso   1.00
O57    O     0.06524   0.40388   0.33003   0.00000  Uiso   1.00
H58    H     0.03568   0.38575   0.34105   0.00000  Uiso   1.00
O59    O     0.25757   0.27036   0.04080   0.00000  Uiso   1.00
H60    H     0.28626   0.27629   0.06733   0.00000  Uiso   1.00
O61    O     0.14073   0.17278   0.46768   0.00000  Uiso   1.00
H62    H     0.13454   0.14819   0.44404   0.00000  Uiso   1.00
O63    O     0.24902   0.28911   0.13712   0.00000  Uiso   1.00
H64    H     0.23363   0.30699   0.16040   0.00000  Uiso   1.00
O65    O     0.11898   0.18046   0.36745   0.00000  Uiso   1.00
H66    H     0.09904   0.19362   0.33886   0.00000  Uiso   1.00
C67    C     0.08164   0.20852   0.11708   0.00000  Uiso   1.00
O68    O     0.08848   0.17304   0.13720   0.00000  Uiso   1.00
O69    O     0.03228   0.22568   0.10955   0.00000  Uiso   1.00
H70    H     0.00539   0.20558   0.12222   0.00000  Uiso   1.00
C71    C     0.21647   0.32199   0.37810   0.00000  Uiso   1.00
O72    O     0.25828   0.31588   0.36501   0.00000  Uiso   1.00
O73    O     0.19631   0.36415   0.37552   0.00000  Uiso   1.00
H74    H     0.21936   0.38667   0.36110   0.00000  Uiso   1.00
C75    C     0.07302   0.22628   0.01498   0.00000  Uiso   1.00
O76    O     0.05697   0.25344   0.48475   0.00000  Uiso   1.00
O77    O     0.04526   0.18630   0.01854   0.00000  Uiso   1.00
H78    H     0.01240   0.18395   0.49451   0.00000  Uiso   1.00
C79    C     0.19699   0.32942   0.47662   0.00000  Uiso   1.00
O80    O     0.16600   0.34374   0.00103   0.00000  Uiso   1.00
O81    O     0.24435   0.35216   0.47521   0.00000  Uiso   1.00
H82    H     0.24826   0.38004   0.49562   0.00000  Uiso   1.00
C83    C     0.50389   0.16506   0.25047   0.00000  Uiso   1.00
C84    C     0.49940   0.33476   0.24991   0.00000  Uiso   1.00
C85    C     0.54539   0.26134   0.05949   0.00000  Uiso   1.00
C86    C     0.48560   0.21151   0.44456   0.00000  Uiso   1.00
C87    C     0.54232   0.26634   0.10953   0.00000  Uiso   1.00
C88    C     0.47982   0.21423   0.39337   0.00000  Uiso   1.00
C89    C     0.45822   0.23227   0.09839   0.00000  Uiso   1.00
C90    C     0.52160   0.28534   0.39892   0.00000  Uiso   1.00
C91    C     0.45589   0.23570   0.04734   0.00000  Uiso   1.00
C92    C     0.51779   0.28738   0.44916   0.00000  Uiso   1.00
C93    C     0.50081   0.24870   0.02735   0.00000  Uiso   1.00
C94    C     0.50146   0.24930   0.47293   0.00000  Uiso   1.00
C95    C     0.40131   0.24971   0.23759   0.00000  Uiso   1.00
C96    C     0.59869   0.25010   0.26244   0.00000  Uiso   1.00
C97    C     0.34593   0.24972   0.23091   0.00000  Uiso   1.00
C98    C     0.65409   0.25003   0.26925   0.00000  Uiso   1.00
C99    C     0.50428   0.04645   0.29306   0.00000  Uiso   1.00
C100   C     0.53909   0.45227   0.22830   0.00000  Uiso   1.00
C101   C     0.50884   0.09226   0.29452   0.00000  Uiso   1.00
C102   C     0.53775   0.40610   0.22823   0.00000  Uiso   1.00
C103   C     0.51045   0.11650   0.25113   0.00000  Uiso   1.00
C104   C     0.49921   0.38289   0.24963   0.00000  Uiso   1.00
C105   C     0.51533   0.09277   0.20808   0.00000  Uiso   1.00
C106   C     0.46227   0.40597   0.27142   0.00000  Uiso   1.00
C107   C     0.51115   0.04671   0.20796   0.00000  Uiso   1.00
C108   C     0.46521   0.45211   0.27172   0.00000  Uiso   1.00
C109   C     0.50509   0.02358   0.25004   0.00000  Uiso   1.00
C110   C     0.50297   0.47520   0.24986   0.00000  Uiso   1.00
Cu111  Cu    0.50000   0.25000   0.29822   0.00000  Uiso   1.00
Cu112  Cu    0.50000   0.25001   0.20179   0.00000  Uiso   1.00
H113   H     0.65913   0.24959   0.19426   0.00000  Uiso   1.00
H114   H     0.34088   0.25021   0.30599   0.00000  Uiso   1.00
H115   H     0.50234   0.02851   0.32631   0.00000  Uiso   1.00
H116   H     0.56898   0.47039   0.21240   0.00000  Uiso   1.00
H117   H     0.51369   0.02861   0.17501   0.00000  Uiso   1.00
H118   H     0.43694   0.47034   0.28766   0.00000  Uiso   1.00
N119   N     0.50000   0.25001   0.12935   0.00000  Uiso   1.00
N120   N     0.50000   0.24999   0.37066   0.00000  Uiso   1.00
O121   O     0.50000   0.18573   0.29072   0.00000  Uiso   1.00
O122   O     0.50000   0.31428   0.20929   0.00000  Uiso   1.00
O123   O     0.50000   0.18573   0.20928   0.00000  Uiso   1.00
O124   O     0.50000   0.31427   0.29072   0.00000  Uiso   1.00
O125   O     0.42495   0.25000   0.28132   0.00000  Uiso   1.00
O126   O     0.57505   0.25001   0.21868   0.00000  Uiso   1.00
O127   O     0.42495   0.25000   0.19989   0.00000  Uiso   1.00
O128   O     0.57505   0.25000   0.30012   0.00000  Uiso   1.00
O129   O     0.51306   0.11188   0.33926   0.00000  Uiso   1.00
H130   H     0.54305   0.13322   0.34170   0.00000  Uiso   1.00
O131   O     0.57446   0.38299   0.20869   0.00000  Uiso   1.00
H132   H     0.59871   0.40416   0.19551   0.00000  Uiso   1.00
C133   C     0.52816   0.11387   0.16324   0.00000  Uiso   1.00
O134   O     0.56397   0.14132   0.16505   0.00000  Uiso   1.00
O135   O     0.50094   0.10058   0.11864   0.00000  Uiso   1.00
H136   H     0.51333   0.11715   0.09068   0.00000  Uiso   1.00
C137   C     0.41908   0.38354   0.29251   0.00000  Uiso   1.00
O138   O     0.40029   0.34812   0.27637   0.00000  Uiso   1.00
O139   O     0.39858   0.40388   0.33003   0.00000  Uiso   1.00
H140   H     0.36902   0.38575   0.34105   0.00000  Uiso   1.00
O141   O     0.59090   0.27036   0.04080   0.00000  Uiso   1.00
H142   H     0.61959   0.27629   0.06733   0.00000  Uiso   1.00
O143   O     0.47406   0.17278   0.46768   0.00000  Uiso   1.00
H144   H     0.46788   0.14819   0.44404   0.00000  Uiso   1.00
O145   O     0.58235   0.28911   0.13712   0.00000  Uiso   1.00
H146   H     0.56697   0.30699   0.16040   0.00000  Uiso   1.00
O147   O     0.45232   0.18046   0.36745   0.00000  Uiso   1.00
H148   H     0.43237   0.19362   0.33886   0.00000  Uiso   1.00
C149   C     0.41497   0.20852   0.11708   0.00000  Uiso   1.00
O150   O     0.42182   0.17304   0.13720   0.00000  Uiso   1.00
O151   O     0.36562   0.22568   0.10955   0.00000  Uiso   1.00
H152   H     0.33872   0.20558   0.12222   0.00000  Uiso   1.00
C153   C     0.54981   0.32199   0.37810   0.00000  Uiso   1.00
O154   O     0.59161   0.31588   0.36501   0.00000  Uiso   1.00
O155   O     0.52964   0.36415   0.37552   0.00000  Uiso   1.00
H156   H     0.55270   0.38667   0.36110   0.00000  Uiso   1.00
C157   C     0.40635   0.22628   0.01498   0.00000  Uiso   1.00
O158   O     0.39031   0.25344   0.48475   0.00000  Uiso   1.00
O159   O     0.37859   0.18630   0.01854   0.00000  Uiso   1.00
H160   H     0.34573   0.18395   0.49451   0.00000  Uiso   1.00
C161   C     0.53032   0.32942   0.47662   0.00000  Uiso   1.00
O162   O     0.49933   0.34374   0.00103   0.00000  Uiso   1.00
O163   O     0.57768   0.35216   0.47521   0.00000  Uiso   1.00
H164   H     0.58160   0.38004   0.49562   0.00000  Uiso   1.00
C165   C     0.83723   0.16506   0.25047   0.00000  Uiso   1.00
C166   C     0.83273   0.33476   0.24991   0.00000  Uiso   1.00
C167   C     0.87872   0.26134   0.05949   0.00000  Uiso   1.00
C168   C     0.81893   0.21151   0.44456   0.00000  Uiso   1.00
C169   C     0.87566   0.26634   0.10953   0.00000  Uiso   1.00
C170   C     0.81315   0.21423   0.39337   0.00000  Uiso   1.00
C171   C     0.79156   0.23227   0.09839   0.00000  Uiso   1.00
C172   C     0.85493   0.28534   0.39892   0.00000  Uiso   1.00
C173   C     0.78922   0.23570   0.04734   0.00000  Uiso   1.00
C174   C     0.85112   0.28738   0.44916   0.00000  Uiso   1.00
C175   C     0.83415   0.24870   0.02735   0.00000  Uiso   1.00
C176   C     0.83480   0.24930   0.47293   0.00000  Uiso   1.00
C177   C     0.73465   0.24971   0.23759   0.00000  Uiso   1.00
C178   C     0.93202   0.25010   0.26244   0.00000  Uiso   1.00
C179   C     0.67927   0.24972   0.23091   0.00000  Uiso   1.00
C180   C     0.98742   0.25003   0.26925   0.00000  Uiso   1.00
C181   C     0.83761   0.04645   0.29306   0.00000  Uiso   1.00
C182   C     0.87242   0.45227   0.22830   0.00000  Uiso   1.00
C183   C     0.84217   0.09226   0.29452   0.00000  Uiso   1.00
C184   C     0.87108   0.40610   0.22823   0.00000  Uiso   1.00
C185   C     0.84379   0.11650   0.25113   0.00000  Uiso   1.00
C186   C     0.83254   0.38289   0.24963   0.00000  Uiso   1.00
C187   C     0.84866   0.09277   0.20808   0.00000  Uiso   1.00
C188   C     0.79560   0.40597   0.27142   0.00000  Uiso   1.00
C189   C     0.84448   0.04671   0.20796   0.00000  Uiso   1.00
C190   C     0.79855   0.45211   0.27172   0.00000  Uiso   1.00
C191   C     0.83842   0.02358   0.25004   0.00000  Uiso   1.00
C192   C     0.83630   0.47520   0.24986   0.00000  Uiso   1.00
Cu193  Cu    0.83333   0.25000   0.29822   0.00000  Uiso   1.00
Cu194  Cu    0.83333   0.25001   0.20179   0.00000  Uiso   1.00
H195   H     0.99246   0.24959   0.19426   0.00000  Uiso   1.00
H196   H     0.67421   0.25021   0.30599   0.00000  Uiso   1.00
H197   H     0.83567   0.02851   0.32631   0.00000  Uiso   1.00
H198   H     0.90232   0.47039   0.21240   0.00000  Uiso   1.00
H199   H     0.84702   0.02861   0.17501   0.00000  Uiso   1.00
H200   H     0.77027   0.47034   0.28766   0.00000  Uiso   1.00
N201   N     0.83333   0.25001   0.12935   0.00000  Uiso   1.00
N202   N     0.83333   0.24999   0.37066   0.00000  Uiso   1.00
O203   O     0.83334   0.18573   0.29072   0.00000  Uiso   1.00
O204   O     0.83333   0.31428   0.20929   0.00000  Uiso   1.00
O205   O     0.83334   0.18573   0.20928   0.00000  Uiso   1.00
O206   O     0.83333   0.31427   0.29072   0.00000  Uiso   1.00
O207   O     0.75828   0.25000   0.28132   0.00000  Uiso   1.00
O208   O     0.90839   0.25001   0.21868   0.00000  Uiso   1.00
O209   O     0.75828   0.25000   0.19989   0.00000  Uiso   1.00
O210   O     0.90839   0.25000   0.30012   0.00000  Uiso   1.00
O211   O     0.84639   0.11188   0.33926   0.00000  Uiso   1.00
H212   H     0.87638   0.13322   0.34170   0.00000  Uiso   1.00
O213   O     0.90779   0.38299   0.20869   0.00000  Uiso   1.00
H214   H     0.93205   0.40416   0.19551   0.00000  Uiso   1.00
C215   C     0.86149   0.11387   0.16324   0.00000  Uiso   1.00
O216   O     0.89731   0.14132   0.16505   0.00000  Uiso   1.00
O217   O     0.83427   0.10058   0.11864   0.00000  Uiso   1.00
H218   H     0.84666   0.11715   0.09068   0.00000  Uiso   1.00
C219   C     0.75241   0.38354   0.29251   0.00000  Uiso   1.00
O220   O     0.73362   0.34812   0.27637   0.00000  Uiso   1.00
O221   O     0.73191   0.40388   0.33003   0.00000  Uiso   1.00
H222   H     0.70235   0.38575   0.34105   0.00000  Uiso   1.00
O223   O     0.92424   0.27036   0.04080   0.00000  Uiso   1.00
H224   H     0.95293   0.27629   0.06733   0.00000  Uiso   1.00
O225   O     0.80740   0.17278   0.46768   0.00000  Uiso   1.00
H226   H     0.80121   0.14819   0.44404   0.00000  Uiso   1.00
O227   O     0.91569   0.28911   0.13712   0.00000  Uiso   1.00
H228   H     0.90030   0.30699   0.16040   0.00000  Uiso   1.00
O229   O     0.78565   0.18046   0.36745   0.00000  Uiso   1.00
H230   H     0.76571   0.19362   0.33886   0.00000  Uiso   1.00
C231   C     0.74830   0.20852   0.11708   0.00000  Uiso   1.00
O232   O     0.75515   0.17304   0.13720   0.00000  Uiso   1.00
O233   O     0.69895   0.22568   0.10955   0.00000  Uiso   1.00
H234   H     0.67205   0.20558   0.12222   0.00000  Uiso   1.00
C235   C     0.88314   0.32199   0.37810   0.00000  Uiso   1.00
O236   O     0.92495   0.31588   0.36501   0.00000  Uiso   1.00
O237   O     0.86298   0.36415   0.37552   0.00000  Uiso   1.00
H238   H     0.88603   0.38667   0.36110   0.00000  Uiso   1.00
C239   C     0.73968   0.22628   0.01498   0.00000  Uiso   1.00
O240   O     0.72364   0.25344   0.48475   0.00000  Uiso   1.00
O241   O     0.71192   0.18630   0.01854   0.00000  Uiso   1.00
H242   H     0.67906   0.18395   0.49451   0.00000  Uiso   1.00
C243   C     0.86366   0.32942   0.47662   0.00000  Uiso   1.00
O244   O     0.83266   0.34374   0.00103   0.00000  Uiso   1.00
O245   O     0.91101   0.35216   0.47521   0.00000  Uiso   1.00
H246   H     0.91493   0.38004   0.49562   0.00000  Uiso   1.00
C247   C     0.17056   0.66506   0.25047   0.00000  Uiso   1.00
C248   C     0.16607   0.83476   0.24991   0.00000  Uiso   1.00
C249   C     0.21206   0.76134   0.05949   0.00000  Uiso   1.00
C250   C     0.15226   0.71151   0.44456   0.00000  Uiso   1.00
C251   C     0.20899   0.76634   0.10953   0.00000  Uiso   1.00
C252   C     0.14649   0.71423   0.39337   0.00000  Uiso   1.00
C253   C     0.12489   0.73227   0.09839   0.00000  Uiso   1.00
C254   C     0.18826   0.78534   0.39892   0.00000  Uiso   1.00
C255   C     0.12255   0.73570   0.04734   0.00000  Uiso   1.00
C256   C     0.18445   0.78738   0.44916   0.00000  Uiso   1.00
C257   C     0.16748   0.74870   0.02735   0.00000  Uiso   1.00
C258   C     0.16813   0.74930   0.47293   0.00000  Uiso   1.00
C259   C     0.06798   0.74971   0.23759   0.00000  Uiso   1.00
C260   C     0.26536   0.75010   0.26244   0.00000  Uiso   1.00
C261   C     0.01260   0.74972   0.23091   0.00000  Uiso   1.00
C262   C     0.32076   0.75003   0.26925   0.00000  Uiso   1.00
C263   C     0.17094   0.54645   0.29306   0.00000  Uiso   1.00
C264   C     0.20576   0.95227   0.22830   0.00000  Uiso   1.00
C265   C     0.17551   0.59226   0.29452   0.00000  Uiso   1.00
C266   C     0.20442   0.90610   0.22823   0.00000  Uiso   1.00
C267   C     0.17712   0.61650   0.25113   0.00000  Uiso   1.00
C268   C     0.16587   0.88289   0.24963   0.00000  Uiso   1.00
C269   C     0.18200   0.59277   0.20808   0.00000  Uiso   1.00
C270   C     0.12894   0.90597   0.27142   0.00000  Uiso   1.00
C271   C     0.17781   0.54671   0.20796   0.00000  Uiso   1.00
C272   C     0.13188   0.95211   0.27172   0.00000  Uiso   1.00
C273   C     0.17175   0.52358   0.25004   0.00000  Uiso   1.00
C274   C     0.16963   0.97520   0.24986   0.00000  Uiso   1.00
Cu275  Cu    0.16667   0.75000   0.29822   0.00000  Uiso   1.00
Cu276  Cu    0.16667   0.75001   0.20179   0.00000  Uiso   1.00
H277   H     0.32580   0.74959   0.19426   0.00000  Uiso   1.00
H278   H     0.00754   0.75021   0.30599   0.00000  Uiso   1.00
H279   H     0.16901   0.52851   0.32631   0.00000  Uiso   1.00
H280   H     0.23565   0.97039   0.21240   0.00000  Uiso   1.00
H281   H     0.18035   0.52861   0.17501   0.00000  Uiso   1.00
H282   H     0.10361   0.97034   0.28766   0.00000  Uiso   1.00
N283   N     0.16667   0.75001   0.12935   0.00000  Uiso   1.00
N284   N     0.16667   0.74999   0.37066   0.00000  Uiso   1.00
O285   O     0.16667   0.68573   0.29072   0.00000  Uiso   1.00
O286   O     0.16666   0.81428   0.20929   0.00000  Uiso   1.00
O287   O     0.16667   0.68573   0.20928   0.00000  Uiso   1.00
O288   O     0.16666   0.81427   0.29072   0.00000  Uiso   1.00
O289   O     0.09161   0.75000   0.28132   0.00000  Uiso   1.00
O290   O     0.24172   0.75001   0.21868   0.00000  Uiso   1.00
O291   O     0.09161   0.75000   0.19989   0.00000  Uiso   1.00
O292   O     0.24172   0.75000   0.30012   0.00000  Uiso   1.00
O293   O     0.17972   0.61188   0.33926   0.00000  Uiso   1.00
H294   H     0.20972   0.63322   0.34170   0.00000  Uiso   1.00
O295   O     0.24113   0.88299   0.20869   0.00000  Uiso   1.00
H296   H     0.26538   0.90416   0.19551   0.00000  Uiso   1.00
C297   C     0.19482   0.61387   0.16324   0.00000  Uiso   1.00
O298   O     0.23064   0.64132   0.16505   0.00000  Uiso   1.00
O299   O     0.16760   0.60058   0.11864   0.00000  Uiso   1.00
H300   H     0.18000   0.61715   0.09068   0.00000  Uiso   1.00
C301   C     0.08575   0.88354   0.29251   0.00000  Uiso   1.00
O302   O     0.06695   0.84812   0.27637   0.00000  Uiso   1.00
O303   O     0.06524   0.90388   0.33003   0.00000  Uiso   1.00
H304   H     0.03568   0.88575   0.34105   0.00000  Uiso   1.00
O305   O     0.25757   0.77036   0.04080   0.00000  Uiso   1.00
H306   H     0.28626   0.77629   0.06733   0.00000  Uiso   1.00
O307   O     0.14073   0.67278   0.46768   0.00000  Uiso   1.00
H308   H     0.13454   0.64819   0.44404   0.00000  Uiso   1.00
O309   O     0.24902   0.78911   0.13712   0.00000  Uiso   1.00
H310   H     0.23363   0.80699   0.16040   0.00000  Uiso   1.00
O311   O     0.11898   0.68046   0.36745   0.00000  Uiso   1.00
H312   H     0.09904   0.69362   0.33886   0.00000  Uiso   1.00
C313   C     0.08164   0.70852   0.11708   0.00000  Uiso   1.00
O314   O     0.08848   0.67304   0.13720   0.00000  Uiso   1.00
O315   O     0.03228   0.72568   0.10955   0.00000  Uiso   1.00
H316   H     0.00539   0.70558   0.12222   0.00000  Uiso   1.00
C317   C     0.21647   0.82199   0.37810   0.00000  Uiso   1.00
O318   O     0.25828   0.81588   0.36501   0.00000  Uiso   1.00
O319   O     0.19631   0.86415   0.37552   0.00000  Uiso   1.00
H320   H     0.21936   0.88667   0.36110   0.00000  Uiso   1.00
C321   C     0.07302   0.72628   0.01498   0.00000  Uiso   1.00
O322   O     0.05697   0.75344   0.48475   0.00000  Uiso   1.00
O323   O     0.04526   0.68630   0.01854   0.00000  Uiso   1.00
H324   H     0.01240   0.68395   0.49451   0.00000  Uiso   1.00
C325   C     0.19699   0.82942   0.47662   0.00000  Uiso   1.00
O326   O     0.16600   0.84374   0.00103   0.00000  Uiso   1.00
O327   O     0.24435   0.85216   0.47521   0.00000  Uiso   1.00
H328   H     0.24826   0.88004   0.49562   0.00000  Uiso   1.00
C329   C     0.50389   0.66506   0.25047   0.00000  Uiso   1.00
C330   C     0.49940   0.83476   0.24991   0.00000  Uiso   1.00
C331   C     0.54539   0.76134   0.05949   0.00000  Uiso   1.00
C332   C     0.48560   0.71151   0.44456   0.00000  Uiso   1.00
C333   C     0.54232   0.76634   0.10953   0.00000  Uiso   1.00
C334   C     0.47982   0.71423   0.39337   0.00000  Uiso   1.00
C335   C     0.45822   0.73227   0.09839   0.00000  Uiso   1.00
C336   C     0.52160   0.78534   0.39892   0.00000  Uiso   1.00
C337   C     0.45589   0.73570   0.04734   0.00000  Uiso   1.00
C338   C     0.51779   0.78738   0.44916   0.00000  Uiso   1.00
C339   C     0.50081   0.74870   0.02735   0.00000  Uiso   1.00
C340   C     0.50146   0.74930   0.47293   0.00000  Uiso   1.00
C341   C     0.40131   0.74971   0.23759   0.00000  Uiso   1.00
C342   C     0.59869   0.75010   0.26244   0.00000  Uiso   1.00
C343   C     0.34593   0.74972   0.23091   0.00000  Uiso   1.00
C344   C     0.65409   0.75003   0.26925   0.00000  Uiso   1.00
C345   C     0.50428   0.54645   0.29306   0.00000  Uiso   1.00
C346   C     0.53909   0.95227   0.22830   0.00000  Uiso   1.00
C347   C     0.50884   0.59226   0.29452   0.00000  Uiso   1.00
C348   C     0.53775   0.90610   0.22823   0.00000  Uiso   1.00
C349   C     0.51045   0.61650   0.25113   0.00000  Uiso   1.00
C350   C     0.49921   0.88289   0.24963   0.00000  Uiso   1.00
C351   C     0.51533   0.59277   0.20808   0.00000  Uiso   1.00
C352   C     0.46227   0.90597   0.27142   0.00000  Uiso   1.00
C353   C     0.51115   0.54671   0.20796   0.00000  Uiso   1.00
C354   C     0.46521   0.95211   0.27172   0.00000  Uiso   1.00
C355   C     0.50509   0.52358   0.25004   0.00000  Uiso   1.00
C356   C     0.50297   0.97520   0.24986   0.00000  Uiso   1.00
Cu357  Cu    0.50000   0.75000   0.29822   0.00000  Uiso   1.00
Cu358  Cu    0.50000   0.75001   0.20179   0.00000  Uiso   1.00
H359   H     0.65913   0.74959   0.19426   0.00000  Uiso   1.00
H360   H     0.34088   0.75021   0.30599   0.00000  Uiso   1.00
H361   H     0.50234   0.52851   0.32631   0.00000  Uiso   1.00
H362   H     0.56898   0.97039   0.21240   0.00000  Uiso   1.00
H363   H     0.51369   0.52861   0.17501   0.00000  Uiso   1.00
H364   H     0.43694   0.97034   0.28766   0.00000  Uiso   1.00
N365   N     0.50000   0.75001   0.12935   0.00000  Uiso   1.00
N366   N     0.50000   0.74999   0.37066   0.00000  Uiso   1.00
O367   O     0.50000   0.68573   0.29072   0.00000  Uiso   1.00
O368   O     0.50000   0.81428   0.20929   0.00000  Uiso   1.00
O369   O     0.50000   0.68573   0.20928   0.00000  Uiso   1.00
O370   O     0.50000   0.81427   0.29072   0.00000  Uiso   1.00
O371   O     0.42495   0.75000   0.28132   0.00000  Uiso   1.00
O372   O     0.57505   0.75001   0.21868   0.00000  Uiso   1.00
O373   O     0.42495   0.75000   0.19989   0.00000  Uiso   1.00
O374   O     0.57505   0.75000   0.30012   0.00000  Uiso   1.00
O375   O     0.51306   0.61188   0.33926   0.00000  Uiso   1.00
H376   H     0.54305   0.63322   0.34170   0.00000  Uiso   1.00
O377   O     0.57446   0.88299   0.20869   0.00000  Uiso   1.00
H378   H     0.59871   0.90416   0.19551   0.00000  Uiso   1.00
C379   C     0.52816   0.61387   0.16324   0.00000  Uiso   1.00
O380   O     0.56397   0.64132   0.16505   0.00000  Uiso   1.00
O381   O     0.50094   0.60058   0.11864   0.00000  Uiso   1.00
H382   H     0.51333   0.61715   0.09068   0.00000  Uiso   1.00
C383   C     0.41908   0.88354   0.29251   0.00000  Uiso   1.00
O384   O     0.40029   0.84812   0.27637   0.00000  Uiso   1.00
O385   O     0.39858   0.90388   0.33003   0.00000  Uiso   1.00
H386   H     0.36902   0.88575   0.34105   0.00000  Uiso   1.00
O387   O     0.59090   0.77036   0.04080   0.00000  Uiso   1.00
H388   H     0.61959   0.77629   0.06733   0.00000  Uiso   1.00
O389   O     0.47406   0.67278   0.46768   0.00000  Uiso   1.00
H390   H     0.46788   0.64819   0.44404   0.00000  Uiso   1.00
O391   O     0.58235   0.78911   0.13712   0.00000  Uiso   1.00
H392   H     0.56697   0.80699   0.16040   0.00000  Uiso   1.00
O393   O     0.45232   0.68046   0.36745   0.00000  Uiso   1.00
H394   H     0.43237   0.69362   0.33886   0.00000  Uiso   1.00
C395   C     0.41497   0.70852   0.11708   0.00000  Uiso   1.00
O396   O     0.42182   0.67304   0.13720   0.00000  Uiso   1.00
O397   O     0.36562   0.72568   0.10955   0.00000  Uiso   1.00
H398   H     0.33872   0.70558   0.12222   0.00000  Uiso   1.00
C399   C     0.54981   0.82199   0.37810   0.00000  Uiso   1.00
O400   O     0.59161   0.81588   0.36501   0.00000  Uiso   1.00
O401   O     0.52964   0.86415   0.37552   0.00000  Uiso   1.00
H402   H     0.55270   0.88667   0.36110   0.00000  Uiso   1.00
C403   C     0.40635   0.72628   0.01498   0.00000  Uiso   1.00
O404   O     0.39031   0.75344   0.48475   0.00000  Uiso   1.00
O405   O     0.37859   0.68630   0.01854   0.00000  Uiso   1.00
H406   H     0.34573   0.68395   0.49451   0.00000  Uiso   1.00
C407   C     0.53032   0.82942   0.47662   0.00000  Uiso   1.00
O408   O     0.49933   0.84374   0.00103   0.00000  Uiso   1.00
O409   O     0.57768   0.85216   0.47521   0.00000  Uiso   1.00
H410   H     0.58160   0.88004   0.49562   0.00000  Uiso   1.00
C411   C     0.83723   0.66506   0.25047   0.00000  Uiso   1.00
C412   C     0.83273   0.83476   0.24991   0.00000  Uiso   1.00
C413   C     0.87872   0.76134   0.05949   0.00000  Uiso   1.00
C414   C     0.81893   0.71151   0.44456   0.00000  Uiso   1.00
C415   C     0.87566   0.76634   0.10953   0.00000  Uiso   1.00
C416   C     0.81315   0.71423   0.39337   0.00000  Uiso   1.00
C417   C     0.79156   0.73227   0.09839   0.00000  Uiso   1.00
C418   C     0.85493   0.78534   0.39892   0.00000  Uiso   1.00
C419   C     0.78922   0.73570   0.04734   0.00000  Uiso   1.00
C420   C     0.85112   0.78738   0.44916   0.00000  Uiso   1.00
C421   C     0.83415   0.74870   0.02735   0.00000  Uiso   1.00
C422   C     0.83480   0.74930   0.47293   0.00000  Uiso   1.00
C423   C     0.73465   0.74971   0.23759   0.00000  Uiso   1.00
C424   C     0.93202   0.75010   0.26244   0.00000  Uiso   1.00
C425   C     0.67927   0.74972   0.23091   0.00000  Uiso   1.00
C426   C     0.98742   0.75003   0.26925   0.00000  Uiso   1.00
C427   C     0.83761   0.54645   0.29306   0.00000  Uiso   1.00
C428   C     0.87242   0.95227   0.22830   0.00000  Uiso   1.00
C429   C     0.84217   0.59226   0.29452   0.00000  Uiso   1.00
C430   C     0.87108   0.90610   0.22823   0.00000  Uiso   1.00
C431   C     0.84379   0.61650   0.25113   0.00000  Uiso   1.00
C432   C     0.83254   0.88289   0.24963   0.00000  Uiso   1.00
C433   C     0.84866   0.59277   0.20808   0.00000  Uiso   1.00
C434   C     0.79560   0.90597   0.27142   0.00000  Uiso   1.00
C435   C     0.84448   0.54671   0.20796   0.00000  Uiso   1.00
C436   C     0.79855   0.95211   0.27172   0.00000  Uiso   1.00
C437   C     0.83842   0.52358   0.25004   0.00000  Uiso   1.00
C438   C     0.83630   0.97520   0.24986   0.00000  Uiso   1.00
Cu439  Cu    0.83333   0.75000   0.29822   0.00000  Uiso   1.00
Cu440  Cu    0.83333   0.75001   0.20179   0.00000  Uiso   1.00
H441   H     0.99246   0.74959   0.19426   0.00000  Uiso   1.00
H442   H     0.67421   0.75021   0.30599   0.00000  Uiso   1.00
H443   H     0.83567   0.52851   0.32631   0.00000  Uiso   1.00
H444   H     0.90232   0.97039   0.21240   0.00000  Uiso   1.00
H445   H     0.84702   0.52861   0.17501   0.00000  Uiso   1.00
H446   H     0.77027   0.97034   0.28766   0.00000  Uiso   1.00
N447   N     0.83333   0.75001   0.12935   0.00000  Uiso   1.00
N448   N     0.83333   0.74999   0.37066   0.00000  Uiso   1.00
O449   O     0.83334   0.68573   0.29072   0.00000  Uiso   1.00
O450   O     0.83333   0.81428   0.20929   0.00000  Uiso   1.00
O451   O     0.83334   0.68573   0.20928   0.00000  Uiso   1.00
O452   O     0.83333   0.81427   0.29072   0.00000  Uiso   1.00
O453   O     0.75828   0.75000   0.28132   0.00000  Uiso   1.00
O454   O     0.90839   0.75001   0.21868   0.00000  Uiso   1.00
O455   O     0.75828   0.75000   0.19989   0.00000  Uiso   1.00
O456   O     0.90839   0.75000   0.30012   0.00000  Uiso   1.00
O457   O     0.84639   0.61188   0.33926   0.00000  Uiso   1.00
H458   H     0.87638   0.63322   0.34170   0.00000  Uiso   1.00
O459   O     0.90779   0.88299   0.20869   0.00000  Uiso   1.00
H460   H     0.93205   0.90416   0.19551   0.00000  Uiso   1.00
C461   C     0.86149   0.61387   0.16324   0.00000  Uiso   1.00
O462   O     0.89731   0.64132   0.16505   0.00000  Uiso   1.00
O463   O     0.83427   0.60058   0.11864   0.00000  Uiso   1.00
H464   H     0.84666   0.61715   0.09068   0.00000  Uiso   1.00
C465   C     0.75241   0.88354   0.29251   0.00000  Uiso   1.00
O466   O     0.73362   0.84812   0.27637   0.00000  Uiso   1.00
O467   O     0.73191   0.90388   0.33003   0.00000  Uiso   1.00
H468   H     0.70235   0.88575   0.34105   0.00000  Uiso   1.00
O469   O     0.92424   0.77036   0.04080   0.00000  Uiso   1.00
H470   H     0.95293   0.77629   0.06733   0.00000  Uiso   1.00
O471   O     0.80740   0.67278   0.46768   0.00000  Uiso   1.00
H472   H     0.80121   0.64819   0.44404   0.00000  Uiso   1.00
O473   O     0.91569   0.78911   0.13712   0.00000  Uiso   1.00
H474   H     0.90030   0.80699   0.16040   0.00000  Uiso   1.00
O475   O     0.78565   0.68046   0.36745   0.00000  Uiso   1.00
H476   H     0.76571   0.69362   0.33886   0.00000  Uiso   1.00
C477   C     0.74830   0.70852   0.11708   0.00000  Uiso   1.00
O478   O     0.75515   0.67304   0.13720   0.00000  Uiso   1.00
O479   O     0.69895   0.72568   0.10955   0.00000  Uiso   1.00
H480   H     0.67205   0.70558   0.12222   0.00000  Uiso   1.00
C481   C     0.88314   0.82199   0.37810   0.00000  Uiso   1.00
O482   O     0.92495   0.81588   0.36501   0.00000  Uiso   1.00
O483   O     0.86298   0.86415   0.37552   0.00000  Uiso   1.00
H484   H     0.88603   0.88667   0.36110   0.00000  Uiso   1.00
C485   C     0.73968   0.72628   0.01498   0.00000  Uiso   1.00
O486   O     0.72364   0.75344   0.48475   0.00000  Uiso   1.00
O487   O     0.71192   0.68630   0.01854   0.00000  Uiso   1.00
H488   H     0.67906   0.68395   0.49451   0.00000  Uiso   1.00
C489   C     0.86366   0.82942   0.47662   0.00000  Uiso   1.00
O490   O     0.83266   0.84374   0.00103   0.00000  Uiso   1.00
O491   O     0.91101   0.85216   0.47521   0.00000  Uiso   1.00
H492   H     0.91493   0.88004   0.49562   0.00000  Uiso   1.00
C493   C     0.17056   0.16506   0.75047   0.00000  Uiso   1.00
C494   C     0.16607   0.33476   0.74991   0.00000  Uiso   1.00
C495   C     0.21206   0.26134   0.55949   0.00000  Uiso   1.00
C496   C     0.15226   0.21151   0.94456   0.00000  Uiso   1.00
C497   C     0.20899   0.26634   0.60953   0.00000  Uiso   1.00
C498   C     0.14649   0.21423   0.89337   0.00000  Uiso   1.00
C499   C     0.12489   0.23227   0.59839   0.00000  Uiso   1.00
C500   C     0.18826   0.28534   0.89892   0.00000  Uiso   1.00
C501   C     0.12255   0.23570   0.54734   0.00000  Uiso   1.00
C502   C     0.18445   0.28738   0.94916   0.00000  Uiso   1.00
C503   C     0.16748   0.24870   0.52735   0.00000  Uiso   1.00
C504   C     0.16813   0.24930   0.97293   0.00000  Uiso   1.00
C505   C     0.06798   0.24971   0.73759   0.00000  Uiso   1.00
C506   C     0.26536   0.25010   0.76244   0.00000  Uiso   1.00
C507   C     0.01260   0.24972   0.73091   0.00000  Uiso   1.00
C508   C     0.32076   0.25003   0.76925   0.00000  Uiso   1.00
C509   C     0.17094   0.04645   0.79306   0.00000  Uiso   1.00
C510   C     0.20576   0.45227   0.72830   0.00000  Uiso   1.00
C511   C     0.17551   0.09226   0.79452   0.00000  Uiso   1.00
C512   C     0.20442   0.40610   0.72823   0.00000  Uiso   1.00
C513   C     0.17712   0.11650   0.75113   0.00000  Uiso   1.00
C514   C     0.16587   0.38289   0.74963   0.00000  Uiso   1.00
C515   C     0.18200   0.09277   0.70808   0.00000  Uiso   1.00
C516   C     0.12894   0.40597   0.77142   0.00000  Uiso   1.00
C517   C     0.17781   0.04671   0.70796   0.00000  Uiso   1.00
C518   C     0.13188   0.45211   0.77172   0.00000  Uiso   1.00
C519   C     0.17175   0.02358   0.75004   0.00000  Uiso   1.00
C520   C     0.16963   0.47520   0.74986   0.00000  Uiso   1.00
Cu521  Cu    0.16667   0.25000   0.79822   0.00000  Uiso   1.00
Cu522  Cu    0.16667   0.25001   0.70179   0.00000  Uiso   1.00
H523   H     0.32580   0.24959   0.69426   0.00000  Uiso   1.00
H524   H     0.00754   0.25021   0.80599   0.00000  Uiso   1.00
H525   H     0.16901   0.02851   0.82631   0.00000  Uiso   1.00
H526   H     0.23565   0.47039   0.71240   0.00000  Uiso   1.00
H527   H     0.18035   0.02861   0.67501   0.00000  Uiso   1.00
H528   H     0.10361   0.47034   0.78766   0.00000  Uiso   1.00
N529   N     0.16667   0.25001   0.62935   0.00000  Uiso   1.00
N530   N     0.16667   0.24999   0.87066   0.00000  Uiso   1.00
O531   O     0.16667   0.18573   0.79072   0.00000  Uiso   1.00
O532   O     0.16666   0.31428   0.70929   0.00000  Uiso   1.00
O533   O     0.16667   0.18573   0.70928   0.00000  Uiso   1.00
O534   O     0.16666   0.31427   0.79072   0.00000  Uiso   1.00
O535   O     0.09161   0.25000   0.78132   0.00000  Uiso   1.00
O536   O     0.24172   0.25001   0.71868   0.00000  Uiso   1.00
O537   O     0.09161   0.25000   0.69989   0.00000  Uiso   1.00
O538   O     0.24172   0.25000   0.80012   0.00000  Uiso   1.00
O539   O     0.17972   0.11188   0.83926   0.00000  Uiso   1.00
H540   H     0.20972   0.13322   0.84170   0.00000  Uiso   1.00
O541   O     0.24113   0.38299   0.70869   0.00000  Uiso   1.00
H542   H     0.26538   0.40416   0.69551   0.00000  Uiso   1.00
C543   C     0.19482   0.11387   0.66324   0.00000  Uiso   1.00
O544   O     0.23064   0.14132   0.66505   0.00000  Uiso   1.00
O545   O     0.16760   0.10058   0.61864   0.00000  Uiso   1.00
H546   H     0.18000   0.11715   0.59068   0.00000  Uiso   1.00
C547   C     0.08575   0.38354   0.79251   0.00000  Uiso   1.00
O548   O     0.06695   0.34812   0.77637   0.00000  Uiso   1.00
O549   O     0.06524   0.40388   0.83003   0.00000  Uiso   1.00
H550   H     0.03568   0.38575   0.84105   0.00000  Uiso   1.00
O551   O     0.25757   0.27036   0.54080   0.00000  Uiso   1.00
H552   H     0.28626   0.27629   0.56733   0.00000  Uiso   1.00
O553   O     0.14073   0.17278   0.96768   0.00000  Uiso   1.00
H554   H     0.13454   0.14819   0.94404   0.00000  Uiso   1.00
O555   O     0.24902   0.28911   0.63712   0.00000  Uiso   1.00
H556   H     0.23363   0.30699   0.66040   0.00000  Uiso   1.00
O557   O     0.11898   0.18046   0.86745   0.00000  Uiso   1.00
H558   H     0.09904   0.19362   0.83886   0.00000  Uiso   1.00
C559   C     0.08164   0.20852   0.61708   0.00000  Uiso   1.00
O560   O     0.08848   0.17304   0.63720   0.00000  Uiso   1.00
O561   O     0.03228   0.22568   0.60955   0.00000  Uiso   1.00
H562   H     0.00539   0.20558   0.62222   0.00000  Uiso   1.00
C563   C     0.21647   0.32199   0.87810   0.00000  Uiso   1.00
O564   O     0.25828   0.31588   0.86501   0.00000  Uiso   1.00
O565   O     0.19631   0.36415   0.87552   0.00000  Uiso   1.00
H566   H     0.21936   0.38667   0.86110   0.00000  Uiso   1.00
C567   C     0.07302   0.22628   0.51498   0.00000  Uiso   1.00
O568   O     0.05697   0.25344   0.98475   0.00000  Uiso   1.00
O569   O     0.04526   0.18630   0.51854   0.00000  Uiso   1.00
H570   H     0.01240   0.18395   0.99451   0.00000  Uiso   1.00
C571   C     0.19699   0.32942   0.97662   0.00000  Uiso   1.00
O572   O     0.16600   0.34374   0.50103   0.00000  Uiso   1.00
O573   O     0.24435   0.35216   0.97521   0.00000  Uiso   1.00
H574   H     0.24826   0.38004   0.99562   0.00000  Uiso   1.00
C575   C     0.50389   0.16506   0.75047   0.00000  Uiso   1.00
C576   C     0.49940   0.33476   0.74991   0.00000  Uiso   1.00
C577   C     0.54539   0.26134   0.55949   0.00000  Uiso   1.00
C578   C     0.48560   0.21151   0.94456   0.00000  Uiso   1.00
C579   C     0.54232   0.26634   0.60953   0.00000  Uiso   1.00
C580   C     0.47982   0.21423   0.89337   0.00000  Uiso   1.00
C581   C     0.45822   0.23227   0.59839   0.00000  Uiso   1.00
C582   C     0.52160   0.28534   0.89892   0.00000  Uiso   1.00
C583   C     0.45589   0.23570   0.54734   0.00000  Uiso   1.00
C584   C     0.51779   0.28738   0.94916   0.00000  Uiso   1.00
C585   C     0.50081   0.24870   0.52735   0.00000  Uiso   1.00
C586   C     0.50146   0.24930   0.97293   0.00000  Uiso   1.00
C587   C     0.40131   0.24971   0.73759   0.00000  Uiso   1.00
C588   C     0.59869   0.25010   0.76244   0.00000  Uiso   1.00
C589   C     0.34593   0.24972   0.73091   0.00000  Uiso   1.00
C590   C     0.65409   0.25003   0.76925   0.00000  Uiso   1.00
C591   C     0.50428   0.04645   0.79306   0.00000  Uiso   1.00
C592   C     0.53909   0.45227   0.72830   0.00000  Uiso   1.00
C593   C     0.50884   0.09226   0.79452   0.00000  Uiso   1.00
C594   C     0.53775   0.40610   0.72823   0.00000  Uiso   1.00
C595   C     0.51045   0.11650   0.75113   0.00000  Uiso   1.00
C596   C     0.49921   0.38289   0.74963   0.00000  Uiso   1.00
C597   C     0.51533   0.09277   0.70808   0.00000  Uiso   1.00
C598   C     0.46227   0.40597   0.77142   0.00000  Uiso   1.00
C599   C     0.51115   0.04671   0.70796   0.00000  Uiso   1.00
C600   C     0.46521   0.45211   0.77172   0.00000  Uiso   1.00
C601   C     0.50509   0.02358   0.75004   0.00000  Uiso   1.00
C602   C     0.50297   0.47520   0.74986   0.00000  Uiso   1.00
Cu603  Cu    0.50000   0.25000   0.79822   0.00000  Uiso   1.00
Cu604  Cu    0.50000   0.25001   0.70179   0.00000  Uiso   1.00
H605   H     0.65913   0.24959   0.69426   0.00000  Uiso   1.00
H606   H     0.34088   0.25021   0.80599   0.00000  Uiso   1.00
H607   H     0.50234   0.02851   0.82631   0.00000  Uiso   1.00
H608   H     0.56898   0.47039   0.71240   0.00000  Uiso   1.00
H609   H     0.51369   0.02861   0.67501   0.00000  Uiso   1.00
H610   H     0.43694   0.47034   0.78766   0.00000  Uiso   1.00
N611   N     0.50000   0.25001   0.62935   0.00000  Uiso   1.00
N612   N     0.50000   0.24999   0.87066   0.00000  Uiso   1.00
O613   O     0.50000   0.18573   0.79072   0.00000  Uiso   1.00
O614   O     0.50000   0.31428   0.70929   0.00000  Uiso   1.00
O615   O     0.50000   0.18573   0.70928   0.00000  Uiso   1.00
O616   O     0.50000   0.31427   0.79072   0.00000  Uiso   1.00
O617   O     0.42495   0.25000   0.78132   0.00000  Uiso   1.00
O618   O     0.57505   0.25001   0.71868   0.00000  Uiso   1.00
O619   O     0.42495   0.25000   0.69989   0.00000  Uiso   1.00
O620   O     0.57505   0.25000   0.80012   0.00000  Uiso   1.00
O621   O     0.51306   0.11188   0.83926   0.00000  Uiso   1.00
H622   H     0.54305   0.13322   0.84170   0.00000  Uiso   1.00
O623   O     0.57446   0.38299   0.70869   0.00000  Uiso   1.00
H624   H     0.59871   0.40416   0.69551   0.00000  Uiso   1.00
C625   C     0.52816   0.11387   0.66324   0.00000  Uiso   1.00
O626   O     0.56397   0.14132   0.66505   0.00000  Uiso   1.00
O627   O     0.50094   0.10058   0.61864   0.00000  Uiso   1.00
H628   H     0.51333   0.11715   0.59068   0.00000  Uiso   1.00
C629   C     0.41908   0.38354   0.79251   0.00000  Uiso   1.00
O630   O     0.40029   0.34812   0.77637   0.00000  Uiso   1.00
O631   O     0.39858   0.40388   0.83003   0.00000  Uiso   1.00
H632   H     0.36902   0.38575   0.84105   0.00000  Uiso   1.00
O633   O     0.59090   0.27036   0.54080   0.00000  Uiso   1.00
H634   H     0.61959   0.27629   0.56733   0.00000  Uiso   1.00
O635   O     0.47406   0.17278   0.96768   0.00000  Uiso   1.00
H636   H     0.46788   0.14819   0.94404   0.00000  Uiso   1.00
O637   O     0.58235   0.28911   0.63712   0.00000  Uiso   1.00
H638   H     0.56697   0.30699   0.66040   0.00000  Uiso   1.00
O639   O     0.45232   0.18046   0.86745   0.00000  Uiso   1.00
H640   H     0.43237   0.19362   0.83886   0.00000  Uiso   1.00
C641   C     0.41497   0.20852   0.61708   0.00000  Uiso   1.00
O642   O     0.42182   0.17304   0.63720   0.00000  Uiso   1.00
O643   O     0.36562   0.22568   0.60955   0.00000  Uiso   1.00
H644   H     0.33872   0.20558   0.62222   0.00000  Uiso   1.00
C645   C     0.54981   0.32199   0.87810   0.00000  Uiso   1.00
O646   O     0.59161   0.31588   0.86501   0.00000  Uiso   1.00
O647   O     0.52964   0.36415   0.87552   0.00000  Uiso   1.00
H648   H     0.55270   0.38667   0.86110   0.00000  Uiso   1.00
C649   C     0.40635   0.22628   0.51498   0.00000  Uiso   1.00
O650   O     0.39031   0.25344   0.98475   0.00000  Uiso   1.00
O651   O     0.37859   0.18630   0.51854   0.00000  Uiso   1.00
H652   H     0.34573   0.18395   0.99451   0.00000  Uiso   1.00
C653   C     0.53032   0.32942   0.97662   0.00000  Uiso   1.00
O654   O     0.49933   0.34374   0.50103   0.00000  Uiso   1.00
O655   O     0.57768   0.35216   0.97521   0.00000  Uiso   1.00
H656   H     0.58160   0.38004   0.99562   0.00000  Uiso   1.00
C657   C     0.83723   0.16506   0.75047   0.00000  Uiso   1.00
C658   C     0.83273   0.33476   0.74991   0.00000  Uiso   1.00
C659   C     0.87872   0.26134   0.55949   0.00000  Uiso   1.00
C660   C     0.81893   0.21151   0.94456   0.00000  Uiso   1.00
C661   C     0.87566   0.26634   0.60953   0.00000  Uiso   1.00
C662   C     0.81315   0.21423   0.89337   0.00000  Uiso   1.00
C663   C     0.79156   0.23227   0.59839   0.00000  Uiso   1.00
C664   C     0.85493   0.28534   0.89892   0.00000  Uiso   1.00
C665   C     0.78922   0.23570   0.54734   0.00000  Uiso   1.00
C666   C     0.85112   0.28738   0.94916   0.00000  Uiso   1.00
C667   C     0.83415   0.24870   0.52735   0.00000  Uiso   1.00
C668   C     0.83480   0.24930   0.97293   0.00000  Uiso   1.00
C669   C     0.73465   0.24971   0.73759   0.00000  Uiso   1.00
C670   C     0.93202   0.25010   0.76244   0.00000  Uiso   1.00
C671   C     0.67927   0.24972   0.73091   0.00000  Uiso   1.00
C672   C     0.98742   0.25003   0.76925   0.00000  Uiso   1.00
C673   C     0.83761   0.04645   0.79306   0.00000  Uiso   1.00
C674   C     0.87242   0.45227   0.72830   0.00000  Uiso   1.00
C675   C     0.84217   0.09226   0.79452   0.00000  Uiso   1.00
C676   C     0.87108   0.40610   0.72823   0.00000  Uiso   1.00
C677   C     0.84379   0.11650   0.75113   0.00000  Uiso   1.00
C678   C     0.83254   0.38289   0.74963   0.00000  Uiso   1.00
C679   C     0.84866   0.09277   0.70808   0.00000  Uiso   1.00
C680   C     0.79560   0.40597   0.77142   0.00000  Uiso   1.00
C681   C     0.84448   0.04671   0.70796   0.00000  Uiso   1.00
C682   C     0.79855   0.45211   0.77172   0.00000  Uiso   1.00
C683   C     0.83842   0.02358   0.75004   0.00000  Uiso   1.00
C684   C     0.83630   0.47520   0.74986   0.00000  Uiso   1.00
Cu685  Cu    0.83333   0.25000   0.79822   0.00000  Uiso   1.00
Cu686  Cu    0.83333   0.25001   0.70179   0.00000  Uiso   1.00
H687   H     0.99246   0.24959   0.69426   0.00000  Uiso   1.00
H688   H     0.67421   0.25021   0.80599   0.00000  Uiso   1.00
H689   H     0.83567   0.02851   0.82631   0.00000  Uiso   1.00
H690   H     0.90232   0.47039   0.71240   0.00000  Uiso   1.00
H691   H     0.84702   0.02861   0.67501   0.00000  Uiso   1.00
H692   H     0.77027   0.47034   0.78766   0.00000  Uiso   1.00
N693   N     0.83333   0.25001   0.62935   0.00000  Uiso   1.00
N694   N     0.83333   0.24999   0.87066   0.00000  Uiso   1.00
O695   O     0.83334   0.18573   0.79072   0.00000  Uiso   1.00
O696   O     0.83333   0.31428   0.70929   0.00000  Uiso   1.00
O697   O     0.83334   0.18573   0.70928   0.00000  Uiso   1.00
O698   O     0.83333   0.31427   0.79072   0.00000  Uiso   1.00
O699   O     0.75828   0.25000   0.78132   0.00000  Uiso   1.00
O700   O     0.90839   0.25001   0.71868   0.00000  Uiso   1.00
O701   O     0.75828   0.25000   0.69989   0.00000  Uiso   1.00
O702   O     0.90839   0.25000   0.80012   0.00000  Uiso   1.00
O703   O     0.84639   0.11188   0.83926   0.00000  Uiso   1.00
H704   H     0.87638   0.13322   0.84170   0.00000  Uiso   1.00
O705   O     0.90779   0.38299   0.70869   0.00000  Uiso   1.00
H706   H     0.93205   0.40416   0.69551   0.00000  Uiso   1.00
C707   C     0.86149   0.11387   0.66324   0.00000  Uiso   1.00
O708   O     0.89731   0.14132   0.66505   0.00000  Uiso   1.00
O709   O     0.83427   0.10058   0.61864   0.00000  Uiso   1.00
H710   H     0.84666   0.11715   0.59068   0.00000  Uiso   1.00
C711   C     0.75241   0.38354   0.79251   0.00000  Uiso   1.00
O712   O     0.73362   0.34812   0.77637   0.00000  Uiso   1.00
O713   O     0.73191   0.40388   0.83003   0.00000  Uiso   1.00
H714   H     0.70235   0.38575   0.84105   0.00000  Uiso   1.00
O715   O     0.92424   0.27036   0.54080   0.00000  Uiso   1.00
H716   H     0.95293   0.27629   0.56733   0.00000  Uiso   1.00
O717   O     0.80740   0.17278   0.96768   0.00000  Uiso   1.00
H718   H     0.80121   0.14819   0.94404   0.00000  Uiso   1.00
O719   O     0.91569   0.28911   0.63712   0.00000  Uiso   1.00
H720   H     0.90030   0.30699   0.66040   0.00000  Uiso   1.00
O721   O     0.78565   0.18046   0.86745   0.00000  Uiso   1.00
H722   H     0.76571   0.19362   0.83886   0.00000  Uiso   1.00
C723   C     0.74830   0.20852   0.61708   0.00000  Uiso   1.00
O724   O     0.75515   0.17304   0.63720   0.00000  Uiso   1.00
O725   O     0.69895   0.22568   0.60955   0.00000  Uiso   1.00
H726   H     0.67205   0.20558   0.62222   0.00000  Uiso   1.00
C727   C     0.88314   0.32199   0.87810   0.00000  Uiso   1.00
O728   O     0.92495   0.31588   0.86501   0.00000  Uiso   1.00
O729   O     0.86298   0.36415   0.87552   0.00000  Uiso   1.00
H730   H     0.88603   0.38667   0.86110   0.00000  Uiso   1.00
C731   C     0.73968   0.22628   0.51498   0.00000  Uiso   1.00
O732   O     0.72364   0.25344   0.98475   0.00000  Uiso   1.00
O733   O     0.71192   0.18630   0.51854   0.00000  Uiso   1.00
H734   H     0.67906   0.18395   0.99451   0.00000  Uiso   1.00
C735   C     0.86366   0.32942   0.97662   0.00000  Uiso   1.00
O736   O     0.83266   0.34374   0.50103   0.00000  Uiso   1.00
O737   O     0.91101   0.35216   0.97521   0.00000  Uiso   1.00
H738   H     0.91493   0.38004   0.99562   0.00000  Uiso   1.00
C739   C     0.17056   0.66506   0.75047   0.00000  Uiso   1.00
C740   C     0.16607   0.83476   0.74991   0.00000  Uiso   1.00
C741   C     0.21206   0.76134   0.55949   0.00000  Uiso   1.00
C742   C     0.15226   0.71151   0.94456   0.00000  Uiso   1.00
C743   C     0.20899   0.76634   0.60953   0.00000  Uiso   1.00
C744   C     0.14649   0.71423   0.89337   0.00000  Uiso   1.00
C745   C     0.12489   0.73227   0.59839   0.00000  Uiso   1.00
C746   C     0.18826   0.78534   0.89892   0.00000  Uiso   1.00
C747   C     0.12255   0.73570   0.54734   0.00000  Uiso   1.00
C748   C     0.18445   0.78738   0.94916   0.00000  Uiso   1.00
C749   C     0.16748   0.74870   0.52735   0.00000  Uiso   1.00
C750   C     0.16813   0.74930   0.97293   0.00000  Uiso   1.00
C751   C     0.06798   0.74971   0.73759   0.00000  Uiso   1.00
C752   C     0.26536   0.75010   0.76244   0.00000  Uiso   1.00
C753   C     0.01260   0.74972   0.73091   0.00000  Uiso   1.00
C754   C     0.32076   0.75003   0.76925   0.00000  Uiso   1.00
C755   C     0.17094   0.54645   0.79306   0.00000  Uiso   1.00
C756   C     0.20576   0.95227   0.72830   0.00000  Uiso   1.00
C757   C     0.17551   0.59226   0.79452   0.00000  Uiso   1.00
C758   C     0.20442   0.90610   0.72823   0.00000  Uiso   1.00
C759   C     0.17712   0.61650   0.75113   0.00000  Uiso   1.00
C760   C     0.16587   0.88289   0.74963   0.00000  Uiso   1.00
C761   C     0.18200   0.59277   0.70808   0.00000  Uiso   1.00
C762   C     0.12894   0.90597   0.77142   0.00000  Uiso   1.00
C763   C     0.17781   0.54671   0.70796   0.00000  Uiso   1.00
C764   C     0.13188   0.95211   0.77172   0.00000  Uiso   1.00
C765   C     0.17175   0.52358   0.75004   0.00000  Uiso   1.00
C766   C     0.16963   0.97520   0.74986   0.00000  Uiso   1.00
Cu767  Cu    0.16667   0.75000   0.79822   0.00000  Uiso   1.00
Cu768  Cu    0.16667   0.75001   0.70179   0.00000  Uiso   1.00
H769   H     0.32580   0.74959   0.69426   0.00000  Uiso   1.00
H770   H     0.00754   0.75021   0.80599   0.00000  Uiso   1.00
H771   H     0.16901   0.52851   0.82631   0.00000  Uiso   1.00
H772   H     0.23565   0.97039   0.71240   0.00000  Uiso   1.00
H773   H     0.18035   0.52861   0.67501   0.00000  Uiso   1.00
H774   H     0.10361   0.97034   0.78766   0.00000  Uiso   1.00
N775   N     0.16667   0.75001   0.62935   0.00000  Uiso   1.00
N776   N     0.16667   0.74999   0.87066   0.00000  Uiso   1.00
O777   O     0.16667   0.68573   0.79072   0.00000  Uiso   1.00
O778   O     0.16666   0.81428   0.70929   0.00000  Uiso   1.00
O779   O     0.16667   0.68573   0.70928   0.00000  Uiso   1.00
O780   O     0.16666   0.81427   0.79072   0.00000  Uiso   1.00
O781   O     0.09161   0.75000   0.78132   0.00000  Uiso   1.00
O782   O     0.24172   0.75001   0.71868   0.00000  Uiso   1.00
O783   O     0.09161   0.75000   0.69989   0.00000  Uiso   1.00
O784   O     0.24172   0.75000   0.80012   0.00000  Uiso   1.00
O785   O     0.17972   0.61188   0.83926   0.00000  Uiso   1.00
H786   H     0.20972   0.63322   0.84170   0.00000  Uiso   1.00
O787   O     0.24113   0.88299   0.70869   0.00000  Uiso   1.00
H788   H     0.26538   0.90416   0.69551   0.00000  Uiso   1.00
C789   C     0.19482   0.61387   0.66324   0.00000  Uiso   1.00
O790   O     0.23064   0.64132   0.66505   0.00000  Uiso   1.00
O791   O     0.16760   0.60058   0.61864   0.00000  Uiso   1.00
H792   H     0.18000   0.61715   0.59068   0.00000  Uiso   1.00
C793   C     0.08575   0.88354   0.79251   0.00000  Uiso   1.00
O794   O     0.06695   0.84812   0.77637   0.00000  Uiso   1.00
O795   O     0.06524   0.90388   0.83003   0.00000  Uiso   1.00
H796   H     0.03568   0.88575   0.84105   0.00000  Uiso   1.00
O797   O     0.25757   0.77036   0.54080   0.00000  Uiso   1.00
H798   H     0.28626   0.77629   0.56733   0.00000  Uiso   1.00
O799   O     0.14073   0.67278   0.96768   0.00000  Uiso   1.00
H800   H     0.13454   0.64819   0.94404   0.00000  Uiso   1.00
O801   O     0.24902   0.78911   0.63712   0.00000  Uiso   1.00
H802   H     0.23363   0.80699   0.66040   0.00000  Uiso   1.00
O803   O     0.11898   0.68046   0.86745   0.00000  Uiso   1.00
H804   H     0.09904   0.69362   0.83886   0.00000  Uiso   1.00
C805   C     0.08164   0.70852   0.61708   0.00000  Uiso   1.00
O806   O     0.08848   0.67304   0.63720   0.00000  Uiso   1.00
O807   O     0.03228   0.72568   0.60955   0.00000  Uiso   1.00
H808   H     0.00539   0.70558   0.62222   0.00000  Uiso   1.00
C809   C     0.21647   0.82199   0.87810   0.00000  Uiso   1.00
O810   O     0.25828   0.81588   0.86501   0.00000  Uiso   1.00
O811   O     0.19631   0.86415   0.87552   0.00000  Uiso   1.00
H812   H     0.21936   0.88667   0.86110   0.00000  Uiso   1.00
C813   C     0.07302   0.72628   0.51498   0.00000  Uiso   1.00
O814   O     0.05697   0.75344   0.98475   0.00000  Uiso   1.00
O815   O     0.04526   0.68630   0.51854   0.00000  Uiso   1.00
H816   H     0.01240   0.68395   0.99451   0.00000  Uiso   1.00
C817   C     0.19699   0.82942   0.97662   0.00000  Uiso   1.00
O818   O     0.16600   0.84374   0.50103   0.00000  Uiso   1.00
O819   O     0.24435   0.85216   0.97521   0.00000  Uiso   1.00
H820   H     0.24826   0.88004   0.99562   0.00000  Uiso   1.00
C821   C     0.50389   0.66506   0.75047   0.00000  Uiso   1.00
C822   C     0.49940   0.83476   0.74991   0.00000  Uiso   1.00
C823   C     0.54539   0.76134   0.55949   0.00000  Uiso   1.00
C824   C     0.48560   0.71151   0.94456   0.00000  Uiso   1.00
C825   C     0.54232   0.76634   0.60953   0.00000  Uiso   1.00
C826   C     0.47982   0.71423   0.89337   0.00000  Uiso   1.00
C827   C     0.45822   0.73227   0.59839   0.00000  Uiso   1.00
C828   C     0.52160   0.78534   0.89892   0.00000  Uiso   1.00
C829   C     0.45589   0.73570   0.54734   0.00000  Uiso   1.00
C830   C     0.51779   0.78738   0.94916   0.00000  Uiso   1.00
C831   C     0.50081   0.74870   0.52735   0.00000  Uiso   1.00
C832   C     0.50146   0.74930   0.97293   0.00000  Uiso   1.00
C833   C     0.40131   0.74971   0.73759   0.00000  Uiso   1.00
C834   C     0.59869   0.75010   0.76244   0.00000  Uiso   1.00
C835   C     0.34593   0.74972   0.73091   0.00000  Uiso   1.00
C836   C     0.65409   0.75003   0.76925   0.00000  Uiso   1.00
C837   C     0.50428   0.54645   0.79306   0.00000  Uiso   1.00
C838   C     0.53909   0.95227   0.72830   0.00000  Uiso   1.00
C839   C     0.50884   0.59226   0.79452   0.00000  Uiso   1.00
C840   C     0.53775   0.90610   0.72823   0.00000  Uiso   1.00
C841   C     0.51045   0.61650   0.75113   0.00000  Uiso   1.00
C842   C     0.49921   0.88289   0.74963   0.00000  Uiso   1.00
C843   C     0.51533   0.59277   0.70808   0.00000  Uiso   1.00
C844   C     0.46227   0.90597   0.77142   0.00000  Uiso   1.00
C845   C     0.51115   0.54671   0.70796   0.00000  Uiso   1.00
C846   C     0.46521   0.95211   0.77172   0.00000  Uiso   1.00
C847   C     0.50509   0.52358   0.75004   0.00000  Uiso   1.00
C848   C     0.50297   0.97520   0.74986   0.00000  Uiso   1.00
Cu849  Cu    0.50000   0.75000   0.79822   0.00000  Uiso   1.00
Cu850  Cu    0.50000   0.75001   0.70179   0.00000  Uiso   1.00
H851   H     0.65913   0.74959   0.69426   0.00000  Uiso   1.00
H852   H     0.34088   0.75021   0.80599   0.00000  Uiso   1.00
H853   H     0.50234   0.52851   0.82631   0.00000  Uiso   1.00
H854   H     0.56898   0.97039   0.71240   0.00000  Uiso   1.00
H855   H     0.51369   0.52861   0.67501   0.00000  Uiso   1.00
H856   H     0.43694   0.97034   0.78766   0.00000  Uiso   1.00
N857   N     0.50000   0.75001   0.62935   0.00000  Uiso   1.00
N858   N     0.50000   0.74999   0.87066   0.00000  Uiso   1.00
O859   O     0.50000   0.68573   0.79072   0.00000  Uiso   1.00
O860   O     0.50000   0.81428   0.70929   0.00000  Uiso   1.00
O861   O     0.50000   0.68573   0.70928   0.00000  Uiso   1.00
O862   O     0.50000   0.81427   0.79072   0.00000  Uiso   1.00
O863   O     0.42495   0.75000   0.78132   0.00000  Uiso   1.00
O864   O     0.57505   0.75001   0.71868   0.00000  Uiso   1.00
O865   O     0.42495   0.75000   0.69989   0.00000  Uiso   1.00
O866   O     0.57505   0.75000   0.80012   0.00000  Uiso   1.00
O867   O     0.51306   0.61188   0.83926   0.00000  Uiso   1.00
H868   H     0.54305   0.63322   0.84170   0.00000  Uiso   1.00
O869   O     0.57446   0.88299   0.70869   0.00000  Uiso   1.00
H870   H     0.59871   0.90416   0.69551   0.00000  Uiso   1.00
C871   C     0.52816   0.61387   0.66324   0.00000  Uiso   1.00
O872   O     0.56397   0.64132   0.66505   0.00000  Uiso   1.00
O873   O     0.50094   0.60058   0.61864   0.00000  Uiso   1.00
H874   H     0.51333   0.61715   0.59068   0.00000  Uiso   1.00
C875   C     0.41908   0.88354   0.79251   0.00000  Uiso   1.00
O876   O     0.40029   0.84812   0.77637   0.00000  Uiso   1.00
O877   O     0.39858   0.90388   0.83003   0.00000  Uiso   1.00
H878   H     0.36902   0.88575   0.84105   0.00000  Uiso   1.00
O879   O     0.59090   0.77036   0.54080   0.00000  Uiso   1.00
H880   H     0.61959   0.77629   0.56733   0.00000  Uiso   1.00
O881   O     0.47406   0.67278   0.96768   0.00000  Uiso   1.00
H882   H     0.46788   0.64819   0.94404   0.00000  Uiso   1.00
O883   O     0.58235   0.78911   0.63712   0.00000  Uiso   1.00
H884   H     0.56697   0.80699   0.66040   0.00000  Uiso   1.00
O885   O     0.45232   0.68046   0.86745   0.00000  Uiso   1.00
H886   H     0.43237   0.69362   0.83886   0.00000  Uiso   1.00
C887   C     0.41497   0.70852   0.61708   0.00000  Uiso   1.00
O888   O     0.42182   0.67304   0.63720   0.00000  Uiso   1.00
O889   O     0.36562   0.72568   0.60955   0.00000  Uiso   1.00
H890   H     0.33872   0.70558   0.62222   0.00000  Uiso   1.00
C891   C     0.54981   0.82199   0.87810   0.00000  Uiso   1.00
O892   O     0.59161   0.81588   0.86501   0.00000  Uiso   1.00
O893   O     0.52964   0.86415   0.87552   0.00000  Uiso   1.00
H894   H     0.55270   0.88667   0.86110   0.00000  Uiso   1.00
C895   C     0.40635   0.72628   0.51498   0.00000  Uiso   1.00
O896   O     0.39031   0.75344   0.98475   0.00000  Uiso   1.00
O897   O     0.37859   0.68630   0.51854   0.00000  Uiso   1.00
H898   H     0.34573   0.68395   0.99451   0.00000  Uiso   1.00
C899   C     0.53032   0.82942   0.97662   0.00000  Uiso   1.00
O900   O     0.49933   0.84374   0.50103   0.00000  Uiso   1.00
O901   O     0.57768   0.85216   0.97521   0.00000  Uiso   1.00
H902   H     0.58160   0.88004   0.99562   0.00000  Uiso   1.00
C903   C     0.83723   0.66506   0.75047   0.00000  Uiso   1.00
C904   C     0.83273   0.83476   0.74991   0.00000  Uiso   1.00
C905   C     0.87872   0.76134   0.55949   0.00000  Uiso   1.00
C906   C     0.81893   0.71151   0.94456   0.00000  Uiso   1.00
C907   C     0.87566   0.76634   0.60953   0.00000  Uiso   1.00
C908   C     0.81315   0.71423   0.89337   0.00000  Uiso   1.00
C909   C     0.79156   0.73227   0.59839   0.00000  Uiso   1.00
C910   C     0.85493   0.78534   0.89892   0.00000  Uiso   1.00
C911   C     0.78922   0.73570   0.54734   0.00000  Uiso   1.00
C912   C     0.85112   0.78738   0.94916   0.00000  Uiso   1.00
C913   C     0.83415   0.74870   0.52735   0.00000  Uiso   1.00
C914   C     0.83480   0.74930   0.97293   0.00000  Uiso   1.00
C915   C     0.73465   0.74971   0.73759   0.00000  Uiso   1.00
C916   C     0.93202   0.75010   0.76244   0.00000  Uiso   1.00
C917   C     0.67927   0.74972   0.73091   0.00000  Uiso   1.00
C918   C     0.98742   0.75003   0.76925   0.00000  Uiso   1.00
C919   C     0.83761   0.54645   0.79306   0.00000  Uiso   1.00
C920   C     0.87242   0.95227   0.72830   0.00000  Uiso   1.00
C921   C     0.84217   0.59226   0.79452   0.00000  Uiso   1.00
C922   C     0.87108   0.90610   0.72823   0.00000  Uiso   1.00
C923   C     0.84379   0.61650   0.75113   0.00000  Uiso   1.00
C924   C     0.83254   0.88289   0.74963   0.00000  Uiso   1.00
C925   C     0.84866   0.59277   0.70808   0.00000  Uiso   1.00
C926   C     0.79560   0.90597   0.77142   0.00000  Uiso   1.00
C927   C     0.84448   0.54671   0.70796   0.00000  Uiso   1.00
C928   C     0.79855   0.95211   0.77172   0.00000  Uiso   1.00
C929   C     0.83842   0.52358   0.75004   0.00000  Uiso   1.00
C930   C     0.83630   0.97520   0.74986   0.00000  Uiso   1.00
Cu931  Cu    0.83333   0.75000   0.79822   0.00000  Uiso   1.00
Cu932  Cu    0.83333   0.75001   0.70179   0.00000  Uiso   1.00
H933   H     0.99246   0.74959   0.69426   0.00000  Uiso   1.00
H934   H     0.67421   0.75021   0.80599   0.00000  Uiso   1.00
H935   H     0.83567   0.52851   0.82631   0.00000  Uiso   1.00
H936   H     0.90232   0.97039   0.71240   0.00000  Uiso   1.00
H937   H     0.84702   0.52861   0.67501   0.00000  Uiso   1.00
H938   H     0.77027   0.97034   0.78766   0.00000  Uiso   1.00
N939   N     0.83333   0.75001   0.62935   0.00000  Uiso   1.00
N940   N     0.83333   0.74999   0.87066   0.00000  Uiso   1.00
O941   O     0.83334   0.68573   0.79072   0.00000  Uiso   1.00
O942   O     0.83333   0.81428   0.70929   0.00000  Uiso   1.00
O943   O     0.83334   0.68573   0.70928   0.00000  Uiso   1.00
O944   O     0.83333   0.81427   0.79072   0.00000  Uiso   1.00
O945   O     0.75828   0.75000   0.78132   0.00000  Uiso   1.00
O946   O     0.90839   0.75001   0.71868   0.00000  Uiso   1.00
O947   O     0.75828   0.75000   0.69989   0.00000  Uiso   1.00
O948   O     0.90839   0.75000   0.80012   0.00000  Uiso   1.00
O949   O     0.84639   0.61188   0.83926   0.00000  Uiso   1.00
H950   H     0.87638   0.63322   0.84170   0.00000  Uiso   1.00
O951   O     0.90779   0.88299   0.70869   0.00000  Uiso   1.00
H952   H     0.93205   0.90416   0.69551   0.00000  Uiso   1.00
C953   C     0.86149   0.61387   0.66324   0.00000  Uiso   1.00
O954   O     0.89731   0.64132   0.66505   0.00000  Uiso   1.00
O955   O     0.83427   0.60058   0.61864   0.00000  Uiso   1.00
H956   H     0.84666   0.61715   0.59068   0.00000  Uiso   1.00
C957   C     0.75241   0.88354   0.79251   0.00000  Uiso   1.00
O958   O     0.73362   0.84812   0.77637   0.00000  Uiso   1.00
O959   O     0.73191   0.90388   0.83003   0.00000  Uiso   1.00
H960   H     0.70235   0.88575   0.84105   0.00000  Uiso   1.00
O961   O     0.92424   0.77036   0.54080   0.00000  Uiso   1.00
H962   H     0.95293   0.77629   0.56733   0.00000  Uiso   1.00
O963   O     0.80740   0.67278   0.96768   0.00000  Uiso   1.00
H964   H     0.80121   0.64819   0.94404   0.00000  Uiso   1.00
O965   O     0.91569   0.78911   0.63712   0.00000  Uiso   1.00
H966   H     0.90030   0.80699   0.66040   0.00000  Uiso   1.00
O967   O     0.78565   0.68046   0.86745   0.00000  Uiso   1.00
H968   H     0.76571   0.69362   0.83886   0.00000  Uiso   1.00
C969   C     0.74830   0.70852   0.61708   0.00000  Uiso   1.00
O970   O     0.75515   0.67304   0.63720   0.00000  Uiso   1.00
O971   O     0.69895   0.72568   0.60955   0.00000  Uiso   1.00
H972   H     0.67205   0.70558   0.62222   0.00000  Uiso   1.00
C973   C     0.88314   0.82199   0.87810   0.00000  Uiso   1.00
O974   O     0.92495   0.81588   0.86501   0.00000  Uiso   1.00
O975   O     0.86298   0.86415   0.87552   0.00000  Uiso   1.00
H976   H     0.88603   0.88667   0.86110   0.00000  Uiso   1.00
C977   C     0.73968   0.72628   0.51498   0.00000  Uiso   1.00
O978   O     0.72364   0.75344   0.98475   0.00000  Uiso   1.00
O979   O     0.71192   0.68630   0.51854   0.00000  Uiso   1.00
H980   H     0.67906   0.68395   0.99451   0.00000  Uiso   1.00
C981   C     0.86366   0.82942   0.97662   0.00000  Uiso   1.00
O982   O     0.83266   0.84374   0.50103   0.00000  Uiso   1.00
O983   O     0.91101   0.85216   0.97521   0.00000  Uiso   1.00
H984   H     0.91493   0.88004   0.99562   0.00000  Uiso   1.00
loop_
_geom_bond_atom_site_label_1
_geom_bond_atom_site_label_2
_geom_bond_distance
_geom_bond_site_symmetry_2
_ccdc_geom_bond_type
C1     C21     1.488   .     S
C1     O41     1.306   .     A
C1     O39     1.308   .     A
C2     C22     1.459   .     S
C2     O42     1.299   .     A
C2     O40     1.298   .     A
C3     C5      1.423   .     A
C3     C11     1.409   .     A
C3     O59     1.384   .     S
C4     C12     1.409   .     A
C4     C6      1.422   .     A
C4     O61     1.383   .     S
C5     N37     1.381   .     A
C5     O63     1.372   .     S
C6     O65     1.373   .     S
C6     N38     1.381   .     A
C7     N37     1.386   .     A
C7     C9      1.426   .     A
C7     C67     1.474   .     S
C8     N38     1.385   .     A
C8     C71     1.474   .     S
C8     C10     1.426   .     A
C9     C11     1.413   .     A
C9     C75     1.490   .     S
C10    C79     1.489   .     S
C10    C12     1.413   .     A
C11    C504    1.526   1_554 S
C12    C503    1.526   .     S
C13    C15     1.433   .     S
C13    O43     1.291   .     A
C13    O45     1.296   .     A
C14    O46     1.295   .     A
C14    C16     1.434   .     S
C14    O44     1.292   .     A
C15    C180    1.336   1_455 S
C15    H195    1.085   1_455 S
C16    C97     1.336   .     S
C16    H114    1.087   .     S
C17    H33     1.084   .     S
C17    C27     1.393   .     A
C17    C19     1.389   .     A
C18    C20     1.398   .     A
C18    C28     1.397   .     A
C18    H34     1.084   .     S
C19    C21     1.424   .     A
C19    O47     1.375   .     S
C20    O49     1.382   .     S
C20    C22     1.409   .     A
C21    C23     1.427   .     A
C22    C24     1.419   .     A
C23    C51     1.483   .     S
C23    C25     1.396   .     A
C24    C55     1.488   .     S
C24    C26     1.397   .     A
C25    H35     1.085   .     S
C25    C27     1.396   .     A
C26    H36     1.084   .     S
C26    C28     1.398   .     A
C27    C274    1.465   1_545 S
C28    C273    1.465   .     S
Cu29   O42     1.959   .     S
Cu29   Cu30    2.700   .     S
Cu29   N38     2.028   .     S
Cu29   O43     1.952   .     S
Cu29   O39     1.959   .     S
Cu29   O46     1.955   .     S
Cu30   O45     1.955   .     S
Cu30   O41     1.959   .     S
Cu30   O44     1.952   .     S
Cu30   N37     2.028   .     S
Cu30   O40     1.959   .     S
H31    C97     1.085   .     S
H32    C180    1.087   1_455 S
O47    H48     0.991   .     S
O49    H50     0.992   .     S
C51    O52     1.223   .     D
C51    O53     1.398   .     S
O53    H54     1.014   .     S
C55    O56     1.222   .     D
C55    O57     1.399   .     S
O57    H58     1.014   .     S
O59    H60     0.989   .     S
O61    H62     0.990   .     S
O63    H64     0.986   .     S
O65    H66     0.985   .     S
C67    O68     1.221   .     D
C67    O69     1.398   .     S
O69    H70     1.014   .     S
C71    O72     1.221   .     D
C71    O73     1.399   .     S
O73    H74     1.014   .     S
C75    O77     1.398   .     S
C75    O568    1.223   1_554 S
O76    C567    1.223   .     S
O77    H570    1.014   1_554 S
H78    O569    1.014   .     S
C79    O81     1.398   .     S
C79    O572    1.223   .     S
O80    C571    1.223   1_554 S
O81    H82     1.014   .     S
C83    C103    1.488   .     S
C83    O123    1.306   .     A
C83    O121    1.308   .     A
C84    C104    1.459   .     S
C84    O124    1.299   .     A
C84    O122    1.298   .     A
C85    C87     1.423   .     A
C85    C93     1.409   .     A
C85    O141    1.384   .     S
C86    C94     1.409   .     A
C86    C88     1.422   .     A
C86    O143    1.383   .     S
C87    N119    1.381   .     A
C87    O145    1.372   .     S
C88    O147    1.373   .     S
C88    N120    1.381   .     A
C89    N119    1.386   .     A
C89    C91     1.426   .     A
C89    C149    1.474   .     S
C90    N120    1.385   .     A
C90    C153    1.474   .     S
C90    C92     1.426   .     A
C91    C93     1.413   .     A
C91    C157    1.490   .     S
C92    C161    1.489   .     S
C92    C94     1.413   .     A
C93    C586    1.526   1_554 S
C94    C585    1.526   .     S
C95    C97     1.433   .     S
C95    O125    1.291   .     A
C95    O127    1.296   .     A
C96    O128    1.295   .     A
C96    C98     1.434   .     S
C96    O126    1.292   .     A
C98    C179    1.336   .     S
C98    H196    1.087   .     S
C99    H115    1.084   .     S
C99    C109    1.393   .     A
C99    C101    1.389   .     A
C100   C102    1.398   .     A
C100   C110    1.397   .     A
C100   H116    1.084   .     S
C101   C103    1.424   .     A
C101   O129    1.375   .     S
C102   O131    1.382   .     S
C102   C104    1.409   .     A
C103   C105    1.427   .     A
C104   C106    1.419   .     A
C105   C133    1.483   .     S
C105   C107    1.396   .     A
C106   C137    1.488   .     S
C106   C108    1.397   .     A
C107   H117    1.085   .     S
C107   C109    1.396   .     A
C108   H118    1.084   .     S
C108   C110    1.398   .     A
C109   C356    1.465   1_545 S
C110   C355    1.465   .     S
Cu111  O124    1.959   .     S
Cu111  Cu112   2.700   .     S
Cu111  N120    2.028   .     S
Cu111  O125    1.952   .     S
Cu111  O121    1.959   .     S
Cu111  O128    1.955   .     S
Cu112  O127    1.955   .     S
Cu112  O123    1.959   .     S
Cu112  O126    1.952   .     S
Cu112  N119    2.028   .     S
Cu112  O122    1.959   .     S
H113   C179    1.085   .     S
O129   H130    0.991   .     S
O131   H132    0.992   .     S
C133   O134    1.223   .     D
C133   O135    1.398   .     S
O135   H136    1.014   .     S
C137   O138    1.222   .     D
C137   O139    1.399   .     S
O139   H140    1.014   .     S
O141   H142    0.989   .     S
O143   H144    0.990   .     S
O145   H146    0.986   .     S
O147   H148    0.985   .     S
C149   O150    1.221   .     D
C149   O151    1.398   .     S
O151   H152    1.014   .     S
C153   O154    1.221   .     D
C153   O155    1.399   .     S
O155   H156    1.014   .     S
C157   O159    1.398   .     S
C157   O650    1.223   1_554 S
O158   C649    1.223   .     S
O159   H652    1.014   1_554 S
H160   O651    1.014   .     S
C161   O163    1.398   .     S
C161   O654    1.223   .     S
O162   C653    1.223   1_554 S
O163   H164    1.014   .     S
C165   C185    1.488   .     S
C165   O205    1.306   .     A
C165   O203    1.308   .     A
C166   C186    1.459   .     S
C166   O206    1.299   .     A
C166   O204    1.298   .     A
C167   C169    1.423   .     A
C167   C175    1.409   .     A
C167   O223    1.384   .     S
C168   C176    1.409   .     A
C168   C170    1.422   .     A
C168   O225    1.383   .     S
C169   N201    1.381   .     A
C169   O227    1.372   .     S
C170   O229    1.373   .     S
C170   N202    1.381   .     A
C171   N201    1.386   .     A
C171   C173    1.426   .     A
C171   C231    1.474   .     S
C172   N202    1.385   .     A
C172   C235    1.474   .     S
C172   C174    1.426   .     A
C173   C175    1.413   .     A
C173   C239    1.490   .     S
C174   C243    1.489   .     S
C174   C176    1.413   .     A
C175   C668    1.526   1_554 S
C176   C667    1.526   .     S
C177   C179    1.433   .     S
C177   O207    1.291   .     A
C177   O209    1.296   .     A
C178   O210    1.295   .     A
C178   C180    1.434   .     S
C178   O208    1.292   .     A
C180   C15     1.336   1_655 S
C180   H32     1.087   1_655 S
C181   H197    1.084   .     S
C181   C191    1.393   .     A
C181   C183    1.389   .     A
C182   C184    1.398   .     A
C182   C192    1.397   .     A
C182   H198    1.084   .     S
C183   C185    1.424   .     A
C183   O211    1.375   .     S
C184   O213    1.382   .     S
C184   C186    1.409   .     A
C185   C187    1.427   .     A
C186   C188    1.419   .     A
C187   C215    1.483   .     S
C187   C189    1.396   .     A
C188   C219    1.488   .     S
C188   C190    1.397   .     A
C189   H199    1.085   .     S
C189   C191    1.396   .     A
C190   H200    1.084   .     S
C190   C192    1.398   .     A
C191   C438    1.465   1_545 S
C192   C437    1.465   .     S
Cu193  O206    1.959   .     S
Cu193  Cu194   2.700   .     S
Cu193  N202    2.028   .     S
Cu193  O207    1.952   .     S
Cu193  O203    1.959   .     S
Cu193  O210    1.955   .     S
Cu194  O209    1.955   .     S
Cu194  O205    1.959   .     S
Cu194  O208    1.952   .     S
Cu194  N201    2.028   .     S
Cu194  O204    1.959   .     S
H195   C15     1.085   1_655 S
O211   H212    0.991   .     S
O213   H214    0.992   .     S
C215   O216    1.223   .     D
C215   O217    1.398   .     S
O217   H218    1.014   .     S
C219   O220    1.222   .     D
C219   O221    1.399   .     S
O221   H222    1.014   .     S
O223   H224    0.989   .     S
O225   H226    0.990   .     S
O227   H228    0.986   .     S
O229   H230    0.985   .     S
C231   O232    1.221   .     D
C231   O233    1.398   .     S
O233   H234    1.014   .     S
C235   O236    1.221   .     D
C235   O237    1.399   .     S
O237   H238    1.014   .     S
C239   O241    1.398   .     S
C239   O732    1.223   1_554 S
O240   C731    1.223   .     S
O241   H734    1.014   1_554 S
H242   O733    1.014   .     S
C243   O245    1.398   .     S
C243   O736    1.223   .     S
O244   C735    1.223   1_554 S
O245   H246    1.014   .     S
C247   C267    1.488   .     S
C247   O287    1.306   .     A
C247   O285    1.308   .     A
C248   C268    1.459   .     S
C248   O288    1.299   .     A
C248   O286    1.298   .     A
C249   C251    1.423   .     A
C249   C257    1.409   .     A
C249   O305    1.384   .     S
C250   C258    1.409   .     A
C250   C252    1.422   .     A
C250   O307    1.383   .     S
C251   N283    1.381   .     A
C251   O309    1.372   .     S
C252   O311    1.373   .     S
C252   N284    1.381   .     A
C253   N283    1.386   .     A
C253   C255    1.426   .     A
C253   C313    1.474   .     S
C254   N284    1.385   .     A
C254   C317    1.474   .     S
C254   C256    1.426   .     A
C255   C257    1.413   .     A
C255   C321    1.490   .     S
C256   C325    1.489   .     S
C256   C258    1.413   .     A
C257   C750    1.526   1_554 S
C258   C749    1.526   .     S
C259   C261    1.433   .     S
C259   O289    1.291   .     A
C259   O291    1.296   .     A
C260   O292    1.295   .     A
C260   C262    1.434   .     S
C260   O290    1.292   .     A
C261   C426    1.336   1_455 S
C261   H441    1.085   1_455 S
C262   C343    1.336   .     S
C262   H360    1.087   .     S
C263   H279    1.084   .     S
C263   C273    1.393   .     A
C263   C265    1.389   .     A
C264   C266    1.398   .     A
C264   C274    1.397   .     A
C264   H280    1.084   .     S
C265   C267    1.424   .     A
C265   O293    1.375   .     S
C266   O295    1.382   .     S
C266   C268    1.409   .     A
C267   C269    1.427   .     A
C268   C270    1.419   .     A
C269   C297    1.483   .     S
C269   C271    1.396   .     A
C270   C301    1.488   .     S
C270   C272    1.397   .     A
C271   H281    1.085   .     S
C271   C273    1.396   .     A
C272   H282    1.084   .     S
C272   C274    1.398   .     A
C274   C27     1.465   1_565 S
Cu275  O288    1.959   .     S
Cu275  Cu276   2.700   .     S
Cu275  N284    2.028   .     S
Cu275  O289    1.952   .     S
Cu275  O285    1.959   .     S
Cu275  O292    1.955   .     S
Cu276  O291    1.955   .     S
Cu276  O287    1.959   .     S
Cu276  O290    1.952   .     S
Cu276  N283    2.028   .     S
Cu276  O286    1.959   .     S
H277   C343    1.085   .     S
H278   C426    1.087   1_455 S
O293   H294    0.991   .     S
O295   H296    0.992   .     S
C297   O298    1.223   .     D
C297   O299    1.398   .     S
O299   H300    1.014   .     S
C301   O302    1.222   .     D
C301   O303    1.399   .     S
O303   H304    1.014   .     S
O305   H306    0.989   .     S
O307   H308    0.990   .     S
O309   H310    0.986   .     S
O311   H312    0.985   .     S
C313   O314    1.221   .     D
C313   O315    1.398   .     S
O315   H316    1.014   .     S
C317   O318    1.221   .     D
C317   O319    1.399   .     S
O319   H320    1.014   .     S
C321   O323    1.398   .     S
C321   O814    1.223   1_554 S
O322   C813    1.223   .     S
O323   H816    1.014   1_554 S
H324   O815    1.014   .     S
C325   O327    1.398   .     S
C325   O818    1.223   .     S
O326   C817    1.223   1_554 S
O327   H328    1.014   .     S
C329   C349    1.488   .     S
C329   O369    1.306   .     A
C329   O367    1.308   .     A
C330   C350    1.459   .     S
C330   O370    1.299   .     A
C330   O368    1.298   .     A
C331   C333    1.423   .     A
C331   C339    1.409   .     A
C331   O387    1.384   .     S
C332   C340    1.409   .     A
C332   C334    1.422   .     A
C332   O389    1.383   .     S
C333   N365    1.381   .     A
C333   O391    1.372   .     S
C334   O393    1.373   .     S
C334   N366    1.381   .     A
C335   N365    1.386   .     A
C335   C337    1.426   .     A
C335   C395    1.474   .     S
C336   N366    1.385   .     A
C336   C399    1.474   .     S
C336   C338    1.426   .     A
C337   C339    1.413   .     A
C337   C403    1.490   .     S
C338   C407    1.489   .     S
C338   C340    1.413   .     A
C339   C832    1.526   1_554 S
C340   C831    1.526   .     S
C341   C343    1.433   .     S
C341   O371    1.291   .     A
C341   O373    1.296   .     A
C342   O374    1.295   .     A
C342   C344    1.434   .     S
C342   O372    1.292   .     A
C344   C425    1.336   .     S
C344   H442    1.087   .     S
C345   H361    1.084   .     S
C345   C355    1.393   .     A
C345   C347    1.389   .     A
C346   C348    1.398   .     A
C346   C356    1.397   .     A
C346   H362    1.084   .     S
C347   C349    1.424   .     A
C347   O375    1.375   .     S
C348   O377    1.382   .     S
C348   C350    1.409   .     A
C349   C351    1.427   .     A
C350   C352    1.419   .     A
C351   C379    1.483   .     S
C351   C353    1.396   .     A
C352   C383    1.488   .     S
C352   C354    1.397   .     A
C353   H363    1.085   .     S
C353   C355    1.396   .     A
C354   H364    1.084   .     S
C354   C356    1.398   .     A
C356   C109    1.465   1_565 S
Cu357  O370    1.959   .     S
Cu357  Cu358   2.700   .     S
Cu357  N366    2.028   .     S
Cu357  O371    1.952   .     S
Cu357  O367    1.959   .     S
Cu357  O374    1.955   .     S
Cu358  O373    1.955   .     S
Cu358  O369    1.959   .     S
Cu358  O372    1.952   .     S
Cu358  N365    2.028   .     S
Cu358  O368    1.959   .     S
H359   C425    1.085   .     S
O375   H376    0.991   .     S
O377   H378    0.992   .     S
C379   O380    1.223   .     D
C379   O381    1.398   .     S
O381   H382    1.014   .     S
C383   O384    1.222   .     D
C383   O385    1.399   .     S
O385   H386    1.014   .     S
O387   H388    0.989   .     S
O389   H390    0.990   .     S
O391   H392    0.986   .     S
O393   H394    0.985   .     S
C395   O396    1.221   .     D
C395   O397    1.398   .     S
O397   H398    1.014   .     S
C399   O400    1.221   .     D
C399   O401    1.399   .     S
O401   H402    1.014   .     S
C403   O405    1.398   .     S
C403   O896    1.223   1_554 S
O404   C895    1.223   .     S
O405   H898    1.014   1_554 S
H406   O897    1.014   .     S
C407   O409    1.398   .     S
C407   O900    1.223   .     S
O408   C899    1.223   1_554 S
O409   H410    1.014   .     S
C411   C431    1.488   .     S
C411   O451    1.306   .     A
C411   O449    1.308   .     A
C412   C432    1.459   .     S
C412   O452    1.299   .     A
C412   O450    1.298   .     A
C413   C415    1.423   .     A
C413   C421    1.409   .     A
C413   O469    1.384   .     S
C414   C422    1.409   .     A
C414   C416    1.422   .     A
C414   O471    1.383   .     S
C415   N447    1.381   .     A
C415   O473    1.372   .     S
C416   O475    1.373   .     S
C416   N448    1.381   .     A
C417   N447    1.386   .     A
C417   C419    1.426   .     A
C417   C477    1.474   .     S
C418   N448    1.385   .     A
C418   C481    1.474   .     S
C418   C420    1.426   .     A
C419   C421    1.413   .     A
C419   C485    1.490   .     S
C420   C489    1.489   .     S
C420   C422    1.413   .     A
C421   C914    1.526   1_554 S
C422   C913    1.526   .     S
C423   C425    1.433   .     S
C423   O453    1.291   .     A
C423   O455    1.296   .     A
C424   O456    1.295   .     A
C424   C426    1.434   .     S
C424   O454    1.292   .     A
C426   C261    1.336   1_655 S
C426   H278    1.087   1_655 S
C427   H443    1.084   .     S
C427   C437    1.393   .     A
C427   C429    1.389   .     A
C428   C430    1.398   .     A
C428   C438    1.397   .     A
C428   H444    1.084   .     S
C429   C431    1.424   .     A
C429   O457    1.375   .     S
C430   O459    1.382   .     S
C430   C432    1.409   .     A
C431   C433    1.427   .     A
C432   C434    1.419   .     A
C433   C461    1.483   .     S
C433   C435    1.396   .     A
C434   C465    1.488   .     S
C434   C436    1.397   .     A
C435   H445    1.085   .     S
C435   C437    1.396   .     A
C436   H446    1.084   .     S
C436   C438    1.398   .     A
C438   C191    1.465   1_565 S
Cu439  O452    1.959   .     S
Cu439  Cu440   2.700   .     S
Cu439  N448    2.028   .     S
Cu439  O453    1.952   .     S
Cu439  O449    1.959   .     S
Cu439  O456    1.955   .     S
Cu440  O455    1.955   .     S
Cu440  O451    1.959   .     S
Cu440  O454    1.952   .     S
Cu440  N447    2.028   .     S
Cu440  O450    1.959   .     S
H441   C261    1.085   1_655 S
O457   H458    0.991   .     S
O459   H460    0.992   .     S
C461   O462    1.223   .     D
C461   O463    1.398   .     S
O463   H464    1.014   .     S
C465   O466    1.222   .     D
C465   O467    1.399   .     S
O467   H468    1.014   .     S
O469   H470    0.989   .     S
O471   H472    0.990   .     S
O473   H474    0.986   .     S
O475   H476    0.985   .     S
C477   O478    1.221   .     D
C477   O479    1.398   .     S
O479   H480    1.014   .     S
C481   O482    1.221   .     D
C481   O483    1.399   .     S
O483   H484    1.014   .     S
C485   O487    1.398   .     S
C485   O978    1.223   1_554 S
O486   C977    1.223   .     S
O487   H980    1.014   1_554 S
H488   O979    1.014   .     S
C489   O491    1.398   .     S
C489   O982    1.223   .     S
O490   C981    1.223   1_554 S
O491   H492    1.014   .     S
C493   C513    1.488   .     S
C493   O533    1.306   .     A
C493   O531    1.308   .     A
C494   C514    1.459   .     S
C494   O534    1.299   .     A
C494   O532    1.298   .     A
C495   C497    1.423   .     A
C495   C503    1.409   .     A
C495   O551    1.384   .     S
C496   C504    1.409   .     A
C496   C498    1.422   .     A
C496   O553    1.383   .     S
C497   N529    1.381   .     A
C497   O555    1.372   .     S
C498   O557    1.373   .     S
C498   N530    1.381   .     A
C499   N529    1.386   .     A
C499   C501    1.426   .     A
C499   C559    1.474   .     S
C500   N530    1.385   .     A
C500   C563    1.474   .     S
C500   C502    1.426   .     A
C501   C503    1.413   .     A
C501   C567    1.490   .     S
C502   C571    1.489   .     S
C502   C504    1.413   .     A
C504   C11     1.526   1_556 S
C505   C507    1.433   .     S
C505   O535    1.291   .     A
C505   O537    1.296   .     A
C506   O538    1.295   .     A
C506   C508    1.434   .     S
C506   O536    1.292   .     A
C507   C672    1.336   1_455 S
C507   H687    1.085   1_455 S
C508   C589    1.336   .     S
C508   H606    1.087   .     S
C509   H525    1.084   .     S
C509   C519    1.393   .     A
C509   C511    1.389   .     A
C510   C512    1.398   .     A
C510   C520    1.397   .     A
C510   H526    1.084   .     S
C511   C513    1.424   .     A
C511   O539    1.375   .     S
C512   O541    1.382   .     S
C512   C514    1.409   .     A
C513   C515    1.427   .     A
C514   C516    1.419   .     A
C515   C543    1.483   .     S
C515   C517    1.396   .     A
C516   C547    1.488   .     S
C516   C518    1.397   .     A
C517   H527    1.085   .     S
C517   C519    1.396   .     A
C518   H528    1.084   .     S
C518   C520    1.398   .     A
C519   C766    1.465   1_545 S
C520   C765    1.465   .     S
Cu521  O534    1.959   .     S
Cu521  Cu522   2.700   .     S
Cu521  N530    2.028   .     S
Cu521  O535    1.952   .     S
Cu521  O531    1.959   .     S
Cu521  O538    1.955   .     S
Cu522  O537    1.955   .     S
Cu522  O533    1.959   .     S
Cu522  O536    1.952   .     S
Cu522  N529    2.028   .     S
Cu522  O532    1.959   .     S
H523   C589    1.085   .     S
H524   C672    1.087   1_455 S
O539   H540    0.991   .     S
O541   H542    0.992   .     S
C543   O544    1.223   .     D
C543   O545    1.398   .     S
O545   H546    1.014   .     S
C547   O548    1.222   .     D
C547   O549    1.399   .     S
O549   H550    1.014   .     S
O551   H552    0.989   .     S
O553   H554    0.990   .     S
O555   H556    0.986   .     S
O557   H558    0.985   .     S
C559   O560    1.221   .     D
C559   O561    1.398   .     S
O561   H562    1.014   .     S
C563   O564    1.221   .     D
C563   O565    1.399   .     S
O565   H566    1.014   .     S
C567   O569    1.398   .     S
O568   C75     1.223   1_556 S
H570   O77     1.014   1_556 S
C571   O573    1.398   .     S
C571   O80     1.223   1_556 S
O573   H574    1.014   .     S
C575   C595    1.488   .     S
C575   O615    1.306   .     A
C575   O613    1.308   .     A
C576   C596    1.459   .     S
C576   O616    1.299   .     A
C576   O614    1.298   .     A
C577   C579    1.423   .     A
C577   C585    1.409   .     A
C577   O633    1.384   .     S
C578   C586    1.409   .     A
C578   C580    1.422   .     A
C578   O635    1.383   .     S
C579   N611    1.381   .     A
C579   O637    1.372   .     S
C580   O639    1.373   .     S
C580   N612    1.381   .     A
C581   N611    1.386   .     A
C581   C583    1.426   .     A
C581   C641    1.474   .     S
C582   N612    1.385   .     A
C582   C645    1.474   .     S
C582   C584    1.426   .     A
C583   C585    1.413   .     A
C583   C649    1.490   .     S
C584   C653    1.489   .     S
C584   C586    1.413   .     A
C586   C93     1.526   1_556 S
C587   C589    1.433   .     S
C587   O617    1.291   .     A
C587   O619    1.296   .     A
C588   O620    1.295   .     A
C588   C590    1.434   .     S
C588   O618    1.292   .     A
C590   C671    1.336   .     S
C590   H688    1.087   .     S
C591   H607    1.084   .     S
C591   C601    1.393   .     A
C591   C593    1.389   .     A
C592   C594    1.398   .     A
C592   C602    1.397   .     A
C592   H608    1.084   .     S
C593   C595    1.424   .     A
C593   O621    1.375   .     S
C594   O623    1.382   .     S
C594   C596    1.409   .     A
C595   C597    1.427   .     A
C596   C598    1.419   .     A
C597   C625    1.483   .     S
C597   C599    1.396   .     A
C598   C629    1.488   .     S
C598   C600    1.397   .     A
C599   H609    1.085   .     S
C599   C601    1.396   .     A
C600   H610    1.084   .     S
C600   C602    1.398   .     A
C601   C848    1.465   1_545 S
C602   C847    1.465   .     S
Cu603  O616    1.959   .     S
Cu603  Cu604   2.700   .     S
Cu603  N612    2.028   .     S
Cu603  O617    1.952   .     S
Cu603  O613    1.959   .     S
Cu603  O620    1.955   .     S
Cu604  O619    1.955   .     S
Cu604  O615    1.959   .     S
Cu604  O618    1.952   .     S
Cu604  N611    2.028   .     S
Cu604  O614    1.959   .     S
H605   C671    1.085   .     S
O621   H622    0.991   .     S
O623   H624    0.992   .     S
C625   O626    1.223   .     D
C625   O627    1.398   .     S
O627   H628    1.014   .     S
C629   O630    1.222   .     D
C629   O631    1.399   .     S
O631   H632    1.014   .     S
O633   H634    0.989   .     S
O635   H636    0.990   .     S
O637   H638    0.986   .     S
O639   H640    0.985   .     S
C641   O642    1.221   .     D
C641   O643    1.398   .     S
O643   H644    1.014   .     S
C645   O646    1.221   .     D
C645   O647    1.399   .     S
O647   H648    1.014   .     S
C649   O651    1.398   .     S
O650   C157    1.223   1_556 S
H652   O159    1.014   1_556 S
C653   O655    1.398   .     S
C653   O162    1.223   1_556 S
O655   H656    1.014   .     S
C657   C677    1.488   .     S
C657   O697    1.306   .     A
C657   O695    1.308   .     A
C658   C678    1.459   .     S
C658   O698    1.299   .     A
C658   O696    1.298   .     A
C659   C661    1.423   .     A
C659   C667    1.409   .     A
C659   O715    1.384   .     S
C660   C668    1.409   .     A
C660   C662    1.422   .     A
C660   O717    1.383   .     S
C661   N693    1.381   .     A
C661   O719    1.372   .     S
C662   O721    1.373   .     S
C662   N694    1.381   .     A
C663   N693    1.386   .     A
C663   C665    1.426   .     A
C663   C723    1.474   .     S
C664   N694    1.385   .     A
C664   C727    1.474   .     S
C664   C666    1.426   .     A
C665   C667    1.413   .     A
C665   C731    1.490   .     S
C666   C735    1.489   .     S
C666   C668    1.413   .     A
C668   C175    1.526   1_556 S
C669   C671    1.433   .     S
C669   O699    1.291   .     A
C669   O701    1.296   .     A
C670   O702    1.295   .     A
C670   C672    1.434   .     S
C670   O700    1.292   .     A
C672   C507    1.336   1_655 S
C672   H524    1.087   1_655 S
C673   H689    1.084   .     S
C673   C683    1.393   .     A
C673   C675    1.389   .     A
C674   C676    1.398   .     A
C674   C684    1.397   .     A
C674   H690    1.084   .     S
C675   C677    1.424   .     A
C675   O703    1.375   .     S
C676   O705    1.382   .     S
C676   C678    1.409   .     A
C677   C679    1.427   .     A
C678   C680    1.419   .     A
C679   C707    1.483   .     S
C679   C681    1.396   .     A
C680   C711    1.488   .     S
C680   C682    1.397   .     A
C681   H691    1.085   .     S
C681   C683    1.396   .     A
C682   H692    1.084   .     S
C682   C684    1.398   .     A
C683   C930    1.465   1_545 S
C684   C929    1.465   .     S
Cu685  O698    1.959   .     S
Cu685  Cu686   2.700   .     S
Cu685  N694    2.028   .     S
Cu685  O699    1.952   .     S
Cu685  O695    1.959   .     S
Cu685  O702    1.955   .     S
Cu686  O701    1.955   .     S
Cu686  O697    1.959   .     S
Cu686  O700    1.952   .     S
Cu686  N693    2.028   .     S
Cu686  O696    1.959   .     S
H687   C507    1.085   1_655 S
O703   H704    0.991   .     S
O705   H706    0.992   .     S
C707   O708    1.223   .     D
C707   O709    1.398   .     S
O709   H710    1.014   .     S
C711   O712    1.222   .     D
C711   O713    1.399   .     S
O713   H714    1.014   .     S
O715   H716    0.989   .     S
O717   H718    0.990   .     S
O719   H720    0.986   .     S
O721   H722    0.985   .     S
C723   O724    1.221   .     D
C723   O725    1.398   .     S
O725   H726    1.014   .     S
C727   O728    1.221   .     D
C727   O729    1.399   .     S
O729   H730    1.014   .     S
C731   O733    1.398   .     S
O732   C239    1.223   1_556 S
H734   O241    1.014   1_556 S
C735   O737    1.398   .     S
C735   O244    1.223   1_556 S
O737   H738    1.014   .     S
C739   C759    1.488   .     S
C739   O779    1.306   .     A
C739   O777    1.308   .     A
C740   C760    1.459   .     S
C740   O780    1.299   .     A
C740   O778    1.298   .     A
C741   C743    1.423   .     A
C741   C749    1.409   .     A
C741   O797    1.384   .     S
C742   C750    1.409   .     A
C742   C744    1.422   .     A
C742   O799    1.383   .     S
C743   N775    1.381   .     A
C743   O801    1.372   .     S
C744   O803    1.373   .     S
C744   N776    1.381   .     A
C745   N775    1.386   .     A
C745   C747    1.426   .     A
C745   C805    1.474   .     S
C746   N776    1.385   .     A
C746   C809    1.474   .     S
C746   C748    1.426   .     A
C747   C749    1.413   .     A
C747   C813    1.490   .     S
C748   C817    1.489   .     S
C748   C750    1.413   .     A
C750   C257    1.526   1_556 S
C751   C753    1.433   .     S
C751   O781    1.291   .     A
C751   O783    1.296   .     A
C752   O784    1.295   .     A
C752   C754    1.434   .     S
C752   O782    1.292   .     A
C753   C918    1.336   1_455 S
C753   H933    1.085   1_455 S
C754   C835    1.336   .     S
C754   H852    1.087   .     S
C755   H771    1.084   .     S
C755   C765    1.393   .     A
C755   C757    1.389   .     A
C756   C758    1.398   .     A
C756   C766    1.397   .     A
C756   H772    1.084   .     S
C757   C759    1.424   .     A
C757   O785    1.375   .     S
C758   O787    1.382   .     S
C758   C760    1.409   .     A
C759   C761    1.427   .     A
C760   C762    1.419   .     A
C761   C789    1.483   .     S
C761   C763    1.396   .     A
C762   C793    1.488   .     S
C762   C764    1.397   .     A
C763   H773    1.085   .     S
C763   C765    1.396   .     A
C764   H774    1.084   .     S
C764   C766    1.398   .     A
C766   C519    1.465   1_565 S
Cu767  O780    1.959   .     S
Cu767  Cu768   2.700   .     S
Cu767  N776    2.028   .     S
Cu767  O781    1.952   .     S
Cu767  O777    1.959   .     S
Cu767  O784    1.955   .     S
Cu768  O783    1.955   .     S
Cu768  O779    1.959   .     S
Cu768  O782    1.952   .     S
Cu768  N775    2.028   .     S
Cu768  O778    1.959   .     S
H769   C835    1.085   .     S
H770   C918    1.087   1_455 S
O785   H786    0.991   .     S
O787   H788    0.992   .     S
C789   O790    1.223   .     D
C789   O791    1.398   .     S
O791   H792    1.014   .     S
C793   O794    1.222   .     D
C793   O795    1.399   .     S
O795   H796    1.014   .     S
O797   H798    0.989   .     S
O799   H800    0.990   .     S
O801   H802    0.986   .     S
O803   H804    0.985   .     S
C805   O806    1.221   .     D
C805   O807    1.398   .     S
O807   H808    1.014   .     S
C809   O810    1.221   .     D
C809   O811    1.399   .     S
O811   H812    1.014   .     S
C813   O815    1.398   .     S
O814   C321    1.223   1_556 S
H816   O323    1.014   1_556 S
C817   O819    1.398   .     S
C817   O326    1.223   1_556 S
O819   H820    1.014   .     S
C821   C841    1.488   .     S
C821   O861    1.306   .     A
C821   O859    1.308   .     A
C822   C842    1.459   .     S
C822   O862    1.299   .     A
C822   O860    1.298   .     A
C823   C825    1.423   .     A
C823   C831    1.409   .     A
C823   O879    1.384   .     S
C824   C832    1.409   .     A
C824   C826    1.422   .     A
C824   O881    1.383   .     S
C825   N857    1.381   .     A
C825   O883    1.372   .     S
C826   O885    1.373   .     S
C826   N858    1.381   .     A
C827   N857    1.386   .     A
C827   C829    1.426   .     A
C827   C887    1.474   .     S
C828   N858    1.385   .     A
C828   C891    1.474   .     S
C828   C830    1.426   .     A
C829   C831    1.413   .     A
C829   C895    1.490   .     S
C830   C899    1.489   .     S
C830   C832    1.413   .     A
C832   C339    1.526   1_556 S
C833   C835    1.433   .     S
C833   O863    1.291   .     A
C833   O865    1.296   .     A
C834   O866    1.295   .     A
C834   C836    1.434   .     S
C834   O864    1.292   .     A
C836   C917    1.336   .     S
C836   H934    1.087   .     S
C837   H853    1.084   .     S
C837   C847    1.393   .     A
C837   C839    1.389   .     A
C838   C840    1.398   .     A
C838   C848    1.397   .     A
C838   H854    1.084   .     S
C839   C841    1.424   .     A
C839   O867    1.375   .     S
C840   O869    1.382   .     S
C840   C842    1.409   .     A
C841   C843    1.427   .     A
C842   C844    1.419   .     A
C843   C871    1.483   .     S
C843   C845    1.396   .     A
C844   C875    1.488   .     S
C844   C846    1.397   .     A
C845   H855    1.085   .     S
C845   C847    1.396   .     A
C846   H856    1.084   .     S
C846   C848    1.398   .     A
C848   C601    1.465   1_565 S
Cu849  O862    1.959   .     S
Cu849  Cu850   2.700   .     S
Cu849  N858    2.028   .     S
Cu849  O863    1.952   .     S
Cu849  O859    1.959   .     S
Cu849  O866    1.955   .     S
Cu850  O865    1.955   .     S
Cu850  O861    1.959   .     S
Cu850  O864    1.952   .     S
Cu850  N857    2.028   .     S
Cu850  O860    1.959   .     S
H851   C917    1.085   .     S
O867   H868    0.991   .     S
O869   H870    0.992   .     S
C871   O872    1.223   .     D
C871   O873    1.398   .     S
O873   H874    1.014   .     S
C875   O876    1.222   .     D
C875   O877    1.399   .     S
O877   H878    1.014   .     S
O879   H880    0.989   .     S
O881   H882    0.990   .     S
O883   H884    0.986   .     S
O885   H886    0.985   .     S
C887   O888    1.221   .     D
C887   O889    1.398   .     S
O889   H890    1.014   .     S
C891   O892    1.221   .     D
C891   O893    1.399   .     S
O893   H894    1.014   .     S
C895   O897    1.398   .     S
O896   C403    1.223   1_556 S
H898   O405    1.014   1_556 S
C899   O901    1.398   .     S
C899   O408    1.223   1_556 S
O901   H902    1.014   .     S
C903   C923    1.488   .     S
C903   O943    1.306   .     A
C903   O941    1.308   .     A
C904   C924    1.459   .     S
C904   O944    1.299   .     A
C904   O942    1.298   .     A
C905   C907    1.423   .     A
C905   C913    1.409   .     A
C905   O961    1.384   .     S
C906   C914    1.409   .     A
C906   C908    1.422   .     A
C906   O963    1.383   .     S
C907   N939    1.381   .     A
C907   O965    1.372   .     S
C908   O967    1.373   .     S
C908   N940    1.381   .     A
C909   N939    1.386   .     A
C909   C911    1.426   .     A
C909   C969    1.474   .     S
C910   N940    1.385   .     A
C910   C973    1.474   .     S
C910   C912    1.426   .     A
C911   C913    1.413   .     A
C911   C977    1.490   .     S
C912   C981    1.489   .     S
C912   C914    1.413   .     A
C914   C421    1.526   1_556 S
C915   C917    1.433   .     S
C915   O945    1.291   .     A
C915   O947    1.296   .     A
C916   O948    1.295   .     A
C916   C918    1.434   .     S
C916   O946    1.292   .     A
C918   C753    1.336   1_655 S
C918   H770    1.087   1_655 S
C919   H935    1.084   .     S
C919   C929    1.393   .     A
C919   C921    1.389   .     A
C920   C922    1.398   .     A
C920   C930    1.397   .     A
C920   H936    1.084   .     S
C921   C923    1.424   .     A
C921   O949    1.375   .     S
C922   O951    1.382   .     S
C922   C924    1.409   .     A
C923   C925    1.427   .     A
C924   C926    1.419   .     A
C925   C953    1.483   .     S
C925   C927    1.396   .     A
C926   C957    1.488   .     S
C926   C928    1.397   .     A
C927   H937    1.085   .     S
C927   C929    1.396   .     A
C928   H938    1.084   .     S
C928   C930    1.398   .     A
C930   C683    1.465   1_565 S
Cu931  O944    1.959   .     S
Cu931  Cu932   2.700   .     S
Cu931  N940    2.028   .     S
Cu931  O945    1.952   .     S
Cu931  O941    1.959   .     S
Cu931  O948    1.955   .     S
Cu932  O947    1.955   .     S
Cu932  O943    1.959   .     S
Cu932  O946    1.952   .     S
Cu932  N939    2.028   .     S
Cu932  O942    1.959   .     S
H933   C753    1.085   1_655 S
O949   H950    0.991   .     S
O951   H952    0.992   .     S
C953   O954    1.223   .     D
C953   O955    1.398   .     S
O955   H956    1.014   .     S
C957   O958    1.222   .     D
C957   O959    1.399   .     S
O959   H960    1.014   .     S
O961   H962    0.989   .     S
O963   H964    0.990   .     S
O965   H966    0.986   .     S
O967   H968    0.985   .     S
C969   O970    1.221   .     D
C969   O971    1.398   .     S
O971   H972    1.014   .     S
C973   O974    1.221   .     D
C973   O975    1.399   .     S
O975   H976    1.014   .     S
C977   O979    1.398   .     S
O978   C485    1.223   1_556 S
H980   O487    1.014   1_556 S
C981   O983    1.398   .     S
C981   O490    1.223   1_556 S
O983   H984    1.014   .     S
