data_str_m3_o10_o16_pcu_sym.64
_audit_creation_date              2020-01-03
_audit_creation_method            'Materials Studio'
_symmetry_space_group_name_H-M    'P1'
_symmetry_Int_Tables_number       1
_symmetry_cell_setting            triclinic
loop_
_symmetry_equiv_pos_as_xyz
  x,y,z
_cell_length_a                    23.4809
_cell_length_b                    25.6112
_cell_length_c                    35.9664
_cell_angle_alpha                 91.6087
_cell_angle_beta                  100.9127
_cell_angle_gamma                 93.9967
loop_
_atom_site_label
_atom_site_type_symbol
_atom_site_fract_x
_atom_site_fract_y
_atom_site_fract_z
_atom_site_U_iso_or_equiv
_atom_site_adp_type
_atom_site_occupancy
C1     C     0.01398   0.26473   0.16392   0.00000  Uiso   1.00
C2     C     0.05328   0.16943   0.27843   0.00000  Uiso   1.00
C3     C     0.01956   0.31887   0.15918   0.00000  Uiso   1.00
C4     C     0.03547   0.16874   0.23715   0.00000  Uiso   1.00
C5     C     0.30849   0.01355   0.16368   0.00000  Uiso   1.00
C6     C     0.31764   0.06835   0.16580   0.00000  Uiso   1.00
C7     C     0.29767   0.16204   0.09634   0.00000  Uiso   1.00
C8     C     0.26836   0.09200   0.00130   0.00000  Uiso   1.00
C9     C     0.27892   0.15175   0.05572   0.00000  Uiso   1.00
C10    C     0.02760   0.20294   0.30085   0.00000  Uiso   1.00
C11    C     0.05359   0.21408   0.00522   0.00000  Uiso   1.00
C12    C     0.13550   0.16474   0.32940   0.00000  Uiso   1.00
C13    C     0.10794   0.19624   0.01930   0.00000  Uiso   1.00
C14    C     0.01749   0.08157   0.05267   0.00000  Uiso   1.00
C15    C     0.23234   0.23654   0.04378   0.00000  Uiso   1.00
C16    C     0.07335   0.06163   0.25430   0.00000  Uiso   1.00
C17    C     0.10245   0.14362   0.29500   0.00000  Uiso   1.00
C18    C     0.19343   0.15128   0.00690   0.00000  Uiso   1.00
C19    C     0.21267   0.10833   0.32118   0.00000  Uiso   1.00
C20    C     0.17480   0.08029   0.29100   0.00000  Uiso   1.00
C21    C     0.11870   0.09723   0.27858   0.00000  Uiso   1.00
C22    C     0.23279   0.17855   0.03678   0.00000  Uiso   1.00
C23    C     0.29951   0.10997   0.03662   0.00000  Uiso   1.00
H24    H     0.26674   0.32989   0.16826   0.00000  Uiso   1.00
H25    H     0.20920   0.30580   0.02260   0.00000  Uiso   1.00
H26    H     0.32421   0.02925   0.24481   0.00000  Uiso   1.00
H27    H     0.15671   0.12500   0.13878   0.00000  Uiso   1.00
H28    H     0.17661   0.20832   0.19455   0.00000  Uiso   1.00
H29    H     0.28567   0.06111   0.32015   0.00000  Uiso   1.00
H30    H     0.32201   0.22168   0.28893   0.00000  Uiso   1.00
H31    H     0.12771   0.20679   0.04844   0.00000  Uiso   1.00
H32    H     0.03326   0.23891   0.02292   0.00000  Uiso   1.00
H33    H     0.06099   0.00256   0.15407   0.00000  Uiso   1.00
H34    H     0.09198   0.05251   0.04425   0.00000  Uiso   1.00
I35    I     0.20019   0.00885   0.26734   0.00000  Uiso   1.00
N36    N     0.14493   0.15223   0.15695   0.00000  Uiso   1.00
N37    N     0.18840   0.18110   0.17638   0.00000  Uiso   1.00
O38    O     0.29769   0.24629   0.16905   0.00000  Uiso   1.00
O39    O     0.05942   0.07307   0.03072   0.00000  Uiso   1.00
O40    O     0.25674   0.25790   0.07399   0.00000  Uiso   1.00
O41    O     0.20633   0.26723   0.01469   0.00000  Uiso   1.00
O42    O     0.08457   0.03720   0.22739   0.00000  Uiso   1.00
O43    O     0.01756   0.05562   0.26267   0.00000  Uiso   1.00
O44    O     0.05742   0.23704   0.16282   0.00000  Uiso   1.00
O45    O     0.31490   0.17358   0.22253   0.00000  Uiso   1.00
O46    O     0.07463   0.16433   0.21631   0.00000  Uiso   1.00
O47    O     0.27592   0.09629   0.17051   0.00000  Uiso   1.00
O48    O     0.03565   0.08704   0.16428   0.00000  Uiso   1.00
O49    O     0.25870   0.16901   0.11703   0.00000  Uiso   1.00
O50    O     0.01843   0.15976   0.11080   0.00000  Uiso   1.00
O51    O     0.02146   0.06286   0.08383   0.00000  Uiso   1.00
Zn52   Zn    0.27119   0.17284   0.17082   0.00000  Uiso   1.00
Zn53   Zn    0.06214   0.16049   0.16251   0.00000  Uiso   1.00
C54    C     0.34731   0.26473   0.16392   0.00000  Uiso   1.00
C55    C     0.38661   0.16943   0.27843   0.00000  Uiso   1.00
C56    C     0.35289   0.31887   0.15918   0.00000  Uiso   1.00
C57    C     0.36881   0.16874   0.23715   0.00000  Uiso   1.00
C58    C     0.64183   0.01355   0.16368   0.00000  Uiso   1.00
C59    C     0.65097   0.06835   0.16580   0.00000  Uiso   1.00
C60    C     0.63100   0.16204   0.09634   0.00000  Uiso   1.00
C61    C     0.60170   0.09200   0.00130   0.00000  Uiso   1.00
C62    C     0.61226   0.15175   0.05572   0.00000  Uiso   1.00
C63    C     0.36093   0.20294   0.30085   0.00000  Uiso   1.00
C64    C     0.38693   0.21408   0.00522   0.00000  Uiso   1.00
C65    C     0.46884   0.16474   0.32940   0.00000  Uiso   1.00
C66    C     0.44127   0.19624   0.01930   0.00000  Uiso   1.00
C67    C     0.35083   0.08157   0.05267   0.00000  Uiso   1.00
C68    C     0.56567   0.23654   0.04378   0.00000  Uiso   1.00
C69    C     0.40668   0.06163   0.25430   0.00000  Uiso   1.00
C70    C     0.43579   0.14362   0.29500   0.00000  Uiso   1.00
C71    C     0.52676   0.15128   0.00690   0.00000  Uiso   1.00
C72    C     0.54600   0.10833   0.32118   0.00000  Uiso   1.00
C73    C     0.50813   0.08029   0.29100   0.00000  Uiso   1.00
C74    C     0.45204   0.09723   0.27858   0.00000  Uiso   1.00
C75    C     0.56612   0.17855   0.03678   0.00000  Uiso   1.00
C76    C     0.63285   0.10997   0.03662   0.00000  Uiso   1.00
H77    H     0.60008   0.32989   0.16826   0.00000  Uiso   1.00
H78    H     0.54254   0.30580   0.02260   0.00000  Uiso   1.00
H79    H     0.65755   0.02925   0.24481   0.00000  Uiso   1.00
H80    H     0.49004   0.12500   0.13878   0.00000  Uiso   1.00
H81    H     0.50995   0.20832   0.19455   0.00000  Uiso   1.00
H82    H     0.61900   0.06111   0.32015   0.00000  Uiso   1.00
H83    H     0.65534   0.22168   0.28893   0.00000  Uiso   1.00
H84    H     0.46105   0.20679   0.04844   0.00000  Uiso   1.00
H85    H     0.36660   0.23891   0.02292   0.00000  Uiso   1.00
H86    H     0.39432   0.00256   0.15407   0.00000  Uiso   1.00
H87    H     0.42531   0.05251   0.04425   0.00000  Uiso   1.00
I88    I     0.53352   0.00885   0.26734   0.00000  Uiso   1.00
N89    N     0.47827   0.15223   0.15695   0.00000  Uiso   1.00
N90    N     0.52173   0.18110   0.17638   0.00000  Uiso   1.00
O91    O     0.63102   0.24629   0.16905   0.00000  Uiso   1.00
O92    O     0.39275   0.07307   0.03072   0.00000  Uiso   1.00
O93    O     0.59008   0.25790   0.07399   0.00000  Uiso   1.00
O94    O     0.53967   0.26723   0.01469   0.00000  Uiso   1.00
O95    O     0.41791   0.03720   0.22739   0.00000  Uiso   1.00
O96    O     0.35090   0.05562   0.26267   0.00000  Uiso   1.00
O97    O     0.39075   0.23704   0.16282   0.00000  Uiso   1.00
O98    O     0.64823   0.17358   0.22253   0.00000  Uiso   1.00
O99    O     0.40796   0.16433   0.21631   0.00000  Uiso   1.00
O100   O     0.60925   0.09629   0.17051   0.00000  Uiso   1.00
O101   O     0.36898   0.08704   0.16428   0.00000  Uiso   1.00
O102   O     0.59204   0.16901   0.11703   0.00000  Uiso   1.00
O103   O     0.35177   0.15976   0.11080   0.00000  Uiso   1.00
O104   O     0.35480   0.06286   0.08383   0.00000  Uiso   1.00
Zn105  Zn    0.60453   0.17284   0.17082   0.00000  Uiso   1.00
Zn106  Zn    0.39547   0.16049   0.16251   0.00000  Uiso   1.00
C107   C     0.68064   0.26473   0.16392   0.00000  Uiso   1.00
C108   C     0.71994   0.16943   0.27843   0.00000  Uiso   1.00
C109   C     0.68622   0.31887   0.15918   0.00000  Uiso   1.00
C110   C     0.70214   0.16874   0.23715   0.00000  Uiso   1.00
C111   C     0.97516   0.01355   0.16368   0.00000  Uiso   1.00
C112   C     0.98431   0.06835   0.16580   0.00000  Uiso   1.00
C113   C     0.96433   0.16204   0.09634   0.00000  Uiso   1.00
C114   C     0.93503   0.09200   0.00130   0.00000  Uiso   1.00
C115   C     0.94559   0.15175   0.05572   0.00000  Uiso   1.00
C116   C     0.69426   0.20294   0.30085   0.00000  Uiso   1.00
C117   C     0.72026   0.21408   0.00522   0.00000  Uiso   1.00
C118   C     0.80217   0.16474   0.32940   0.00000  Uiso   1.00
C119   C     0.77460   0.19624   0.01930   0.00000  Uiso   1.00
C120   C     0.68416   0.08157   0.05267   0.00000  Uiso   1.00
C121   C     0.89901   0.23654   0.04378   0.00000  Uiso   1.00
C122   C     0.74002   0.06163   0.25430   0.00000  Uiso   1.00
C123   C     0.76912   0.14362   0.29500   0.00000  Uiso   1.00
C124   C     0.86010   0.15128   0.00690   0.00000  Uiso   1.00
C125   C     0.87933   0.10833   0.32118   0.00000  Uiso   1.00
C126   C     0.84146   0.08029   0.29100   0.00000  Uiso   1.00
C127   C     0.78537   0.09723   0.27858   0.00000  Uiso   1.00
C128   C     0.89945   0.17855   0.03678   0.00000  Uiso   1.00
C129   C     0.96618   0.10997   0.03662   0.00000  Uiso   1.00
H130   H     0.93341   0.32989   0.16826   0.00000  Uiso   1.00
H131   H     0.87587   0.30580   0.02260   0.00000  Uiso   1.00
H132   H     0.99088   0.02925   0.24481   0.00000  Uiso   1.00
H133   H     0.82337   0.12500   0.13878   0.00000  Uiso   1.00
H134   H     0.84328   0.20832   0.19455   0.00000  Uiso   1.00
H135   H     0.95234   0.06111   0.32015   0.00000  Uiso   1.00
H136   H     0.98867   0.22168   0.28893   0.00000  Uiso   1.00
H137   H     0.79438   0.20679   0.04844   0.00000  Uiso   1.00
H138   H     0.69993   0.23891   0.02292   0.00000  Uiso   1.00
H139   H     0.72766   0.00256   0.15407   0.00000  Uiso   1.00
H140   H     0.75865   0.05251   0.04425   0.00000  Uiso   1.00
I141   I     0.86685   0.00885   0.26734   0.00000  Uiso   1.00
N142   N     0.81160   0.15223   0.15695   0.00000  Uiso   1.00
N143   N     0.85507   0.18110   0.17638   0.00000  Uiso   1.00
O144   O     0.96435   0.24629   0.16905   0.00000  Uiso   1.00
O145   O     0.72609   0.07307   0.03072   0.00000  Uiso   1.00
O146   O     0.92341   0.25790   0.07399   0.00000  Uiso   1.00
O147   O     0.87300   0.26723   0.01469   0.00000  Uiso   1.00
O148   O     0.75124   0.03720   0.22739   0.00000  Uiso   1.00
O149   O     0.68423   0.05562   0.26267   0.00000  Uiso   1.00
O150   O     0.72408   0.23704   0.16282   0.00000  Uiso   1.00
O151   O     0.98157   0.17358   0.22253   0.00000  Uiso   1.00
O152   O     0.74130   0.16433   0.21631   0.00000  Uiso   1.00
O153   O     0.94258   0.09629   0.17051   0.00000  Uiso   1.00
O154   O     0.70231   0.08704   0.16428   0.00000  Uiso   1.00
O155   O     0.92537   0.16901   0.11703   0.00000  Uiso   1.00
O156   O     0.68510   0.15976   0.11080   0.00000  Uiso   1.00
O157   O     0.68813   0.06286   0.08383   0.00000  Uiso   1.00
Zn158  Zn    0.93786   0.17284   0.17082   0.00000  Uiso   1.00
Zn159  Zn    0.72881   0.16049   0.16251   0.00000  Uiso   1.00
C160   C     0.01398   0.59807   0.16392   0.00000  Uiso   1.00
C161   C     0.05328   0.50276   0.27843   0.00000  Uiso   1.00
C162   C     0.01956   0.65220   0.15918   0.00000  Uiso   1.00
C163   C     0.03547   0.50207   0.23715   0.00000  Uiso   1.00
C164   C     0.30849   0.34689   0.16368   0.00000  Uiso   1.00
C165   C     0.31764   0.40168   0.16580   0.00000  Uiso   1.00
C166   C     0.29767   0.49537   0.09634   0.00000  Uiso   1.00
C167   C     0.26836   0.42533   0.00130   0.00000  Uiso   1.00
C168   C     0.27892   0.48508   0.05572   0.00000  Uiso   1.00
C169   C     0.02760   0.53627   0.30085   0.00000  Uiso   1.00
C170   C     0.05359   0.54741   0.00522   0.00000  Uiso   1.00
C171   C     0.13550   0.49807   0.32940   0.00000  Uiso   1.00
C172   C     0.10794   0.52957   0.01930   0.00000  Uiso   1.00
C173   C     0.01749   0.41491   0.05267   0.00000  Uiso   1.00
C174   C     0.23234   0.56987   0.04378   0.00000  Uiso   1.00
C175   C     0.07335   0.39497   0.25430   0.00000  Uiso   1.00
C176   C     0.10245   0.47695   0.29500   0.00000  Uiso   1.00
C177   C     0.19343   0.48462   0.00690   0.00000  Uiso   1.00
C178   C     0.21267   0.44167   0.32118   0.00000  Uiso   1.00
C179   C     0.17480   0.41362   0.29100   0.00000  Uiso   1.00
C180   C     0.11870   0.43057   0.27858   0.00000  Uiso   1.00
C181   C     0.23279   0.51188   0.03678   0.00000  Uiso   1.00
C182   C     0.29951   0.44331   0.03662   0.00000  Uiso   1.00
H183   H     0.26674   0.66322   0.16826   0.00000  Uiso   1.00
H184   H     0.20920   0.63913   0.02260   0.00000  Uiso   1.00
H185   H     0.32421   0.36258   0.24481   0.00000  Uiso   1.00
H186   H     0.15671   0.45833   0.13878   0.00000  Uiso   1.00
H187   H     0.17661   0.54166   0.19455   0.00000  Uiso   1.00
H188   H     0.28567   0.39444   0.32015   0.00000  Uiso   1.00
H189   H     0.32201   0.55501   0.28893   0.00000  Uiso   1.00
H190   H     0.12771   0.54013   0.04844   0.00000  Uiso   1.00
H191   H     0.03326   0.57224   0.02292   0.00000  Uiso   1.00
H192   H     0.06099   0.33589   0.15407   0.00000  Uiso   1.00
H193   H     0.09198   0.38585   0.04425   0.00000  Uiso   1.00
I194   I     0.20019   0.34219   0.26734   0.00000  Uiso   1.00
N195   N     0.14493   0.48556   0.15695   0.00000  Uiso   1.00
N196   N     0.18840   0.51444   0.17638   0.00000  Uiso   1.00
O197   O     0.29769   0.57963   0.16905   0.00000  Uiso   1.00
O198   O     0.05942   0.40640   0.03072   0.00000  Uiso   1.00
O199   O     0.25674   0.59123   0.07399   0.00000  Uiso   1.00
O200   O     0.20633   0.60056   0.01469   0.00000  Uiso   1.00
O201   O     0.08457   0.37053   0.22739   0.00000  Uiso   1.00
O202   O     0.01756   0.38895   0.26267   0.00000  Uiso   1.00
O203   O     0.05742   0.57038   0.16282   0.00000  Uiso   1.00
O204   O     0.31490   0.50691   0.22253   0.00000  Uiso   1.00
O205   O     0.07463   0.49766   0.21631   0.00000  Uiso   1.00
O206   O     0.27592   0.42962   0.17051   0.00000  Uiso   1.00
O207   O     0.03565   0.42037   0.16428   0.00000  Uiso   1.00
O208   O     0.25870   0.50234   0.11703   0.00000  Uiso   1.00
O209   O     0.01843   0.49309   0.11080   0.00000  Uiso   1.00
O210   O     0.02146   0.39619   0.08383   0.00000  Uiso   1.00
Zn211  Zn    0.27119   0.50618   0.17082   0.00000  Uiso   1.00
Zn212  Zn    0.06214   0.49382   0.16251   0.00000  Uiso   1.00
C213   C     0.34731   0.59807   0.16392   0.00000  Uiso   1.00
C214   C     0.38661   0.50276   0.27843   0.00000  Uiso   1.00
C215   C     0.35289   0.65220   0.15918   0.00000  Uiso   1.00
C216   C     0.36881   0.50207   0.23715   0.00000  Uiso   1.00
C217   C     0.64183   0.34689   0.16368   0.00000  Uiso   1.00
C218   C     0.65097   0.40168   0.16580   0.00000  Uiso   1.00
C219   C     0.63100   0.49537   0.09634   0.00000  Uiso   1.00
C220   C     0.60170   0.42533   0.00130   0.00000  Uiso   1.00
C221   C     0.61226   0.48508   0.05572   0.00000  Uiso   1.00
C222   C     0.36093   0.53627   0.30085   0.00000  Uiso   1.00
C223   C     0.38693   0.54741   0.00522   0.00000  Uiso   1.00
C224   C     0.46884   0.49807   0.32940   0.00000  Uiso   1.00
C225   C     0.44127   0.52957   0.01930   0.00000  Uiso   1.00
C226   C     0.35083   0.41491   0.05267   0.00000  Uiso   1.00
C227   C     0.56567   0.56987   0.04378   0.00000  Uiso   1.00
C228   C     0.40668   0.39497   0.25430   0.00000  Uiso   1.00
C229   C     0.43579   0.47695   0.29500   0.00000  Uiso   1.00
C230   C     0.52676   0.48462   0.00690   0.00000  Uiso   1.00
C231   C     0.54600   0.44167   0.32118   0.00000  Uiso   1.00
C232   C     0.50813   0.41362   0.29100   0.00000  Uiso   1.00
C233   C     0.45204   0.43057   0.27858   0.00000  Uiso   1.00
C234   C     0.56612   0.51188   0.03678   0.00000  Uiso   1.00
C235   C     0.63285   0.44331   0.03662   0.00000  Uiso   1.00
H236   H     0.60008   0.66322   0.16826   0.00000  Uiso   1.00
H237   H     0.54254   0.63913   0.02260   0.00000  Uiso   1.00
H238   H     0.65755   0.36258   0.24481   0.00000  Uiso   1.00
H239   H     0.49004   0.45833   0.13878   0.00000  Uiso   1.00
H240   H     0.50995   0.54166   0.19455   0.00000  Uiso   1.00
H241   H     0.61900   0.39444   0.32015   0.00000  Uiso   1.00
H242   H     0.65534   0.55501   0.28893   0.00000  Uiso   1.00
H243   H     0.46105   0.54013   0.04844   0.00000  Uiso   1.00
H244   H     0.36660   0.57224   0.02292   0.00000  Uiso   1.00
H245   H     0.39432   0.33589   0.15407   0.00000  Uiso   1.00
H246   H     0.42531   0.38585   0.04425   0.00000  Uiso   1.00
I247   I     0.53352   0.34219   0.26734   0.00000  Uiso   1.00
N248   N     0.47827   0.48556   0.15695   0.00000  Uiso   1.00
N249   N     0.52173   0.51444   0.17638   0.00000  Uiso   1.00
O250   O     0.63102   0.57963   0.16905   0.00000  Uiso   1.00
O251   O     0.39275   0.40640   0.03072   0.00000  Uiso   1.00
O252   O     0.59008   0.59123   0.07399   0.00000  Uiso   1.00
O253   O     0.53967   0.60056   0.01469   0.00000  Uiso   1.00
O254   O     0.41791   0.37053   0.22739   0.00000  Uiso   1.00
O255   O     0.35090   0.38895   0.26267   0.00000  Uiso   1.00
O256   O     0.39075   0.57038   0.16282   0.00000  Uiso   1.00
O257   O     0.64823   0.50691   0.22253   0.00000  Uiso   1.00
O258   O     0.40796   0.49766   0.21631   0.00000  Uiso   1.00
O259   O     0.60925   0.42962   0.17051   0.00000  Uiso   1.00
O260   O     0.36898   0.42037   0.16428   0.00000  Uiso   1.00
O261   O     0.59204   0.50234   0.11703   0.00000  Uiso   1.00
O262   O     0.35177   0.49309   0.11080   0.00000  Uiso   1.00
O263   O     0.35480   0.39619   0.08383   0.00000  Uiso   1.00
Zn264  Zn    0.60453   0.50618   0.17082   0.00000  Uiso   1.00
Zn265  Zn    0.39547   0.49382   0.16251   0.00000  Uiso   1.00
C266   C     0.68064   0.59807   0.16392   0.00000  Uiso   1.00
C267   C     0.71994   0.50276   0.27843   0.00000  Uiso   1.00
C268   C     0.68622   0.65220   0.15918   0.00000  Uiso   1.00
C269   C     0.70214   0.50207   0.23715   0.00000  Uiso   1.00
C270   C     0.97516   0.34689   0.16368   0.00000  Uiso   1.00
C271   C     0.98431   0.40168   0.16580   0.00000  Uiso   1.00
C272   C     0.96433   0.49537   0.09634   0.00000  Uiso   1.00
C273   C     0.93503   0.42533   0.00130   0.00000  Uiso   1.00
C274   C     0.94559   0.48508   0.05572   0.00000  Uiso   1.00
C275   C     0.69426   0.53627   0.30085   0.00000  Uiso   1.00
C276   C     0.72026   0.54741   0.00522   0.00000  Uiso   1.00
C277   C     0.80217   0.49807   0.32940   0.00000  Uiso   1.00
C278   C     0.77460   0.52957   0.01930   0.00000  Uiso   1.00
C279   C     0.68416   0.41491   0.05267   0.00000  Uiso   1.00
C280   C     0.89901   0.56987   0.04378   0.00000  Uiso   1.00
C281   C     0.74002   0.39497   0.25430   0.00000  Uiso   1.00
C282   C     0.76912   0.47695   0.29500   0.00000  Uiso   1.00
C283   C     0.86010   0.48462   0.00690   0.00000  Uiso   1.00
C284   C     0.87933   0.44167   0.32118   0.00000  Uiso   1.00
C285   C     0.84146   0.41362   0.29100   0.00000  Uiso   1.00
C286   C     0.78537   0.43057   0.27858   0.00000  Uiso   1.00
C287   C     0.89945   0.51188   0.03678   0.00000  Uiso   1.00
C288   C     0.96618   0.44331   0.03662   0.00000  Uiso   1.00
H289   H     0.93341   0.66322   0.16826   0.00000  Uiso   1.00
H290   H     0.87587   0.63913   0.02260   0.00000  Uiso   1.00
H291   H     0.99088   0.36258   0.24481   0.00000  Uiso   1.00
H292   H     0.82337   0.45833   0.13878   0.00000  Uiso   1.00
H293   H     0.84328   0.54166   0.19455   0.00000  Uiso   1.00
H294   H     0.95234   0.39444   0.32015   0.00000  Uiso   1.00
H295   H     0.98867   0.55501   0.28893   0.00000  Uiso   1.00
H296   H     0.79438   0.54013   0.04844   0.00000  Uiso   1.00
H297   H     0.69993   0.57224   0.02292   0.00000  Uiso   1.00
H298   H     0.72766   0.33589   0.15407   0.00000  Uiso   1.00
H299   H     0.75865   0.38585   0.04425   0.00000  Uiso   1.00
I300   I     0.86685   0.34219   0.26734   0.00000  Uiso   1.00
N301   N     0.81160   0.48556   0.15695   0.00000  Uiso   1.00
N302   N     0.85507   0.51444   0.17638   0.00000  Uiso   1.00
O303   O     0.96435   0.57963   0.16905   0.00000  Uiso   1.00
O304   O     0.72609   0.40640   0.03072   0.00000  Uiso   1.00
O305   O     0.92341   0.59123   0.07399   0.00000  Uiso   1.00
O306   O     0.87300   0.60056   0.01469   0.00000  Uiso   1.00
O307   O     0.75124   0.37053   0.22739   0.00000  Uiso   1.00
O308   O     0.68423   0.38895   0.26267   0.00000  Uiso   1.00
O309   O     0.72408   0.57038   0.16282   0.00000  Uiso   1.00
O310   O     0.98157   0.50691   0.22253   0.00000  Uiso   1.00
O311   O     0.74130   0.49766   0.21631   0.00000  Uiso   1.00
O312   O     0.94258   0.42962   0.17051   0.00000  Uiso   1.00
O313   O     0.70231   0.42037   0.16428   0.00000  Uiso   1.00
O314   O     0.92537   0.50234   0.11703   0.00000  Uiso   1.00
O315   O     0.68510   0.49309   0.11080   0.00000  Uiso   1.00
O316   O     0.68813   0.39619   0.08383   0.00000  Uiso   1.00
Zn317  Zn    0.93786   0.50618   0.17082   0.00000  Uiso   1.00
Zn318  Zn    0.72881   0.49382   0.16251   0.00000  Uiso   1.00
C319   C     0.01398   0.93140   0.16392   0.00000  Uiso   1.00
C320   C     0.05328   0.83609   0.27843   0.00000  Uiso   1.00
C321   C     0.01956   0.98554   0.15918   0.00000  Uiso   1.00
C322   C     0.03547   0.83541   0.23715   0.00000  Uiso   1.00
C323   C     0.30849   0.68022   0.16368   0.00000  Uiso   1.00
C324   C     0.31764   0.73502   0.16580   0.00000  Uiso   1.00
C325   C     0.29767   0.82870   0.09634   0.00000  Uiso   1.00
C326   C     0.26836   0.75866   0.00130   0.00000  Uiso   1.00
C327   C     0.27892   0.81841   0.05572   0.00000  Uiso   1.00
C328   C     0.02760   0.86960   0.30085   0.00000  Uiso   1.00
C329   C     0.05359   0.88074   0.00522   0.00000  Uiso   1.00
C330   C     0.13550   0.83141   0.32940   0.00000  Uiso   1.00
C331   C     0.10794   0.86290   0.01930   0.00000  Uiso   1.00
C332   C     0.01749   0.74824   0.05267   0.00000  Uiso   1.00
C333   C     0.23234   0.90321   0.04378   0.00000  Uiso   1.00
C334   C     0.07335   0.72830   0.25430   0.00000  Uiso   1.00
C335   C     0.10245   0.81028   0.29500   0.00000  Uiso   1.00
C336   C     0.19343   0.81795   0.00690   0.00000  Uiso   1.00
C337   C     0.21267   0.77500   0.32118   0.00000  Uiso   1.00
C338   C     0.17480   0.74695   0.29100   0.00000  Uiso   1.00
C339   C     0.11870   0.76390   0.27858   0.00000  Uiso   1.00
C340   C     0.23279   0.84521   0.03678   0.00000  Uiso   1.00
C341   C     0.29951   0.77664   0.03662   0.00000  Uiso   1.00
H342   H     0.26674   0.99655   0.16826   0.00000  Uiso   1.00
H343   H     0.20920   0.97246   0.02260   0.00000  Uiso   1.00
H344   H     0.32421   0.69592   0.24481   0.00000  Uiso   1.00
H345   H     0.15671   0.79167   0.13878   0.00000  Uiso   1.00
H346   H     0.17661   0.87499   0.19455   0.00000  Uiso   1.00
H347   H     0.28567   0.72778   0.32015   0.00000  Uiso   1.00
H348   H     0.32201   0.88834   0.28893   0.00000  Uiso   1.00
H349   H     0.12771   0.87346   0.04844   0.00000  Uiso   1.00
H350   H     0.03326   0.90558   0.02292   0.00000  Uiso   1.00
H351   H     0.06099   0.66923   0.15407   0.00000  Uiso   1.00
H352   H     0.09198   0.71918   0.04425   0.00000  Uiso   1.00
I353   I     0.20019   0.67552   0.26734   0.00000  Uiso   1.00
N354   N     0.14493   0.81890   0.15695   0.00000  Uiso   1.00
N355   N     0.18840   0.84777   0.17638   0.00000  Uiso   1.00
O356   O     0.29769   0.91296   0.16905   0.00000  Uiso   1.00
O357   O     0.05942   0.73973   0.03072   0.00000  Uiso   1.00
O358   O     0.25674   0.92457   0.07399   0.00000  Uiso   1.00
O359   O     0.20633   0.93390   0.01469   0.00000  Uiso   1.00
O360   O     0.08457   0.70386   0.22739   0.00000  Uiso   1.00
O361   O     0.01756   0.72229   0.26267   0.00000  Uiso   1.00
O362   O     0.05742   0.90371   0.16282   0.00000  Uiso   1.00
O363   O     0.31490   0.84024   0.22253   0.00000  Uiso   1.00
O364   O     0.07463   0.83099   0.21631   0.00000  Uiso   1.00
O365   O     0.27592   0.76296   0.17051   0.00000  Uiso   1.00
O366   O     0.03565   0.75371   0.16428   0.00000  Uiso   1.00
O367   O     0.25870   0.83567   0.11703   0.00000  Uiso   1.00
O368   O     0.01843   0.82642   0.11080   0.00000  Uiso   1.00
O369   O     0.02146   0.72952   0.08383   0.00000  Uiso   1.00
Zn370  Zn    0.27119   0.83951   0.17082   0.00000  Uiso   1.00
Zn371  Zn    0.06214   0.82716   0.16251   0.00000  Uiso   1.00
C372   C     0.34731   0.93140   0.16392   0.00000  Uiso   1.00
C373   C     0.38661   0.83609   0.27843   0.00000  Uiso   1.00
C374   C     0.35289   0.98554   0.15918   0.00000  Uiso   1.00
C375   C     0.36881   0.83541   0.23715   0.00000  Uiso   1.00
C376   C     0.64183   0.68022   0.16368   0.00000  Uiso   1.00
C377   C     0.65097   0.73502   0.16580   0.00000  Uiso   1.00
C378   C     0.63100   0.82870   0.09634   0.00000  Uiso   1.00
C379   C     0.60170   0.75866   0.00130   0.00000  Uiso   1.00
C380   C     0.61226   0.81841   0.05572   0.00000  Uiso   1.00
C381   C     0.36093   0.86960   0.30085   0.00000  Uiso   1.00
C382   C     0.38693   0.88074   0.00522   0.00000  Uiso   1.00
C383   C     0.46884   0.83141   0.32940   0.00000  Uiso   1.00
C384   C     0.44127   0.86290   0.01930   0.00000  Uiso   1.00
C385   C     0.35083   0.74824   0.05267   0.00000  Uiso   1.00
C386   C     0.56567   0.90321   0.04378   0.00000  Uiso   1.00
C387   C     0.40668   0.72830   0.25430   0.00000  Uiso   1.00
C388   C     0.43579   0.81028   0.29500   0.00000  Uiso   1.00
C389   C     0.52676   0.81795   0.00690   0.00000  Uiso   1.00
C390   C     0.54600   0.77500   0.32118   0.00000  Uiso   1.00
C391   C     0.50813   0.74695   0.29100   0.00000  Uiso   1.00
C392   C     0.45204   0.76390   0.27858   0.00000  Uiso   1.00
C393   C     0.56612   0.84521   0.03678   0.00000  Uiso   1.00
C394   C     0.63285   0.77664   0.03662   0.00000  Uiso   1.00
H395   H     0.60008   0.99655   0.16826   0.00000  Uiso   1.00
H396   H     0.54254   0.97246   0.02260   0.00000  Uiso   1.00
H397   H     0.65755   0.69592   0.24481   0.00000  Uiso   1.00
H398   H     0.49004   0.79167   0.13878   0.00000  Uiso   1.00
H399   H     0.50995   0.87499   0.19455   0.00000  Uiso   1.00
H400   H     0.61900   0.72778   0.32015   0.00000  Uiso   1.00
H401   H     0.65534   0.88834   0.28893   0.00000  Uiso   1.00
H402   H     0.46105   0.87346   0.04844   0.00000  Uiso   1.00
H403   H     0.36660   0.90558   0.02292   0.00000  Uiso   1.00
H404   H     0.39432   0.66923   0.15407   0.00000  Uiso   1.00
H405   H     0.42531   0.71918   0.04425   0.00000  Uiso   1.00
I406   I     0.53352   0.67552   0.26734   0.00000  Uiso   1.00
N407   N     0.47827   0.81890   0.15695   0.00000  Uiso   1.00
N408   N     0.52173   0.84777   0.17638   0.00000  Uiso   1.00
O409   O     0.63102   0.91296   0.16905   0.00000  Uiso   1.00
O410   O     0.39275   0.73973   0.03072   0.00000  Uiso   1.00
O411   O     0.59008   0.92457   0.07399   0.00000  Uiso   1.00
O412   O     0.53967   0.93390   0.01469   0.00000  Uiso   1.00
O413   O     0.41791   0.70386   0.22739   0.00000  Uiso   1.00
O414   O     0.35090   0.72229   0.26267   0.00000  Uiso   1.00
O415   O     0.39075   0.90371   0.16282   0.00000  Uiso   1.00
O416   O     0.64823   0.84024   0.22253   0.00000  Uiso   1.00
O417   O     0.40796   0.83099   0.21631   0.00000  Uiso   1.00
O418   O     0.60925   0.76296   0.17051   0.00000  Uiso   1.00
O419   O     0.36898   0.75371   0.16428   0.00000  Uiso   1.00
O420   O     0.59204   0.83567   0.11703   0.00000  Uiso   1.00
O421   O     0.35177   0.82642   0.11080   0.00000  Uiso   1.00
O422   O     0.35480   0.72952   0.08383   0.00000  Uiso   1.00
Zn423  Zn    0.60453   0.83951   0.17082   0.00000  Uiso   1.00
Zn424  Zn    0.39547   0.82716   0.16251   0.00000  Uiso   1.00
C425   C     0.68064   0.93140   0.16392   0.00000  Uiso   1.00
C426   C     0.71994   0.83609   0.27843   0.00000  Uiso   1.00
C427   C     0.68622   0.98554   0.15918   0.00000  Uiso   1.00
C428   C     0.70214   0.83541   0.23715   0.00000  Uiso   1.00
C429   C     0.97516   0.68022   0.16368   0.00000  Uiso   1.00
C430   C     0.98431   0.73502   0.16580   0.00000  Uiso   1.00
C431   C     0.96433   0.82870   0.09634   0.00000  Uiso   1.00
C432   C     0.93503   0.75866   0.00130   0.00000  Uiso   1.00
C433   C     0.94559   0.81841   0.05572   0.00000  Uiso   1.00
C434   C     0.69426   0.86960   0.30085   0.00000  Uiso   1.00
C435   C     0.72026   0.88074   0.00522   0.00000  Uiso   1.00
C436   C     0.80217   0.83141   0.32940   0.00000  Uiso   1.00
C437   C     0.77460   0.86290   0.01930   0.00000  Uiso   1.00
C438   C     0.68416   0.74824   0.05267   0.00000  Uiso   1.00
C439   C     0.89901   0.90321   0.04378   0.00000  Uiso   1.00
C440   C     0.74002   0.72830   0.25430   0.00000  Uiso   1.00
C441   C     0.76912   0.81028   0.29500   0.00000  Uiso   1.00
C442   C     0.86010   0.81795   0.00690   0.00000  Uiso   1.00
C443   C     0.87933   0.77500   0.32118   0.00000  Uiso   1.00
C444   C     0.84146   0.74695   0.29100   0.00000  Uiso   1.00
C445   C     0.78537   0.76390   0.27858   0.00000  Uiso   1.00
C446   C     0.89945   0.84521   0.03678   0.00000  Uiso   1.00
C447   C     0.96618   0.77664   0.03662   0.00000  Uiso   1.00
H448   H     0.93341   0.99655   0.16826   0.00000  Uiso   1.00
H449   H     0.87587   0.97246   0.02260   0.00000  Uiso   1.00
H450   H     0.99088   0.69592   0.24481   0.00000  Uiso   1.00
H451   H     0.82337   0.79167   0.13878   0.00000  Uiso   1.00
H452   H     0.84328   0.87499   0.19455   0.00000  Uiso   1.00
H453   H     0.95234   0.72778   0.32015   0.00000  Uiso   1.00
H454   H     0.98867   0.88834   0.28893   0.00000  Uiso   1.00
H455   H     0.79438   0.87346   0.04844   0.00000  Uiso   1.00
H456   H     0.69993   0.90558   0.02292   0.00000  Uiso   1.00
H457   H     0.72766   0.66923   0.15407   0.00000  Uiso   1.00
H458   H     0.75865   0.71918   0.04425   0.00000  Uiso   1.00
I459   I     0.86685   0.67552   0.26734   0.00000  Uiso   1.00
N460   N     0.81160   0.81890   0.15695   0.00000  Uiso   1.00
N461   N     0.85507   0.84777   0.17638   0.00000  Uiso   1.00
O462   O     0.96435   0.91296   0.16905   0.00000  Uiso   1.00
O463   O     0.72609   0.73973   0.03072   0.00000  Uiso   1.00
O464   O     0.92341   0.92457   0.07399   0.00000  Uiso   1.00
O465   O     0.87300   0.93390   0.01469   0.00000  Uiso   1.00
O466   O     0.75124   0.70386   0.22739   0.00000  Uiso   1.00
O467   O     0.68423   0.72229   0.26267   0.00000  Uiso   1.00
O468   O     0.72408   0.90371   0.16282   0.00000  Uiso   1.00
O469   O     0.98157   0.84024   0.22253   0.00000  Uiso   1.00
O470   O     0.74130   0.83099   0.21631   0.00000  Uiso   1.00
O471   O     0.94258   0.76296   0.17051   0.00000  Uiso   1.00
O472   O     0.70231   0.75371   0.16428   0.00000  Uiso   1.00
O473   O     0.92537   0.83567   0.11703   0.00000  Uiso   1.00
O474   O     0.68510   0.82642   0.11080   0.00000  Uiso   1.00
O475   O     0.68813   0.72952   0.08383   0.00000  Uiso   1.00
Zn476  Zn    0.93786   0.83951   0.17082   0.00000  Uiso   1.00
Zn477  Zn    0.72881   0.82716   0.16251   0.00000  Uiso   1.00
C478   C     0.01398   0.26473   0.49725   0.00000  Uiso   1.00
C479   C     0.05328   0.16943   0.61176   0.00000  Uiso   1.00
C480   C     0.01956   0.31887   0.49251   0.00000  Uiso   1.00
C481   C     0.03547   0.16874   0.57048   0.00000  Uiso   1.00
C482   C     0.30849   0.01355   0.49702   0.00000  Uiso   1.00
C483   C     0.31764   0.06835   0.49913   0.00000  Uiso   1.00
C484   C     0.29767   0.16204   0.42968   0.00000  Uiso   1.00
C485   C     0.26836   0.09200   0.33463   0.00000  Uiso   1.00
C486   C     0.27892   0.15175   0.38905   0.00000  Uiso   1.00
C487   C     0.02760   0.20294   0.63418   0.00000  Uiso   1.00
C488   C     0.05359   0.21408   0.33855   0.00000  Uiso   1.00
C489   C     0.13550   0.16474   0.66274   0.00000  Uiso   1.00
C490   C     0.10794   0.19624   0.35264   0.00000  Uiso   1.00
C491   C     0.01749   0.08157   0.38601   0.00000  Uiso   1.00
C492   C     0.23234   0.23654   0.37711   0.00000  Uiso   1.00
C493   C     0.07335   0.06163   0.58763   0.00000  Uiso   1.00
C494   C     0.10245   0.14362   0.62833   0.00000  Uiso   1.00
C495   C     0.19343   0.15128   0.34024   0.00000  Uiso   1.00
C496   C     0.21267   0.10833   0.65452   0.00000  Uiso   1.00
C497   C     0.17480   0.08029   0.62434   0.00000  Uiso   1.00
C498   C     0.11870   0.09723   0.61191   0.00000  Uiso   1.00
C499   C     0.23279   0.17855   0.37011   0.00000  Uiso   1.00
C500   C     0.29951   0.10997   0.36996   0.00000  Uiso   1.00
H501   H     0.26674   0.32989   0.50160   0.00000  Uiso   1.00
H502   H     0.20920   0.30580   0.35593   0.00000  Uiso   1.00
H503   H     0.32421   0.02925   0.57814   0.00000  Uiso   1.00
H504   H     0.15671   0.12500   0.47211   0.00000  Uiso   1.00
H505   H     0.17661   0.20832   0.52789   0.00000  Uiso   1.00
H506   H     0.28567   0.06111   0.65349   0.00000  Uiso   1.00
H507   H     0.32201   0.22168   0.62227   0.00000  Uiso   1.00
H508   H     0.12771   0.20679   0.38177   0.00000  Uiso   1.00
H509   H     0.03326   0.23891   0.35625   0.00000  Uiso   1.00
H510   H     0.06099   0.00256   0.48740   0.00000  Uiso   1.00
H511   H     0.09198   0.05251   0.37758   0.00000  Uiso   1.00
I512   I     0.20019   0.00885   0.60067   0.00000  Uiso   1.00
N513   N     0.14493   0.15223   0.49028   0.00000  Uiso   1.00
N514   N     0.18840   0.18110   0.50972   0.00000  Uiso   1.00
O515   O     0.29769   0.24629   0.50238   0.00000  Uiso   1.00
O516   O     0.05942   0.07307   0.36406   0.00000  Uiso   1.00
O517   O     0.25674   0.25790   0.40733   0.00000  Uiso   1.00
O518   O     0.20633   0.26723   0.34803   0.00000  Uiso   1.00
O519   O     0.08457   0.03720   0.56073   0.00000  Uiso   1.00
O520   O     0.01756   0.05562   0.59600   0.00000  Uiso   1.00
O521   O     0.05742   0.23704   0.49616   0.00000  Uiso   1.00
O522   O     0.31490   0.17358   0.55587   0.00000  Uiso   1.00
O523   O     0.07463   0.16433   0.54964   0.00000  Uiso   1.00
O524   O     0.27592   0.09629   0.50384   0.00000  Uiso   1.00
O525   O     0.03565   0.08704   0.49762   0.00000  Uiso   1.00
O526   O     0.25870   0.16901   0.45036   0.00000  Uiso   1.00
O527   O     0.01843   0.15976   0.44413   0.00000  Uiso   1.00
O528   O     0.02146   0.06286   0.41717   0.00000  Uiso   1.00
Zn529  Zn    0.27119   0.17284   0.50416   0.00000  Uiso   1.00
Zn530  Zn    0.06214   0.16049   0.49584   0.00000  Uiso   1.00
C531   C     0.34731   0.26473   0.49725   0.00000  Uiso   1.00
C532   C     0.38661   0.16943   0.61176   0.00000  Uiso   1.00
C533   C     0.35289   0.31887   0.49251   0.00000  Uiso   1.00
C534   C     0.36881   0.16874   0.57048   0.00000  Uiso   1.00
C535   C     0.64183   0.01355   0.49702   0.00000  Uiso   1.00
C536   C     0.65097   0.06835   0.49913   0.00000  Uiso   1.00
C537   C     0.63100   0.16204   0.42968   0.00000  Uiso   1.00
C538   C     0.60170   0.09200   0.33463   0.00000  Uiso   1.00
C539   C     0.61226   0.15175   0.38905   0.00000  Uiso   1.00
C540   C     0.36093   0.20294   0.63418   0.00000  Uiso   1.00
C541   C     0.38693   0.21408   0.33855   0.00000  Uiso   1.00
C542   C     0.46884   0.16474   0.66274   0.00000  Uiso   1.00
C543   C     0.44127   0.19624   0.35264   0.00000  Uiso   1.00
C544   C     0.35083   0.08157   0.38601   0.00000  Uiso   1.00
C545   C     0.56567   0.23654   0.37711   0.00000  Uiso   1.00
C546   C     0.40668   0.06163   0.58763   0.00000  Uiso   1.00
C547   C     0.43579   0.14362   0.62833   0.00000  Uiso   1.00
C548   C     0.52676   0.15128   0.34024   0.00000  Uiso   1.00
C549   C     0.54600   0.10833   0.65452   0.00000  Uiso   1.00
C550   C     0.50813   0.08029   0.62434   0.00000  Uiso   1.00
C551   C     0.45204   0.09723   0.61191   0.00000  Uiso   1.00
C552   C     0.56612   0.17855   0.37011   0.00000  Uiso   1.00
C553   C     0.63285   0.10997   0.36996   0.00000  Uiso   1.00
H554   H     0.60008   0.32989   0.50160   0.00000  Uiso   1.00
H555   H     0.54254   0.30580   0.35593   0.00000  Uiso   1.00
H556   H     0.65755   0.02925   0.57814   0.00000  Uiso   1.00
H557   H     0.49004   0.12500   0.47211   0.00000  Uiso   1.00
H558   H     0.50995   0.20832   0.52789   0.00000  Uiso   1.00
H559   H     0.61900   0.06111   0.65349   0.00000  Uiso   1.00
H560   H     0.65534   0.22168   0.62227   0.00000  Uiso   1.00
H561   H     0.46105   0.20679   0.38177   0.00000  Uiso   1.00
H562   H     0.36660   0.23891   0.35625   0.00000  Uiso   1.00
H563   H     0.39432   0.00256   0.48740   0.00000  Uiso   1.00
H564   H     0.42531   0.05251   0.37758   0.00000  Uiso   1.00
I565   I     0.53352   0.00885   0.60067   0.00000  Uiso   1.00
N566   N     0.47827   0.15223   0.49028   0.00000  Uiso   1.00
N567   N     0.52173   0.18110   0.50972   0.00000  Uiso   1.00
O568   O     0.63102   0.24629   0.50238   0.00000  Uiso   1.00
O569   O     0.39275   0.07307   0.36406   0.00000  Uiso   1.00
O570   O     0.59008   0.25790   0.40733   0.00000  Uiso   1.00
O571   O     0.53967   0.26723   0.34803   0.00000  Uiso   1.00
O572   O     0.41791   0.03720   0.56073   0.00000  Uiso   1.00
O573   O     0.35090   0.05562   0.59600   0.00000  Uiso   1.00
O574   O     0.39075   0.23704   0.49616   0.00000  Uiso   1.00
O575   O     0.64823   0.17358   0.55587   0.00000  Uiso   1.00
O576   O     0.40796   0.16433   0.54964   0.00000  Uiso   1.00
O577   O     0.60925   0.09629   0.50384   0.00000  Uiso   1.00
O578   O     0.36898   0.08704   0.49762   0.00000  Uiso   1.00
O579   O     0.59204   0.16901   0.45036   0.00000  Uiso   1.00
O580   O     0.35177   0.15976   0.44413   0.00000  Uiso   1.00
O581   O     0.35480   0.06286   0.41717   0.00000  Uiso   1.00
Zn582  Zn    0.60453   0.17284   0.50416   0.00000  Uiso   1.00
Zn583  Zn    0.39547   0.16049   0.49584   0.00000  Uiso   1.00
C584   C     0.68064   0.26473   0.49725   0.00000  Uiso   1.00
C585   C     0.71994   0.16943   0.61176   0.00000  Uiso   1.00
C586   C     0.68622   0.31887   0.49251   0.00000  Uiso   1.00
C587   C     0.70214   0.16874   0.57048   0.00000  Uiso   1.00
C588   C     0.97516   0.01355   0.49702   0.00000  Uiso   1.00
C589   C     0.98431   0.06835   0.49913   0.00000  Uiso   1.00
C590   C     0.96433   0.16204   0.42968   0.00000  Uiso   1.00
C591   C     0.93503   0.09200   0.33463   0.00000  Uiso   1.00
C592   C     0.94559   0.15175   0.38905   0.00000  Uiso   1.00
C593   C     0.69426   0.20294   0.63418   0.00000  Uiso   1.00
C594   C     0.72026   0.21408   0.33855   0.00000  Uiso   1.00
C595   C     0.80217   0.16474   0.66274   0.00000  Uiso   1.00
C596   C     0.77460   0.19624   0.35264   0.00000  Uiso   1.00
C597   C     0.68416   0.08157   0.38601   0.00000  Uiso   1.00
C598   C     0.89901   0.23654   0.37711   0.00000  Uiso   1.00
C599   C     0.74002   0.06163   0.58763   0.00000  Uiso   1.00
C600   C     0.76912   0.14362   0.62833   0.00000  Uiso   1.00
C601   C     0.86010   0.15128   0.34024   0.00000  Uiso   1.00
C602   C     0.87933   0.10833   0.65452   0.00000  Uiso   1.00
C603   C     0.84146   0.08029   0.62434   0.00000  Uiso   1.00
C604   C     0.78537   0.09723   0.61191   0.00000  Uiso   1.00
C605   C     0.89945   0.17855   0.37011   0.00000  Uiso   1.00
C606   C     0.96618   0.10997   0.36996   0.00000  Uiso   1.00
H607   H     0.93341   0.32989   0.50160   0.00000  Uiso   1.00
H608   H     0.87587   0.30580   0.35593   0.00000  Uiso   1.00
H609   H     0.99088   0.02925   0.57814   0.00000  Uiso   1.00
H610   H     0.82337   0.12500   0.47211   0.00000  Uiso   1.00
H611   H     0.84328   0.20832   0.52789   0.00000  Uiso   1.00
H612   H     0.95234   0.06111   0.65349   0.00000  Uiso   1.00
H613   H     0.98867   0.22168   0.62227   0.00000  Uiso   1.00
H614   H     0.79438   0.20679   0.38177   0.00000  Uiso   1.00
H615   H     0.69993   0.23891   0.35625   0.00000  Uiso   1.00
H616   H     0.72766   0.00256   0.48740   0.00000  Uiso   1.00
H617   H     0.75865   0.05251   0.37758   0.00000  Uiso   1.00
I618   I     0.86685   0.00885   0.60067   0.00000  Uiso   1.00
N619   N     0.81160   0.15223   0.49028   0.00000  Uiso   1.00
N620   N     0.85507   0.18110   0.50972   0.00000  Uiso   1.00
O621   O     0.96435   0.24629   0.50238   0.00000  Uiso   1.00
O622   O     0.72609   0.07307   0.36406   0.00000  Uiso   1.00
O623   O     0.92341   0.25790   0.40733   0.00000  Uiso   1.00
O624   O     0.87300   0.26723   0.34803   0.00000  Uiso   1.00
O625   O     0.75124   0.03720   0.56073   0.00000  Uiso   1.00
O626   O     0.68423   0.05562   0.59600   0.00000  Uiso   1.00
O627   O     0.72408   0.23704   0.49616   0.00000  Uiso   1.00
O628   O     0.98157   0.17358   0.55587   0.00000  Uiso   1.00
O629   O     0.74130   0.16433   0.54964   0.00000  Uiso   1.00
O630   O     0.94258   0.09629   0.50384   0.00000  Uiso   1.00
O631   O     0.70231   0.08704   0.49762   0.00000  Uiso   1.00
O632   O     0.92537   0.16901   0.45036   0.00000  Uiso   1.00
O633   O     0.68510   0.15976   0.44413   0.00000  Uiso   1.00
O634   O     0.68813   0.06286   0.41717   0.00000  Uiso   1.00
Zn635  Zn    0.93786   0.17284   0.50416   0.00000  Uiso   1.00
Zn636  Zn    0.72881   0.16049   0.49584   0.00000  Uiso   1.00
C637   C     0.01398   0.59807   0.49725   0.00000  Uiso   1.00
C638   C     0.05328   0.50276   0.61176   0.00000  Uiso   1.00
C639   C     0.01956   0.65220   0.49251   0.00000  Uiso   1.00
C640   C     0.03547   0.50207   0.57048   0.00000  Uiso   1.00
C641   C     0.30849   0.34689   0.49702   0.00000  Uiso   1.00
C642   C     0.31764   0.40168   0.49913   0.00000  Uiso   1.00
C643   C     0.29767   0.49537   0.42968   0.00000  Uiso   1.00
C644   C     0.26836   0.42533   0.33463   0.00000  Uiso   1.00
C645   C     0.27892   0.48508   0.38905   0.00000  Uiso   1.00
C646   C     0.02760   0.53627   0.63418   0.00000  Uiso   1.00
C647   C     0.05359   0.54741   0.33855   0.00000  Uiso   1.00
C648   C     0.13550   0.49807   0.66274   0.00000  Uiso   1.00
C649   C     0.10794   0.52957   0.35264   0.00000  Uiso   1.00
C650   C     0.01749   0.41491   0.38601   0.00000  Uiso   1.00
C651   C     0.23234   0.56987   0.37711   0.00000  Uiso   1.00
C652   C     0.07335   0.39497   0.58763   0.00000  Uiso   1.00
C653   C     0.10245   0.47695   0.62833   0.00000  Uiso   1.00
C654   C     0.19343   0.48462   0.34024   0.00000  Uiso   1.00
C655   C     0.21267   0.44167   0.65452   0.00000  Uiso   1.00
C656   C     0.17480   0.41362   0.62434   0.00000  Uiso   1.00
C657   C     0.11870   0.43057   0.61191   0.00000  Uiso   1.00
C658   C     0.23279   0.51188   0.37011   0.00000  Uiso   1.00
C659   C     0.29951   0.44331   0.36996   0.00000  Uiso   1.00
H660   H     0.26674   0.66322   0.50160   0.00000  Uiso   1.00
H661   H     0.20920   0.63913   0.35593   0.00000  Uiso   1.00
H662   H     0.32421   0.36258   0.57814   0.00000  Uiso   1.00
H663   H     0.15671   0.45833   0.47211   0.00000  Uiso   1.00
H664   H     0.17661   0.54166   0.52789   0.00000  Uiso   1.00
H665   H     0.28567   0.39444   0.65349   0.00000  Uiso   1.00
H666   H     0.32201   0.55501   0.62227   0.00000  Uiso   1.00
H667   H     0.12771   0.54013   0.38177   0.00000  Uiso   1.00
H668   H     0.03326   0.57224   0.35625   0.00000  Uiso   1.00
H669   H     0.06099   0.33589   0.48740   0.00000  Uiso   1.00
H670   H     0.09198   0.38585   0.37758   0.00000  Uiso   1.00
I671   I     0.20019   0.34219   0.60067   0.00000  Uiso   1.00
N672   N     0.14493   0.48556   0.49028   0.00000  Uiso   1.00
N673   N     0.18840   0.51444   0.50972   0.00000  Uiso   1.00
O674   O     0.29769   0.57963   0.50238   0.00000  Uiso   1.00
O675   O     0.05942   0.40640   0.36406   0.00000  Uiso   1.00
O676   O     0.25674   0.59123   0.40733   0.00000  Uiso   1.00
O677   O     0.20633   0.60056   0.34803   0.00000  Uiso   1.00
O678   O     0.08457   0.37053   0.56073   0.00000  Uiso   1.00
O679   O     0.01756   0.38895   0.59600   0.00000  Uiso   1.00
O680   O     0.05742   0.57038   0.49616   0.00000  Uiso   1.00
O681   O     0.31490   0.50691   0.55587   0.00000  Uiso   1.00
O682   O     0.07463   0.49766   0.54964   0.00000  Uiso   1.00
O683   O     0.27592   0.42962   0.50384   0.00000  Uiso   1.00
O684   O     0.03565   0.42037   0.49762   0.00000  Uiso   1.00
O685   O     0.25870   0.50234   0.45036   0.00000  Uiso   1.00
O686   O     0.01843   0.49309   0.44413   0.00000  Uiso   1.00
O687   O     0.02146   0.39619   0.41717   0.00000  Uiso   1.00
Zn688  Zn    0.27119   0.50618   0.50416   0.00000  Uiso   1.00
Zn689  Zn    0.06214   0.49382   0.49584   0.00000  Uiso   1.00
C690   C     0.34731   0.59807   0.49725   0.00000  Uiso   1.00
C691   C     0.38661   0.50276   0.61176   0.00000  Uiso   1.00
C692   C     0.35289   0.65220   0.49251   0.00000  Uiso   1.00
C693   C     0.36881   0.50207   0.57048   0.00000  Uiso   1.00
C694   C     0.64183   0.34689   0.49702   0.00000  Uiso   1.00
C695   C     0.65097   0.40168   0.49913   0.00000  Uiso   1.00
C696   C     0.63100   0.49537   0.42968   0.00000  Uiso   1.00
C697   C     0.60170   0.42533   0.33463   0.00000  Uiso   1.00
C698   C     0.61226   0.48508   0.38905   0.00000  Uiso   1.00
C699   C     0.36093   0.53627   0.63418   0.00000  Uiso   1.00
C700   C     0.38693   0.54741   0.33855   0.00000  Uiso   1.00
C701   C     0.46884   0.49807   0.66274   0.00000  Uiso   1.00
C702   C     0.44127   0.52957   0.35264   0.00000  Uiso   1.00
C703   C     0.35083   0.41491   0.38601   0.00000  Uiso   1.00
C704   C     0.56567   0.56987   0.37711   0.00000  Uiso   1.00
C705   C     0.40668   0.39497   0.58763   0.00000  Uiso   1.00
C706   C     0.43579   0.47695   0.62833   0.00000  Uiso   1.00
C707   C     0.52676   0.48462   0.34024   0.00000  Uiso   1.00
C708   C     0.54600   0.44167   0.65452   0.00000  Uiso   1.00
C709   C     0.50813   0.41362   0.62434   0.00000  Uiso   1.00
C710   C     0.45204   0.43057   0.61191   0.00000  Uiso   1.00
C711   C     0.56612   0.51188   0.37011   0.00000  Uiso   1.00
C712   C     0.63285   0.44331   0.36996   0.00000  Uiso   1.00
H713   H     0.60008   0.66322   0.50160   0.00000  Uiso   1.00
H714   H     0.54254   0.63913   0.35593   0.00000  Uiso   1.00
H715   H     0.65755   0.36258   0.57814   0.00000  Uiso   1.00
H716   H     0.49004   0.45833   0.47211   0.00000  Uiso   1.00
H717   H     0.50995   0.54166   0.52789   0.00000  Uiso   1.00
H718   H     0.61900   0.39444   0.65349   0.00000  Uiso   1.00
H719   H     0.65534   0.55501   0.62227   0.00000  Uiso   1.00
H720   H     0.46105   0.54013   0.38177   0.00000  Uiso   1.00
H721   H     0.36660   0.57224   0.35625   0.00000  Uiso   1.00
H722   H     0.39432   0.33589   0.48740   0.00000  Uiso   1.00
H723   H     0.42531   0.38585   0.37758   0.00000  Uiso   1.00
I724   I     0.53352   0.34219   0.60067   0.00000  Uiso   1.00
N725   N     0.47827   0.48556   0.49028   0.00000  Uiso   1.00
N726   N     0.52173   0.51444   0.50972   0.00000  Uiso   1.00
O727   O     0.63102   0.57963   0.50238   0.00000  Uiso   1.00
O728   O     0.39275   0.40640   0.36406   0.00000  Uiso   1.00
O729   O     0.59008   0.59123   0.40733   0.00000  Uiso   1.00
O730   O     0.53967   0.60056   0.34803   0.00000  Uiso   1.00
O731   O     0.41791   0.37053   0.56073   0.00000  Uiso   1.00
O732   O     0.35090   0.38895   0.59600   0.00000  Uiso   1.00
O733   O     0.39075   0.57038   0.49616   0.00000  Uiso   1.00
O734   O     0.64823   0.50691   0.55587   0.00000  Uiso   1.00
O735   O     0.40796   0.49766   0.54964   0.00000  Uiso   1.00
O736   O     0.60925   0.42962   0.50384   0.00000  Uiso   1.00
O737   O     0.36898   0.42037   0.49762   0.00000  Uiso   1.00
O738   O     0.59204   0.50234   0.45036   0.00000  Uiso   1.00
O739   O     0.35177   0.49309   0.44413   0.00000  Uiso   1.00
O740   O     0.35480   0.39619   0.41717   0.00000  Uiso   1.00
Zn741  Zn    0.60453   0.50618   0.50416   0.00000  Uiso   1.00
Zn742  Zn    0.39547   0.49382   0.49584   0.00000  Uiso   1.00
C743   C     0.68064   0.59807   0.49725   0.00000  Uiso   1.00
C744   C     0.71994   0.50276   0.61176   0.00000  Uiso   1.00
C745   C     0.68622   0.65220   0.49251   0.00000  Uiso   1.00
C746   C     0.70214   0.50207   0.57048   0.00000  Uiso   1.00
C747   C     0.97516   0.34689   0.49702   0.00000  Uiso   1.00
C748   C     0.98431   0.40168   0.49913   0.00000  Uiso   1.00
C749   C     0.96433   0.49537   0.42968   0.00000  Uiso   1.00
C750   C     0.93503   0.42533   0.33463   0.00000  Uiso   1.00
C751   C     0.94559   0.48508   0.38905   0.00000  Uiso   1.00
C752   C     0.69426   0.53627   0.63418   0.00000  Uiso   1.00
C753   C     0.72026   0.54741   0.33855   0.00000  Uiso   1.00
C754   C     0.80217   0.49807   0.66274   0.00000  Uiso   1.00
C755   C     0.77460   0.52957   0.35264   0.00000  Uiso   1.00
C756   C     0.68416   0.41491   0.38601   0.00000  Uiso   1.00
C757   C     0.89901   0.56987   0.37711   0.00000  Uiso   1.00
C758   C     0.74002   0.39497   0.58763   0.00000  Uiso   1.00
C759   C     0.76912   0.47695   0.62833   0.00000  Uiso   1.00
C760   C     0.86010   0.48462   0.34024   0.00000  Uiso   1.00
C761   C     0.87933   0.44167   0.65452   0.00000  Uiso   1.00
C762   C     0.84146   0.41362   0.62434   0.00000  Uiso   1.00
C763   C     0.78537   0.43057   0.61191   0.00000  Uiso   1.00
C764   C     0.89945   0.51188   0.37011   0.00000  Uiso   1.00
C765   C     0.96618   0.44331   0.36996   0.00000  Uiso   1.00
H766   H     0.93341   0.66322   0.50160   0.00000  Uiso   1.00
H767   H     0.87587   0.63913   0.35593   0.00000  Uiso   1.00
H768   H     0.99088   0.36258   0.57814   0.00000  Uiso   1.00
H769   H     0.82337   0.45833   0.47211   0.00000  Uiso   1.00
H770   H     0.84328   0.54166   0.52789   0.00000  Uiso   1.00
H771   H     0.95234   0.39444   0.65349   0.00000  Uiso   1.00
H772   H     0.98867   0.55501   0.62227   0.00000  Uiso   1.00
H773   H     0.79438   0.54013   0.38177   0.00000  Uiso   1.00
H774   H     0.69993   0.57224   0.35625   0.00000  Uiso   1.00
H775   H     0.72766   0.33589   0.48740   0.00000  Uiso   1.00
H776   H     0.75865   0.38585   0.37758   0.00000  Uiso   1.00
I777   I     0.86685   0.34219   0.60067   0.00000  Uiso   1.00
N778   N     0.81160   0.48556   0.49028   0.00000  Uiso   1.00
N779   N     0.85507   0.51444   0.50972   0.00000  Uiso   1.00
O780   O     0.96435   0.57963   0.50238   0.00000  Uiso   1.00
O781   O     0.72609   0.40640   0.36406   0.00000  Uiso   1.00
O782   O     0.92341   0.59123   0.40733   0.00000  Uiso   1.00
O783   O     0.87300   0.60056   0.34803   0.00000  Uiso   1.00
O784   O     0.75124   0.37053   0.56073   0.00000  Uiso   1.00
O785   O     0.68423   0.38895   0.59600   0.00000  Uiso   1.00
O786   O     0.72408   0.57038   0.49616   0.00000  Uiso   1.00
O787   O     0.98157   0.50691   0.55587   0.00000  Uiso   1.00
O788   O     0.74130   0.49766   0.54964   0.00000  Uiso   1.00
O789   O     0.94258   0.42962   0.50384   0.00000  Uiso   1.00
O790   O     0.70231   0.42037   0.49762   0.00000  Uiso   1.00
O791   O     0.92537   0.50234   0.45036   0.00000  Uiso   1.00
O792   O     0.68510   0.49309   0.44413   0.00000  Uiso   1.00
O793   O     0.68813   0.39619   0.41717   0.00000  Uiso   1.00
Zn794  Zn    0.93786   0.50618   0.50416   0.00000  Uiso   1.00
Zn795  Zn    0.72881   0.49382   0.49584   0.00000  Uiso   1.00
C796   C     0.01398   0.93140   0.49725   0.00000  Uiso   1.00
C797   C     0.05328   0.83609   0.61176   0.00000  Uiso   1.00
C798   C     0.01956   0.98554   0.49251   0.00000  Uiso   1.00
C799   C     0.03547   0.83541   0.57048   0.00000  Uiso   1.00
C800   C     0.30849   0.68022   0.49702   0.00000  Uiso   1.00
C801   C     0.31764   0.73502   0.49913   0.00000  Uiso   1.00
C802   C     0.29767   0.82870   0.42968   0.00000  Uiso   1.00
C803   C     0.26836   0.75866   0.33463   0.00000  Uiso   1.00
C804   C     0.27892   0.81841   0.38905   0.00000  Uiso   1.00
C805   C     0.02760   0.86960   0.63418   0.00000  Uiso   1.00
C806   C     0.05359   0.88074   0.33855   0.00000  Uiso   1.00
C807   C     0.13550   0.83141   0.66274   0.00000  Uiso   1.00
C808   C     0.10794   0.86290   0.35264   0.00000  Uiso   1.00
C809   C     0.01749   0.74824   0.38601   0.00000  Uiso   1.00
C810   C     0.23234   0.90321   0.37711   0.00000  Uiso   1.00
C811   C     0.07335   0.72830   0.58763   0.00000  Uiso   1.00
C812   C     0.10245   0.81028   0.62833   0.00000  Uiso   1.00
C813   C     0.19343   0.81795   0.34024   0.00000  Uiso   1.00
C814   C     0.21267   0.77500   0.65452   0.00000  Uiso   1.00
C815   C     0.17480   0.74695   0.62434   0.00000  Uiso   1.00
C816   C     0.11870   0.76390   0.61191   0.00000  Uiso   1.00
C817   C     0.23279   0.84521   0.37011   0.00000  Uiso   1.00
C818   C     0.29951   0.77664   0.36996   0.00000  Uiso   1.00
H819   H     0.26674   0.99655   0.50160   0.00000  Uiso   1.00
H820   H     0.20920   0.97246   0.35593   0.00000  Uiso   1.00
H821   H     0.32421   0.69592   0.57814   0.00000  Uiso   1.00
H822   H     0.15671   0.79167   0.47211   0.00000  Uiso   1.00
H823   H     0.17661   0.87499   0.52789   0.00000  Uiso   1.00
H824   H     0.28567   0.72778   0.65349   0.00000  Uiso   1.00
H825   H     0.32201   0.88834   0.62227   0.00000  Uiso   1.00
H826   H     0.12771   0.87346   0.38177   0.00000  Uiso   1.00
H827   H     0.03326   0.90558   0.35625   0.00000  Uiso   1.00
H828   H     0.06099   0.66923   0.48740   0.00000  Uiso   1.00
H829   H     0.09198   0.71918   0.37758   0.00000  Uiso   1.00
I830   I     0.20019   0.67552   0.60067   0.00000  Uiso   1.00
N831   N     0.14493   0.81890   0.49028   0.00000  Uiso   1.00
N832   N     0.18840   0.84777   0.50972   0.00000  Uiso   1.00
O833   O     0.29769   0.91296   0.50238   0.00000  Uiso   1.00
O834   O     0.05942   0.73973   0.36406   0.00000  Uiso   1.00
O835   O     0.25674   0.92457   0.40733   0.00000  Uiso   1.00
O836   O     0.20633   0.93390   0.34803   0.00000  Uiso   1.00
O837   O     0.08457   0.70386   0.56073   0.00000  Uiso   1.00
O838   O     0.01756   0.72229   0.59600   0.00000  Uiso   1.00
O839   O     0.05742   0.90371   0.49616   0.00000  Uiso   1.00
O840   O     0.31490   0.84024   0.55587   0.00000  Uiso   1.00
O841   O     0.07463   0.83099   0.54964   0.00000  Uiso   1.00
O842   O     0.27592   0.76296   0.50384   0.00000  Uiso   1.00
O843   O     0.03565   0.75371   0.49762   0.00000  Uiso   1.00
O844   O     0.25870   0.83567   0.45036   0.00000  Uiso   1.00
O845   O     0.01843   0.82642   0.44413   0.00000  Uiso   1.00
O846   O     0.02146   0.72952   0.41717   0.00000  Uiso   1.00
Zn847  Zn    0.27119   0.83951   0.50416   0.00000  Uiso   1.00
Zn848  Zn    0.06214   0.82716   0.49584   0.00000  Uiso   1.00
C849   C     0.34731   0.93140   0.49725   0.00000  Uiso   1.00
C850   C     0.38661   0.83609   0.61176   0.00000  Uiso   1.00
C851   C     0.35289   0.98554   0.49251   0.00000  Uiso   1.00
C852   C     0.36881   0.83541   0.57048   0.00000  Uiso   1.00
C853   C     0.64183   0.68022   0.49702   0.00000  Uiso   1.00
C854   C     0.65097   0.73502   0.49913   0.00000  Uiso   1.00
C855   C     0.63100   0.82870   0.42968   0.00000  Uiso   1.00
C856   C     0.60170   0.75866   0.33463   0.00000  Uiso   1.00
C857   C     0.61226   0.81841   0.38905   0.00000  Uiso   1.00
C858   C     0.36093   0.86960   0.63418   0.00000  Uiso   1.00
C859   C     0.38693   0.88074   0.33855   0.00000  Uiso   1.00
C860   C     0.46884   0.83141   0.66274   0.00000  Uiso   1.00
C861   C     0.44127   0.86290   0.35264   0.00000  Uiso   1.00
C862   C     0.35083   0.74824   0.38601   0.00000  Uiso   1.00
C863   C     0.56567   0.90321   0.37711   0.00000  Uiso   1.00
C864   C     0.40668   0.72830   0.58763   0.00000  Uiso   1.00
C865   C     0.43579   0.81028   0.62833   0.00000  Uiso   1.00
C866   C     0.52676   0.81795   0.34024   0.00000  Uiso   1.00
C867   C     0.54600   0.77500   0.65452   0.00000  Uiso   1.00
C868   C     0.50813   0.74695   0.62434   0.00000  Uiso   1.00
C869   C     0.45204   0.76390   0.61191   0.00000  Uiso   1.00
C870   C     0.56612   0.84521   0.37011   0.00000  Uiso   1.00
C871   C     0.63285   0.77664   0.36996   0.00000  Uiso   1.00
H872   H     0.60008   0.99655   0.50160   0.00000  Uiso   1.00
H873   H     0.54254   0.97246   0.35593   0.00000  Uiso   1.00
H874   H     0.65755   0.69592   0.57814   0.00000  Uiso   1.00
H875   H     0.49004   0.79167   0.47211   0.00000  Uiso   1.00
H876   H     0.50995   0.87499   0.52789   0.00000  Uiso   1.00
H877   H     0.61900   0.72778   0.65349   0.00000  Uiso   1.00
H878   H     0.65534   0.88834   0.62227   0.00000  Uiso   1.00
H879   H     0.46105   0.87346   0.38177   0.00000  Uiso   1.00
H880   H     0.36660   0.90558   0.35625   0.00000  Uiso   1.00
H881   H     0.39432   0.66923   0.48740   0.00000  Uiso   1.00
H882   H     0.42531   0.71918   0.37758   0.00000  Uiso   1.00
I883   I     0.53352   0.67552   0.60067   0.00000  Uiso   1.00
N884   N     0.47827   0.81890   0.49028   0.00000  Uiso   1.00
N885   N     0.52173   0.84777   0.50972   0.00000  Uiso   1.00
O886   O     0.63102   0.91296   0.50238   0.00000  Uiso   1.00
O887   O     0.39275   0.73973   0.36406   0.00000  Uiso   1.00
O888   O     0.59008   0.92457   0.40733   0.00000  Uiso   1.00
O889   O     0.53967   0.93390   0.34803   0.00000  Uiso   1.00
O890   O     0.41791   0.70386   0.56073   0.00000  Uiso   1.00
O891   O     0.35090   0.72229   0.59600   0.00000  Uiso   1.00
O892   O     0.39075   0.90371   0.49616   0.00000  Uiso   1.00
O893   O     0.64823   0.84024   0.55587   0.00000  Uiso   1.00
O894   O     0.40796   0.83099   0.54964   0.00000  Uiso   1.00
O895   O     0.60925   0.76296   0.50384   0.00000  Uiso   1.00
O896   O     0.36898   0.75371   0.49762   0.00000  Uiso   1.00
O897   O     0.59204   0.83567   0.45036   0.00000  Uiso   1.00
O898   O     0.35177   0.82642   0.44413   0.00000  Uiso   1.00
O899   O     0.35480   0.72952   0.41717   0.00000  Uiso   1.00
Zn900  Zn    0.60453   0.83951   0.50416   0.00000  Uiso   1.00
Zn901  Zn    0.39547   0.82716   0.49584   0.00000  Uiso   1.00
C902   C     0.68064   0.93140   0.49725   0.00000  Uiso   1.00
C903   C     0.71994   0.83609   0.61176   0.00000  Uiso   1.00
C904   C     0.68622   0.98554   0.49251   0.00000  Uiso   1.00
C905   C     0.70214   0.83541   0.57048   0.00000  Uiso   1.00
C906   C     0.97516   0.68022   0.49702   0.00000  Uiso   1.00
C907   C     0.98431   0.73502   0.49913   0.00000  Uiso   1.00
C908   C     0.96433   0.82870   0.42968   0.00000  Uiso   1.00
C909   C     0.93503   0.75866   0.33463   0.00000  Uiso   1.00
C910   C     0.94559   0.81841   0.38905   0.00000  Uiso   1.00
C911   C     0.69426   0.86960   0.63418   0.00000  Uiso   1.00
C912   C     0.72026   0.88074   0.33855   0.00000  Uiso   1.00
C913   C     0.80217   0.83141   0.66274   0.00000  Uiso   1.00
C914   C     0.77460   0.86290   0.35264   0.00000  Uiso   1.00
C915   C     0.68416   0.74824   0.38601   0.00000  Uiso   1.00
C916   C     0.89901   0.90321   0.37711   0.00000  Uiso   1.00
C917   C     0.74002   0.72830   0.58763   0.00000  Uiso   1.00
C918   C     0.76912   0.81028   0.62833   0.00000  Uiso   1.00
C919   C     0.86010   0.81795   0.34024   0.00000  Uiso   1.00
C920   C     0.87933   0.77500   0.65452   0.00000  Uiso   1.00
C921   C     0.84146   0.74695   0.62434   0.00000  Uiso   1.00
C922   C     0.78537   0.76390   0.61191   0.00000  Uiso   1.00
C923   C     0.89945   0.84521   0.37011   0.00000  Uiso   1.00
C924   C     0.96618   0.77664   0.36996   0.00000  Uiso   1.00
H925   H     0.93341   0.99655   0.50160   0.00000  Uiso   1.00
H926   H     0.87587   0.97246   0.35593   0.00000  Uiso   1.00
H927   H     0.99088   0.69592   0.57814   0.00000  Uiso   1.00
H928   H     0.82337   0.79167   0.47211   0.00000  Uiso   1.00
H929   H     0.84328   0.87499   0.52789   0.00000  Uiso   1.00
H930   H     0.95234   0.72778   0.65349   0.00000  Uiso   1.00
H931   H     0.98867   0.88834   0.62227   0.00000  Uiso   1.00
H932   H     0.79438   0.87346   0.38177   0.00000  Uiso   1.00
H933   H     0.69993   0.90558   0.35625   0.00000  Uiso   1.00
H934   H     0.72766   0.66923   0.48740   0.00000  Uiso   1.00
H935   H     0.75865   0.71918   0.37758   0.00000  Uiso   1.00
I936   I     0.86685   0.67552   0.60067   0.00000  Uiso   1.00
N937   N     0.81160   0.81890   0.49028   0.00000  Uiso   1.00
N938   N     0.85507   0.84777   0.50972   0.00000  Uiso   1.00
O939   O     0.96435   0.91296   0.50238   0.00000  Uiso   1.00
O940   O     0.72609   0.73973   0.36406   0.00000  Uiso   1.00
O941   O     0.92341   0.92457   0.40733   0.00000  Uiso   1.00
O942   O     0.87300   0.93390   0.34803   0.00000  Uiso   1.00
O943   O     0.75124   0.70386   0.56073   0.00000  Uiso   1.00
O944   O     0.68423   0.72229   0.59600   0.00000  Uiso   1.00
O945   O     0.72408   0.90371   0.49616   0.00000  Uiso   1.00
O946   O     0.98157   0.84024   0.55587   0.00000  Uiso   1.00
O947   O     0.74130   0.83099   0.54964   0.00000  Uiso   1.00
O948   O     0.94258   0.76296   0.50384   0.00000  Uiso   1.00
O949   O     0.70231   0.75371   0.49762   0.00000  Uiso   1.00
O950   O     0.92537   0.83567   0.45036   0.00000  Uiso   1.00
O951   O     0.68510   0.82642   0.44413   0.00000  Uiso   1.00
O952   O     0.68813   0.72952   0.41717   0.00000  Uiso   1.00
Zn953  Zn    0.93786   0.83951   0.50416   0.00000  Uiso   1.00
Zn954  Zn    0.72881   0.82716   0.49584   0.00000  Uiso   1.00
C955   C     0.01398   0.26473   0.83059   0.00000  Uiso   1.00
C956   C     0.05328   0.16943   0.94510   0.00000  Uiso   1.00
C957   C     0.01956   0.31887   0.82584   0.00000  Uiso   1.00
C958   C     0.03547   0.16874   0.90381   0.00000  Uiso   1.00
C959   C     0.30849   0.01355   0.83035   0.00000  Uiso   1.00
C960   C     0.31764   0.06835   0.83246   0.00000  Uiso   1.00
C961   C     0.29767   0.16204   0.76301   0.00000  Uiso   1.00
C962   C     0.26836   0.09200   0.66796   0.00000  Uiso   1.00
C963   C     0.27892   0.15175   0.72238   0.00000  Uiso   1.00
C964   C     0.02760   0.20294   0.96751   0.00000  Uiso   1.00
C965   C     0.05359   0.21408   0.67189   0.00000  Uiso   1.00
C966   C     0.13550   0.16474   0.99607   0.00000  Uiso   1.00
C967   C     0.10794   0.19624   0.68597   0.00000  Uiso   1.00
C968   C     0.01749   0.08157   0.71934   0.00000  Uiso   1.00
C969   C     0.23234   0.23654   0.71045   0.00000  Uiso   1.00
C970   C     0.07335   0.06163   0.92096   0.00000  Uiso   1.00
C971   C     0.10245   0.14362   0.96167   0.00000  Uiso   1.00
C972   C     0.19343   0.15128   0.67357   0.00000  Uiso   1.00
C973   C     0.21267   0.10833   0.98785   0.00000  Uiso   1.00
C974   C     0.17480   0.08029   0.95767   0.00000  Uiso   1.00
C975   C     0.11870   0.09723   0.94524   0.00000  Uiso   1.00
C976   C     0.23279   0.17855   0.70345   0.00000  Uiso   1.00
C977   C     0.29951   0.10997   0.70329   0.00000  Uiso   1.00
H978   H     0.26674   0.32989   0.83493   0.00000  Uiso   1.00
H979   H     0.20920   0.30580   0.68926   0.00000  Uiso   1.00
H980   H     0.32421   0.02925   0.91147   0.00000  Uiso   1.00
H981   H     0.15671   0.12500   0.80545   0.00000  Uiso   1.00
H982   H     0.17661   0.20832   0.86122   0.00000  Uiso   1.00
H983   H     0.28567   0.06111   0.98682   0.00000  Uiso   1.00
H984   H     0.32201   0.22168   0.95560   0.00000  Uiso   1.00
H985   H     0.12771   0.20679   0.71510   0.00000  Uiso   1.00
H986   H     0.03326   0.23891   0.68959   0.00000  Uiso   1.00
H987   H     0.06099   0.00256   0.82074   0.00000  Uiso   1.00
H988   H     0.09198   0.05251   0.71091   0.00000  Uiso   1.00
I989   I     0.20019   0.00885   0.93401   0.00000  Uiso   1.00
N990   N     0.14493   0.15223   0.82362   0.00000  Uiso   1.00
N991   N     0.18840   0.18110   0.84305   0.00000  Uiso   1.00
O992   O     0.29769   0.24629   0.83572   0.00000  Uiso   1.00
O993   O     0.05942   0.07307   0.69739   0.00000  Uiso   1.00
O994   O     0.25674   0.25790   0.74066   0.00000  Uiso   1.00
O995   O     0.20633   0.26723   0.68136   0.00000  Uiso   1.00
O996   O     0.08457   0.03720   0.89406   0.00000  Uiso   1.00
O997   O     0.01756   0.05562   0.92934   0.00000  Uiso   1.00
O998   O     0.05742   0.23704   0.82949   0.00000  Uiso   1.00
O999   O     0.31490   0.17358   0.88920   0.00000  Uiso   1.00
O1000  O     0.07463   0.16433   0.88297   0.00000  Uiso   1.00
O1001  O     0.27592   0.09629   0.83718   0.00000  Uiso   1.00
O1002  O     0.03565   0.08704   0.83095   0.00000  Uiso   1.00
O1003  O     0.25870   0.16901   0.78369   0.00000  Uiso   1.00
O1004  O     0.01843   0.15976   0.77747   0.00000  Uiso   1.00
O1005  O     0.02146   0.06286   0.75050   0.00000  Uiso   1.00
Zn1006 Zn    0.27119   0.17284   0.83749   0.00000  Uiso   1.00
Zn1007 Zn    0.06214   0.16049   0.82918   0.00000  Uiso   1.00
C1008  C     0.34731   0.26473   0.83059   0.00000  Uiso   1.00
C1009  C     0.38661   0.16943   0.94510   0.00000  Uiso   1.00
C1010  C     0.35289   0.31887   0.82584   0.00000  Uiso   1.00
C1011  C     0.36881   0.16874   0.90381   0.00000  Uiso   1.00
C1012  C     0.64183   0.01355   0.83035   0.00000  Uiso   1.00
C1013  C     0.65097   0.06835   0.83246   0.00000  Uiso   1.00
C1014  C     0.63100   0.16204   0.76301   0.00000  Uiso   1.00
C1015  C     0.60170   0.09200   0.66796   0.00000  Uiso   1.00
C1016  C     0.61226   0.15175   0.72238   0.00000  Uiso   1.00
C1017  C     0.36093   0.20294   0.96751   0.00000  Uiso   1.00
C1018  C     0.38693   0.21408   0.67189   0.00000  Uiso   1.00
C1019  C     0.46884   0.16474   0.99607   0.00000  Uiso   1.00
C1020  C     0.44127   0.19624   0.68597   0.00000  Uiso   1.00
C1021  C     0.35083   0.08157   0.71934   0.00000  Uiso   1.00
C1022  C     0.56567   0.23654   0.71045   0.00000  Uiso   1.00
C1023  C     0.40668   0.06163   0.92096   0.00000  Uiso   1.00
C1024  C     0.43579   0.14362   0.96167   0.00000  Uiso   1.00
C1025  C     0.52676   0.15128   0.67357   0.00000  Uiso   1.00
C1026  C     0.54600   0.10833   0.98785   0.00000  Uiso   1.00
C1027  C     0.50813   0.08029   0.95767   0.00000  Uiso   1.00
C1028  C     0.45204   0.09723   0.94524   0.00000  Uiso   1.00
C1029  C     0.56612   0.17855   0.70345   0.00000  Uiso   1.00
C1030  C     0.63285   0.10997   0.70329   0.00000  Uiso   1.00
H1031  H     0.60008   0.32989   0.83493   0.00000  Uiso   1.00
H1032  H     0.54254   0.30580   0.68926   0.00000  Uiso   1.00
H1033  H     0.65755   0.02925   0.91147   0.00000  Uiso   1.00
H1034  H     0.49004   0.12500   0.80545   0.00000  Uiso   1.00
H1035  H     0.50995   0.20832   0.86122   0.00000  Uiso   1.00
H1036  H     0.61900   0.06111   0.98682   0.00000  Uiso   1.00
H1037  H     0.65534   0.22168   0.95560   0.00000  Uiso   1.00
H1038  H     0.46105   0.20679   0.71510   0.00000  Uiso   1.00
H1039  H     0.36660   0.23891   0.68959   0.00000  Uiso   1.00
H1040  H     0.39432   0.00256   0.82074   0.00000  Uiso   1.00
H1041  H     0.42531   0.05251   0.71091   0.00000  Uiso   1.00
I1042  I     0.53352   0.00885   0.93401   0.00000  Uiso   1.00
N1043  N     0.47827   0.15223   0.82362   0.00000  Uiso   1.00
N1044  N     0.52173   0.18110   0.84305   0.00000  Uiso   1.00
O1045  O     0.63102   0.24629   0.83572   0.00000  Uiso   1.00
O1046  O     0.39275   0.07307   0.69739   0.00000  Uiso   1.00
O1047  O     0.59008   0.25790   0.74066   0.00000  Uiso   1.00
O1048  O     0.53967   0.26723   0.68136   0.00000  Uiso   1.00
O1049  O     0.41791   0.03720   0.89406   0.00000  Uiso   1.00
O1050  O     0.35090   0.05562   0.92934   0.00000  Uiso   1.00
O1051  O     0.39075   0.23704   0.82949   0.00000  Uiso   1.00
O1052  O     0.64823   0.17358   0.88920   0.00000  Uiso   1.00
O1053  O     0.40796   0.16433   0.88297   0.00000  Uiso   1.00
O1054  O     0.60925   0.09629   0.83718   0.00000  Uiso   1.00
O1055  O     0.36898   0.08704   0.83095   0.00000  Uiso   1.00
O1056  O     0.59204   0.16901   0.78369   0.00000  Uiso   1.00
O1057  O     0.35177   0.15976   0.77747   0.00000  Uiso   1.00
O1058  O     0.35480   0.06286   0.75050   0.00000  Uiso   1.00
Zn1059 Zn    0.60453   0.17284   0.83749   0.00000  Uiso   1.00
Zn1060 Zn    0.39547   0.16049   0.82918   0.00000  Uiso   1.00
C1061  C     0.68064   0.26473   0.83059   0.00000  Uiso   1.00
C1062  C     0.71994   0.16943   0.94510   0.00000  Uiso   1.00
C1063  C     0.68622   0.31887   0.82584   0.00000  Uiso   1.00
C1064  C     0.70214   0.16874   0.90381   0.00000  Uiso   1.00
C1065  C     0.97516   0.01355   0.83035   0.00000  Uiso   1.00
C1066  C     0.98431   0.06835   0.83246   0.00000  Uiso   1.00
C1067  C     0.96433   0.16204   0.76301   0.00000  Uiso   1.00
C1068  C     0.93503   0.09200   0.66796   0.00000  Uiso   1.00
C1069  C     0.94559   0.15175   0.72238   0.00000  Uiso   1.00
C1070  C     0.69426   0.20294   0.96751   0.00000  Uiso   1.00
C1071  C     0.72026   0.21408   0.67189   0.00000  Uiso   1.00
C1072  C     0.80217   0.16474   0.99607   0.00000  Uiso   1.00
C1073  C     0.77460   0.19624   0.68597   0.00000  Uiso   1.00
C1074  C     0.68416   0.08157   0.71934   0.00000  Uiso   1.00
C1075  C     0.89901   0.23654   0.71045   0.00000  Uiso   1.00
C1076  C     0.74002   0.06163   0.92096   0.00000  Uiso   1.00
C1077  C     0.76912   0.14362   0.96167   0.00000  Uiso   1.00
C1078  C     0.86010   0.15128   0.67357   0.00000  Uiso   1.00
C1079  C     0.87933   0.10833   0.98785   0.00000  Uiso   1.00
C1080  C     0.84146   0.08029   0.95767   0.00000  Uiso   1.00
C1081  C     0.78537   0.09723   0.94524   0.00000  Uiso   1.00
C1082  C     0.89945   0.17855   0.70345   0.00000  Uiso   1.00
C1083  C     0.96618   0.10997   0.70329   0.00000  Uiso   1.00
H1084  H     0.93341   0.32989   0.83493   0.00000  Uiso   1.00
H1085  H     0.87587   0.30580   0.68926   0.00000  Uiso   1.00
H1086  H     0.99088   0.02925   0.91147   0.00000  Uiso   1.00
H1087  H     0.82337   0.12500   0.80545   0.00000  Uiso   1.00
H1088  H     0.84328   0.20832   0.86122   0.00000  Uiso   1.00
H1089  H     0.95234   0.06111   0.98682   0.00000  Uiso   1.00
H1090  H     0.98867   0.22168   0.95560   0.00000  Uiso   1.00
H1091  H     0.79438   0.20679   0.71510   0.00000  Uiso   1.00
H1092  H     0.69993   0.23891   0.68959   0.00000  Uiso   1.00
H1093  H     0.72766   0.00256   0.82074   0.00000  Uiso   1.00
H1094  H     0.75865   0.05251   0.71091   0.00000  Uiso   1.00
I1095  I     0.86685   0.00885   0.93401   0.00000  Uiso   1.00
N1096  N     0.81160   0.15223   0.82362   0.00000  Uiso   1.00
N1097  N     0.85507   0.18110   0.84305   0.00000  Uiso   1.00
O1098  O     0.96435   0.24629   0.83572   0.00000  Uiso   1.00
O1099  O     0.72609   0.07307   0.69739   0.00000  Uiso   1.00
O1100  O     0.92341   0.25790   0.74066   0.00000  Uiso   1.00
O1101  O     0.87300   0.26723   0.68136   0.00000  Uiso   1.00
O1102  O     0.75124   0.03720   0.89406   0.00000  Uiso   1.00
O1103  O     0.68423   0.05562   0.92934   0.00000  Uiso   1.00
O1104  O     0.72408   0.23704   0.82949   0.00000  Uiso   1.00
O1105  O     0.98157   0.17358   0.88920   0.00000  Uiso   1.00
O1106  O     0.74130   0.16433   0.88297   0.00000  Uiso   1.00
O1107  O     0.94258   0.09629   0.83718   0.00000  Uiso   1.00
O1108  O     0.70231   0.08704   0.83095   0.00000  Uiso   1.00
O1109  O     0.92537   0.16901   0.78369   0.00000  Uiso   1.00
O1110  O     0.68510   0.15976   0.77747   0.00000  Uiso   1.00
O1111  O     0.68813   0.06286   0.75050   0.00000  Uiso   1.00
Zn1112 Zn    0.93786   0.17284   0.83749   0.00000  Uiso   1.00
Zn1113 Zn    0.72881   0.16049   0.82918   0.00000  Uiso   1.00
C1114  C     0.01398   0.59807   0.83059   0.00000  Uiso   1.00
C1115  C     0.05328   0.50276   0.94510   0.00000  Uiso   1.00
C1116  C     0.01956   0.65220   0.82584   0.00000  Uiso   1.00
C1117  C     0.03547   0.50207   0.90381   0.00000  Uiso   1.00
C1118  C     0.30849   0.34689   0.83035   0.00000  Uiso   1.00
C1119  C     0.31764   0.40168   0.83246   0.00000  Uiso   1.00
C1120  C     0.29767   0.49537   0.76301   0.00000  Uiso   1.00
C1121  C     0.26836   0.42533   0.66796   0.00000  Uiso   1.00
C1122  C     0.27892   0.48508   0.72238   0.00000  Uiso   1.00
C1123  C     0.02760   0.53627   0.96751   0.00000  Uiso   1.00
C1124  C     0.05359   0.54741   0.67189   0.00000  Uiso   1.00
C1125  C     0.13550   0.49807   0.99607   0.00000  Uiso   1.00
C1126  C     0.10794   0.52957   0.68597   0.00000  Uiso   1.00
C1127  C     0.01749   0.41491   0.71934   0.00000  Uiso   1.00
C1128  C     0.23234   0.56987   0.71045   0.00000  Uiso   1.00
C1129  C     0.07335   0.39497   0.92096   0.00000  Uiso   1.00
C1130  C     0.10245   0.47695   0.96167   0.00000  Uiso   1.00
C1131  C     0.19343   0.48462   0.67357   0.00000  Uiso   1.00
C1132  C     0.21267   0.44167   0.98785   0.00000  Uiso   1.00
C1133  C     0.17480   0.41362   0.95767   0.00000  Uiso   1.00
C1134  C     0.11870   0.43057   0.94524   0.00000  Uiso   1.00
C1135  C     0.23279   0.51188   0.70345   0.00000  Uiso   1.00
C1136  C     0.29951   0.44331   0.70329   0.00000  Uiso   1.00
H1137  H     0.26674   0.66322   0.83493   0.00000  Uiso   1.00
H1138  H     0.20920   0.63913   0.68926   0.00000  Uiso   1.00
H1139  H     0.32421   0.36258   0.91147   0.00000  Uiso   1.00
H1140  H     0.15671   0.45833   0.80545   0.00000  Uiso   1.00
H1141  H     0.17661   0.54166   0.86122   0.00000  Uiso   1.00
H1142  H     0.28567   0.39444   0.98682   0.00000  Uiso   1.00
H1143  H     0.32201   0.55501   0.95560   0.00000  Uiso   1.00
H1144  H     0.12771   0.54013   0.71510   0.00000  Uiso   1.00
H1145  H     0.03326   0.57224   0.68959   0.00000  Uiso   1.00
H1146  H     0.06099   0.33589   0.82074   0.00000  Uiso   1.00
H1147  H     0.09198   0.38585   0.71091   0.00000  Uiso   1.00
I1148  I     0.20019   0.34219   0.93401   0.00000  Uiso   1.00
N1149  N     0.14493   0.48556   0.82362   0.00000  Uiso   1.00
N1150  N     0.18840   0.51444   0.84305   0.00000  Uiso   1.00
O1151  O     0.29769   0.57963   0.83572   0.00000  Uiso   1.00
O1152  O     0.05942   0.40640   0.69739   0.00000  Uiso   1.00
O1153  O     0.25674   0.59123   0.74066   0.00000  Uiso   1.00
O1154  O     0.20633   0.60056   0.68136   0.00000  Uiso   1.00
O1155  O     0.08457   0.37053   0.89406   0.00000  Uiso   1.00
O1156  O     0.01756   0.38895   0.92934   0.00000  Uiso   1.00
O1157  O     0.05742   0.57038   0.82949   0.00000  Uiso   1.00
O1158  O     0.31490   0.50691   0.88920   0.00000  Uiso   1.00
O1159  O     0.07463   0.49766   0.88297   0.00000  Uiso   1.00
O1160  O     0.27592   0.42962   0.83718   0.00000  Uiso   1.00
O1161  O     0.03565   0.42037   0.83095   0.00000  Uiso   1.00
O1162  O     0.25870   0.50234   0.78369   0.00000  Uiso   1.00
O1163  O     0.01843   0.49309   0.77747   0.00000  Uiso   1.00
O1164  O     0.02146   0.39619   0.75050   0.00000  Uiso   1.00
Zn1165 Zn    0.27119   0.50618   0.83749   0.00000  Uiso   1.00
Zn1166 Zn    0.06214   0.49382   0.82918   0.00000  Uiso   1.00
C1167  C     0.34731   0.59807   0.83059   0.00000  Uiso   1.00
C1168  C     0.38661   0.50276   0.94510   0.00000  Uiso   1.00
C1169  C     0.35289   0.65220   0.82584   0.00000  Uiso   1.00
C1170  C     0.36881   0.50207   0.90381   0.00000  Uiso   1.00
C1171  C     0.64183   0.34689   0.83035   0.00000  Uiso   1.00
C1172  C     0.65097   0.40168   0.83246   0.00000  Uiso   1.00
C1173  C     0.63100   0.49537   0.76301   0.00000  Uiso   1.00
C1174  C     0.60170   0.42533   0.66796   0.00000  Uiso   1.00
C1175  C     0.61226   0.48508   0.72238   0.00000  Uiso   1.00
C1176  C     0.36093   0.53627   0.96751   0.00000  Uiso   1.00
C1177  C     0.38693   0.54741   0.67189   0.00000  Uiso   1.00
C1178  C     0.46884   0.49807   0.99607   0.00000  Uiso   1.00
C1179  C     0.44127   0.52957   0.68597   0.00000  Uiso   1.00
C1180  C     0.35083   0.41491   0.71934   0.00000  Uiso   1.00
C1181  C     0.56567   0.56987   0.71045   0.00000  Uiso   1.00
C1182  C     0.40668   0.39497   0.92096   0.00000  Uiso   1.00
C1183  C     0.43579   0.47695   0.96167   0.00000  Uiso   1.00
C1184  C     0.52676   0.48462   0.67357   0.00000  Uiso   1.00
C1185  C     0.54600   0.44167   0.98785   0.00000  Uiso   1.00
C1186  C     0.50813   0.41362   0.95767   0.00000  Uiso   1.00
C1187  C     0.45204   0.43057   0.94524   0.00000  Uiso   1.00
C1188  C     0.56612   0.51188   0.70345   0.00000  Uiso   1.00
C1189  C     0.63285   0.44331   0.70329   0.00000  Uiso   1.00
H1190  H     0.60008   0.66322   0.83493   0.00000  Uiso   1.00
H1191  H     0.54254   0.63913   0.68926   0.00000  Uiso   1.00
H1192  H     0.65755   0.36258   0.91147   0.00000  Uiso   1.00
H1193  H     0.49004   0.45833   0.80545   0.00000  Uiso   1.00
H1194  H     0.50995   0.54166   0.86122   0.00000  Uiso   1.00
H1195  H     0.61900   0.39444   0.98682   0.00000  Uiso   1.00
H1196  H     0.65534   0.55501   0.95560   0.00000  Uiso   1.00
H1197  H     0.46105   0.54013   0.71510   0.00000  Uiso   1.00
H1198  H     0.36660   0.57224   0.68959   0.00000  Uiso   1.00
H1199  H     0.39432   0.33589   0.82074   0.00000  Uiso   1.00
H1200  H     0.42531   0.38585   0.71091   0.00000  Uiso   1.00
I1201  I     0.53352   0.34219   0.93401   0.00000  Uiso   1.00
N1202  N     0.47827   0.48556   0.82362   0.00000  Uiso   1.00
N1203  N     0.52173   0.51444   0.84305   0.00000  Uiso   1.00
O1204  O     0.63102   0.57963   0.83572   0.00000  Uiso   1.00
O1205  O     0.39275   0.40640   0.69739   0.00000  Uiso   1.00
O1206  O     0.59008   0.59123   0.74066   0.00000  Uiso   1.00
O1207  O     0.53967   0.60056   0.68136   0.00000  Uiso   1.00
O1208  O     0.41791   0.37053   0.89406   0.00000  Uiso   1.00
O1209  O     0.35090   0.38895   0.92934   0.00000  Uiso   1.00
O1210  O     0.39075   0.57038   0.82949   0.00000  Uiso   1.00
O1211  O     0.64823   0.50691   0.88920   0.00000  Uiso   1.00
O1212  O     0.40796   0.49766   0.88297   0.00000  Uiso   1.00
O1213  O     0.60925   0.42962   0.83718   0.00000  Uiso   1.00
O1214  O     0.36898   0.42037   0.83095   0.00000  Uiso   1.00
O1215  O     0.59204   0.50234   0.78369   0.00000  Uiso   1.00
O1216  O     0.35177   0.49309   0.77747   0.00000  Uiso   1.00
O1217  O     0.35480   0.39619   0.75050   0.00000  Uiso   1.00
Zn1218 Zn    0.60453   0.50618   0.83749   0.00000  Uiso   1.00
Zn1219 Zn    0.39547   0.49382   0.82918   0.00000  Uiso   1.00
C1220  C     0.68064   0.59807   0.83059   0.00000  Uiso   1.00
C1221  C     0.71994   0.50276   0.94510   0.00000  Uiso   1.00
C1222  C     0.68622   0.65220   0.82584   0.00000  Uiso   1.00
C1223  C     0.70214   0.50207   0.90381   0.00000  Uiso   1.00
C1224  C     0.97516   0.34689   0.83035   0.00000  Uiso   1.00
C1225  C     0.98431   0.40168   0.83246   0.00000  Uiso   1.00
C1226  C     0.96433   0.49537   0.76301   0.00000  Uiso   1.00
C1227  C     0.93503   0.42533   0.66796   0.00000  Uiso   1.00
C1228  C     0.94559   0.48508   0.72238   0.00000  Uiso   1.00
C1229  C     0.69426   0.53627   0.96751   0.00000  Uiso   1.00
C1230  C     0.72026   0.54741   0.67189   0.00000  Uiso   1.00
C1231  C     0.80217   0.49807   0.99607   0.00000  Uiso   1.00
C1232  C     0.77460   0.52957   0.68597   0.00000  Uiso   1.00
C1233  C     0.68416   0.41491   0.71934   0.00000  Uiso   1.00
C1234  C     0.89901   0.56987   0.71045   0.00000  Uiso   1.00
C1235  C     0.74002   0.39497   0.92096   0.00000  Uiso   1.00
C1236  C     0.76912   0.47695   0.96167   0.00000  Uiso   1.00
C1237  C     0.86010   0.48462   0.67357   0.00000  Uiso   1.00
C1238  C     0.87933   0.44167   0.98785   0.00000  Uiso   1.00
C1239  C     0.84146   0.41362   0.95767   0.00000  Uiso   1.00
C1240  C     0.78537   0.43057   0.94524   0.00000  Uiso   1.00
C1241  C     0.89945   0.51188   0.70345   0.00000  Uiso   1.00
C1242  C     0.96618   0.44331   0.70329   0.00000  Uiso   1.00
H1243  H     0.93341   0.66322   0.83493   0.00000  Uiso   1.00
H1244  H     0.87587   0.63913   0.68926   0.00000  Uiso   1.00
H1245  H     0.99088   0.36258   0.91147   0.00000  Uiso   1.00
H1246  H     0.82337   0.45833   0.80545   0.00000  Uiso   1.00
H1247  H     0.84328   0.54166   0.86122   0.00000  Uiso   1.00
H1248  H     0.95234   0.39444   0.98682   0.00000  Uiso   1.00
H1249  H     0.98867   0.55501   0.95560   0.00000  Uiso   1.00
H1250  H     0.79438   0.54013   0.71510   0.00000  Uiso   1.00
H1251  H     0.69993   0.57224   0.68959   0.00000  Uiso   1.00
H1252  H     0.72766   0.33589   0.82074   0.00000  Uiso   1.00
H1253  H     0.75865   0.38585   0.71091   0.00000  Uiso   1.00
I1254  I     0.86685   0.34219   0.93401   0.00000  Uiso   1.00
N1255  N     0.81160   0.48556   0.82362   0.00000  Uiso   1.00
N1256  N     0.85507   0.51444   0.84305   0.00000  Uiso   1.00
O1257  O     0.96435   0.57963   0.83572   0.00000  Uiso   1.00
O1258  O     0.72609   0.40640   0.69739   0.00000  Uiso   1.00
O1259  O     0.92341   0.59123   0.74066   0.00000  Uiso   1.00
O1260  O     0.87300   0.60056   0.68136   0.00000  Uiso   1.00
O1261  O     0.75124   0.37053   0.89406   0.00000  Uiso   1.00
O1262  O     0.68423   0.38895   0.92934   0.00000  Uiso   1.00
O1263  O     0.72408   0.57038   0.82949   0.00000  Uiso   1.00
O1264  O     0.98157   0.50691   0.88920   0.00000  Uiso   1.00
O1265  O     0.74130   0.49766   0.88297   0.00000  Uiso   1.00
O1266  O     0.94258   0.42962   0.83718   0.00000  Uiso   1.00
O1267  O     0.70231   0.42037   0.83095   0.00000  Uiso   1.00
O1268  O     0.92537   0.50234   0.78369   0.00000  Uiso   1.00
O1269  O     0.68510   0.49309   0.77747   0.00000  Uiso   1.00
O1270  O     0.68813   0.39619   0.75050   0.00000  Uiso   1.00
Zn1271 Zn    0.93786   0.50618   0.83749   0.00000  Uiso   1.00
Zn1272 Zn    0.72881   0.49382   0.82918   0.00000  Uiso   1.00
C1273  C     0.01398   0.93140   0.83059   0.00000  Uiso   1.00
C1274  C     0.05328   0.83609   0.94510   0.00000  Uiso   1.00
C1275  C     0.01956   0.98554   0.82584   0.00000  Uiso   1.00
C1276  C     0.03547   0.83541   0.90381   0.00000  Uiso   1.00
C1277  C     0.30849   0.68022   0.83035   0.00000  Uiso   1.00
C1278  C     0.31764   0.73502   0.83246   0.00000  Uiso   1.00
C1279  C     0.29767   0.82870   0.76301   0.00000  Uiso   1.00
C1280  C     0.26836   0.75866   0.66796   0.00000  Uiso   1.00
C1281  C     0.27892   0.81841   0.72238   0.00000  Uiso   1.00
C1282  C     0.02760   0.86960   0.96751   0.00000  Uiso   1.00
C1283  C     0.05359   0.88074   0.67189   0.00000  Uiso   1.00
C1284  C     0.13550   0.83141   0.99607   0.00000  Uiso   1.00
C1285  C     0.10794   0.86290   0.68597   0.00000  Uiso   1.00
C1286  C     0.01749   0.74824   0.71934   0.00000  Uiso   1.00
C1287  C     0.23234   0.90321   0.71045   0.00000  Uiso   1.00
C1288  C     0.07335   0.72830   0.92096   0.00000  Uiso   1.00
C1289  C     0.10245   0.81028   0.96167   0.00000  Uiso   1.00
C1290  C     0.19343   0.81795   0.67357   0.00000  Uiso   1.00
C1291  C     0.21267   0.77500   0.98785   0.00000  Uiso   1.00
C1292  C     0.17480   0.74695   0.95767   0.00000  Uiso   1.00
C1293  C     0.11870   0.76390   0.94524   0.00000  Uiso   1.00
C1294  C     0.23279   0.84521   0.70345   0.00000  Uiso   1.00
C1295  C     0.29951   0.77664   0.70329   0.00000  Uiso   1.00
H1296  H     0.26674   0.99655   0.83493   0.00000  Uiso   1.00
H1297  H     0.20920   0.97246   0.68926   0.00000  Uiso   1.00
H1298  H     0.32421   0.69592   0.91147   0.00000  Uiso   1.00
H1299  H     0.15671   0.79167   0.80545   0.00000  Uiso   1.00
H1300  H     0.17661   0.87499   0.86122   0.00000  Uiso   1.00
H1301  H     0.28567   0.72778   0.98682   0.00000  Uiso   1.00
H1302  H     0.32201   0.88834   0.95560   0.00000  Uiso   1.00
H1303  H     0.12771   0.87346   0.71510   0.00000  Uiso   1.00
H1304  H     0.03326   0.90558   0.68959   0.00000  Uiso   1.00
H1305  H     0.06099   0.66923   0.82074   0.00000  Uiso   1.00
H1306  H     0.09198   0.71918   0.71091   0.00000  Uiso   1.00
I1307  I     0.20019   0.67552   0.93401   0.00000  Uiso   1.00
N1308  N     0.14493   0.81890   0.82362   0.00000  Uiso   1.00
N1309  N     0.18840   0.84777   0.84305   0.00000  Uiso   1.00
O1310  O     0.29769   0.91296   0.83572   0.00000  Uiso   1.00
O1311  O     0.05942   0.73973   0.69739   0.00000  Uiso   1.00
O1312  O     0.25674   0.92457   0.74066   0.00000  Uiso   1.00
O1313  O     0.20633   0.93390   0.68136   0.00000  Uiso   1.00
O1314  O     0.08457   0.70386   0.89406   0.00000  Uiso   1.00
O1315  O     0.01756   0.72229   0.92934   0.00000  Uiso   1.00
O1316  O     0.05742   0.90371   0.82949   0.00000  Uiso   1.00
O1317  O     0.31490   0.84024   0.88920   0.00000  Uiso   1.00
O1318  O     0.07463   0.83099   0.88297   0.00000  Uiso   1.00
O1319  O     0.27592   0.76296   0.83718   0.00000  Uiso   1.00
O1320  O     0.03565   0.75371   0.83095   0.00000  Uiso   1.00
O1321  O     0.25870   0.83567   0.78369   0.00000  Uiso   1.00
O1322  O     0.01843   0.82642   0.77747   0.00000  Uiso   1.00
O1323  O     0.02146   0.72952   0.75050   0.00000  Uiso   1.00
Zn1324 Zn    0.27119   0.83951   0.83749   0.00000  Uiso   1.00
Zn1325 Zn    0.06214   0.82716   0.82918   0.00000  Uiso   1.00
C1326  C     0.34731   0.93140   0.83059   0.00000  Uiso   1.00
C1327  C     0.38661   0.83609   0.94510   0.00000  Uiso   1.00
C1328  C     0.35289   0.98554   0.82584   0.00000  Uiso   1.00
C1329  C     0.36881   0.83541   0.90381   0.00000  Uiso   1.00
C1330  C     0.64183   0.68022   0.83035   0.00000  Uiso   1.00
C1331  C     0.65097   0.73502   0.83246   0.00000  Uiso   1.00
C1332  C     0.63100   0.82870   0.76301   0.00000  Uiso   1.00
C1333  C     0.60170   0.75866   0.66796   0.00000  Uiso   1.00
C1334  C     0.61226   0.81841   0.72238   0.00000  Uiso   1.00
C1335  C     0.36093   0.86960   0.96751   0.00000  Uiso   1.00
C1336  C     0.38693   0.88074   0.67189   0.00000  Uiso   1.00
C1337  C     0.46884   0.83141   0.99607   0.00000  Uiso   1.00
C1338  C     0.44127   0.86290   0.68597   0.00000  Uiso   1.00
C1339  C     0.35083   0.74824   0.71934   0.00000  Uiso   1.00
C1340  C     0.56567   0.90321   0.71045   0.00000  Uiso   1.00
C1341  C     0.40668   0.72830   0.92096   0.00000  Uiso   1.00
C1342  C     0.43579   0.81028   0.96167   0.00000  Uiso   1.00
C1343  C     0.52676   0.81795   0.67357   0.00000  Uiso   1.00
C1344  C     0.54600   0.77500   0.98785   0.00000  Uiso   1.00
C1345  C     0.50813   0.74695   0.95767   0.00000  Uiso   1.00
C1346  C     0.45204   0.76390   0.94524   0.00000  Uiso   1.00
C1347  C     0.56612   0.84521   0.70345   0.00000  Uiso   1.00
C1348  C     0.63285   0.77664   0.70329   0.00000  Uiso   1.00
H1349  H     0.60008   0.99655   0.83493   0.00000  Uiso   1.00
H1350  H     0.54254   0.97246   0.68926   0.00000  Uiso   1.00
H1351  H     0.65755   0.69592   0.91147   0.00000  Uiso   1.00
H1352  H     0.49004   0.79167   0.80545   0.00000  Uiso   1.00
H1353  H     0.50995   0.87499   0.86122   0.00000  Uiso   1.00
H1354  H     0.61900   0.72778   0.98682   0.00000  Uiso   1.00
H1355  H     0.65534   0.88834   0.95560   0.00000  Uiso   1.00
H1356  H     0.46105   0.87346   0.71510   0.00000  Uiso   1.00
H1357  H     0.36660   0.90558   0.68959   0.00000  Uiso   1.00
H1358  H     0.39432   0.66923   0.82074   0.00000  Uiso   1.00
H1359  H     0.42531   0.71918   0.71091   0.00000  Uiso   1.00
I1360  I     0.53352   0.67552   0.93401   0.00000  Uiso   1.00
N1361  N     0.47827   0.81890   0.82362   0.00000  Uiso   1.00
N1362  N     0.52173   0.84777   0.84305   0.00000  Uiso   1.00
O1363  O     0.63102   0.91296   0.83572   0.00000  Uiso   1.00
O1364  O     0.39275   0.73973   0.69739   0.00000  Uiso   1.00
O1365  O     0.59008   0.92457   0.74066   0.00000  Uiso   1.00
O1366  O     0.53967   0.93390   0.68136   0.00000  Uiso   1.00
O1367  O     0.41791   0.70386   0.89406   0.00000  Uiso   1.00
O1368  O     0.35090   0.72229   0.92934   0.00000  Uiso   1.00
O1369  O     0.39075   0.90371   0.82949   0.00000  Uiso   1.00
O1370  O     0.64823   0.84024   0.88920   0.00000  Uiso   1.00
O1371  O     0.40796   0.83099   0.88297   0.00000  Uiso   1.00
O1372  O     0.60925   0.76296   0.83718   0.00000  Uiso   1.00
O1373  O     0.36898   0.75371   0.83095   0.00000  Uiso   1.00
O1374  O     0.59204   0.83567   0.78369   0.00000  Uiso   1.00
O1375  O     0.35177   0.82642   0.77747   0.00000  Uiso   1.00
O1376  O     0.35480   0.72952   0.75050   0.00000  Uiso   1.00
Zn1377 Zn    0.60453   0.83951   0.83749   0.00000  Uiso   1.00
Zn1378 Zn    0.39547   0.82716   0.82918   0.00000  Uiso   1.00
C1379  C     0.68064   0.93140   0.83059   0.00000  Uiso   1.00
C1380  C     0.71994   0.83609   0.94510   0.00000  Uiso   1.00
C1381  C     0.68622   0.98554   0.82584   0.00000  Uiso   1.00
C1382  C     0.70214   0.83541   0.90381   0.00000  Uiso   1.00
C1383  C     0.97516   0.68022   0.83035   0.00000  Uiso   1.00
C1384  C     0.98431   0.73502   0.83246   0.00000  Uiso   1.00
C1385  C     0.96433   0.82870   0.76301   0.00000  Uiso   1.00
C1386  C     0.93503   0.75866   0.66796   0.00000  Uiso   1.00
C1387  C     0.94559   0.81841   0.72238   0.00000  Uiso   1.00
C1388  C     0.69426   0.86960   0.96751   0.00000  Uiso   1.00
C1389  C     0.72026   0.88074   0.67189   0.00000  Uiso   1.00
C1390  C     0.80217   0.83141   0.99607   0.00000  Uiso   1.00
C1391  C     0.77460   0.86290   0.68597   0.00000  Uiso   1.00
C1392  C     0.68416   0.74824   0.71934   0.00000  Uiso   1.00
C1393  C     0.89901   0.90321   0.71045   0.00000  Uiso   1.00
C1394  C     0.74002   0.72830   0.92096   0.00000  Uiso   1.00
C1395  C     0.76912   0.81028   0.96167   0.00000  Uiso   1.00
C1396  C     0.86010   0.81795   0.67357   0.00000  Uiso   1.00
C1397  C     0.87933   0.77500   0.98785   0.00000  Uiso   1.00
C1398  C     0.84146   0.74695   0.95767   0.00000  Uiso   1.00
C1399  C     0.78537   0.76390   0.94524   0.00000  Uiso   1.00
C1400  C     0.89945   0.84521   0.70345   0.00000  Uiso   1.00
C1401  C     0.96618   0.77664   0.70329   0.00000  Uiso   1.00
H1402  H     0.93341   0.99655   0.83493   0.00000  Uiso   1.00
H1403  H     0.87587   0.97246   0.68926   0.00000  Uiso   1.00
H1404  H     0.99088   0.69592   0.91147   0.00000  Uiso   1.00
H1405  H     0.82337   0.79167   0.80545   0.00000  Uiso   1.00
H1406  H     0.84328   0.87499   0.86122   0.00000  Uiso   1.00
H1407  H     0.95234   0.72778   0.98682   0.00000  Uiso   1.00
H1408  H     0.98867   0.88834   0.95560   0.00000  Uiso   1.00
H1409  H     0.79438   0.87346   0.71510   0.00000  Uiso   1.00
H1410  H     0.69993   0.90558   0.68959   0.00000  Uiso   1.00
H1411  H     0.72766   0.66923   0.82074   0.00000  Uiso   1.00
H1412  H     0.75865   0.71918   0.71091   0.00000  Uiso   1.00
I1413  I     0.86685   0.67552   0.93401   0.00000  Uiso   1.00
N1414  N     0.81160   0.81890   0.82362   0.00000  Uiso   1.00
N1415  N     0.85507   0.84777   0.84305   0.00000  Uiso   1.00
O1416  O     0.96435   0.91296   0.83572   0.00000  Uiso   1.00
O1417  O     0.72609   0.73973   0.69739   0.00000  Uiso   1.00
O1418  O     0.92341   0.92457   0.74066   0.00000  Uiso   1.00
O1419  O     0.87300   0.93390   0.68136   0.00000  Uiso   1.00
O1420  O     0.75124   0.70386   0.89406   0.00000  Uiso   1.00
O1421  O     0.68423   0.72229   0.92934   0.00000  Uiso   1.00
O1422  O     0.72408   0.90371   0.82949   0.00000  Uiso   1.00
O1423  O     0.98157   0.84024   0.88920   0.00000  Uiso   1.00
O1424  O     0.74130   0.83099   0.88297   0.00000  Uiso   1.00
O1425  O     0.94258   0.76296   0.83718   0.00000  Uiso   1.00
O1426  O     0.70231   0.75371   0.83095   0.00000  Uiso   1.00
O1427  O     0.92537   0.83567   0.78369   0.00000  Uiso   1.00
O1428  O     0.68510   0.82642   0.77747   0.00000  Uiso   1.00
O1429  O     0.68813   0.72952   0.75050   0.00000  Uiso   1.00
Zn1430 Zn    0.93786   0.83951   0.83749   0.00000  Uiso   1.00
Zn1431 Zn    0.72881   0.82716   0.82918   0.00000  Uiso   1.00
loop_
_geom_bond_atom_site_label_1
_geom_bond_atom_site_label_2
_geom_bond_distance
_geom_bond_site_symmetry_2
_ccdc_geom_bond_type
C1     O44     1.288   .     A
C1     C3      1.402   .     S
C1     O144    1.274   1_455 S
C2     C4      1.464   .     S
C2     C17     1.412   .     A
C2     C10     1.403   .     A
C3     C270    1.338   1_455 S
C3     H192    1.088   .     S
C4     O46     1.300   .     A
C4     O151    1.291   1_455 S
C5     C6      1.403   .     S
C5     C374    1.338   1_545 S
C5     H342    1.088   1_545 S
C6     O47     1.286   .     A
C6     O101    1.277   .     S
C7     O49     1.302   .     A
C7     C9      1.455   .     S
C7     O103    1.284   .     S
C8     C23     1.389   .     A
C8     C973    1.403   1_554 S
C8     H983    1.079   1_554 S
C9     C22     1.400   .     A
C9     C23     1.417   .     A
C10    C488    1.391   .     S
C10    H136    1.083   1_455 S
C11    H32     1.083   .     S
C11    C13     1.394   .     A
C11    C964    1.391   1_554 S
C12    C17     1.402   .     A
C12    C490    1.417   .     S
C12    C495    1.412   .     S
C13    H31     1.081   .     S
C13    C966    1.417   1_554 S
C14    O39     1.398   .     S
C14    O51     1.221   .     D
C14    C129    1.482   1_455 S
C15    O41     1.399   .     S
C15    O40     1.223   .     D
C15    C22     1.501   .     S
C16    C21     1.482   .     S
C16    O43     1.398   .     S
C16    O42     1.218   .     D
C17    C21     1.419   .     A
C18    C22     1.410   .     A
C18    C966    1.412   1_554 S
C18    C973    1.424   1_554 S
C19    C20     1.409   .     A
C19    C485    1.403   .     S
C19    C495    1.424   .     S
C20    C21     1.411   .     A
C20    I35     2.164   .     S
C23    C67     1.482   .     S
H24    C164    1.088   .     S
H25    O41     1.014   .     S
H26    O96     1.013   .     S
H27    N36     1.029   .     S
H28    N37     1.029   .     S
H29    C485    1.079   .     S
H30    C63     1.083   .     S
H33    C321    1.088   1_545 S
H34    O39     1.014   .     S
N36    N37     1.293   .     D
N36    Zn53    2.017   .     S
N37    Zn52    2.017   .     S
O38    Zn52    1.946   .     S
O38    C54     1.274   .     S
O43    H132    1.013   1_455 S
O44    Zn53    1.971   .     S
O45    Zn52    1.946   .     S
O45    C57     1.291   .     S
O46    Zn53    1.900   .     S
O47    Zn52    1.971   .     S
O48    Zn53    1.946   .     S
O48    C112    1.277   1_455 S
O49    Zn52    1.900   .     S
O50    Zn53    1.946   .     S
O50    C113    1.284   1_455 S
C54    O97     1.288   .     A
C54    C56     1.402   .     S
C55    C57     1.464   .     S
C55    C70     1.412   .     A
C55    C63     1.403   .     A
C56    C164    1.338   .     S
C56    H245    1.088   .     S
C57    O99     1.300   .     A
C58    C59     1.403   .     S
C58    C427    1.338   1_545 S
C58    H395    1.088   1_545 S
C59    O100    1.286   .     A
C59    O154    1.277   .     S
C60    O102    1.302   .     A
C60    C62     1.455   .     S
C60    O156    1.284   .     S
C61    C76     1.389   .     A
C61    C1026   1.403   1_554 S
C61    H1036   1.079   1_554 S
C62    C75     1.400   .     A
C62    C76     1.417   .     A
C63    C541    1.391   .     S
C64    H85     1.083   .     S
C64    C66     1.394   .     A
C64    C1017   1.391   1_554 S
C65    C70     1.402   .     A
C65    C543    1.417   .     S
C65    C548    1.412   .     S
C66    H84     1.081   .     S
C66    C1019   1.417   1_554 S
C67    O92     1.398   .     S
C67    O104    1.221   .     D
C68    O94     1.399   .     S
C68    O93     1.223   .     D
C68    C75     1.501   .     S
C69    C74     1.482   .     S
C69    O96     1.398   .     S
C69    O95     1.218   .     D
C70    C74     1.419   .     A
C71    C75     1.410   .     A
C71    C1019   1.412   1_554 S
C71    C1026   1.424   1_554 S
C72    C73     1.409   .     A
C72    C538    1.403   .     S
C72    C548    1.424   .     S
C73    C74     1.411   .     A
C73    I88     2.164   .     S
C76    C120    1.482   .     S
H77    C217    1.088   .     S
H78    O94     1.014   .     S
H79    O149    1.013   .     S
H80    N89     1.029   .     S
H81    N90     1.029   .     S
H82    C538    1.079   .     S
H83    C116    1.083   .     S
H86    C374    1.088   1_545 S
H87    O92     1.014   .     S
N89    N90     1.293   .     D
N89    Zn106   2.017   .     S
N90    Zn105   2.017   .     S
O91    Zn105   1.946   .     S
O91    C107    1.274   .     S
O97    Zn106   1.971   .     S
O98    Zn105   1.946   .     S
O98    C110    1.291   .     S
O99    Zn106   1.900   .     S
O100   Zn105   1.971   .     S
O101   Zn106   1.946   .     S
O102   Zn105   1.900   .     S
O103   Zn106   1.946   .     S
C107   O150    1.288   .     A
C107   C109    1.402   .     S
C108   C110    1.464   .     S
C108   C123    1.412   .     A
C108   C116    1.403   .     A
C109   C217    1.338   .     S
C109   H298    1.088   .     S
C110   O152    1.300   .     A
C111   C112    1.403   .     S
C111   C321    1.338   1_645 S
C111   H448    1.088   1_545 S
C112   O153    1.286   .     A
C112   O48     1.277   1_655 S
C113   O155    1.302   .     A
C113   C115    1.455   .     S
C113   O50     1.284   1_655 S
C114   C129    1.389   .     A
C114   C1079   1.403   1_554 S
C114   H1089   1.079   1_554 S
C115   C128    1.400   .     A
C115   C129    1.417   .     A
C116   C594    1.391   .     S
C117   H138    1.083   .     S
C117   C119    1.394   .     A
C117   C1070   1.391   1_554 S
C118   C123    1.402   .     A
C118   C596    1.417   .     S
C118   C601    1.412   .     S
C119   H137    1.081   .     S
C119   C1072   1.417   1_554 S
C120   O145    1.398   .     S
C120   O157    1.221   .     D
C121   O147    1.399   .     S
C121   O146    1.223   .     D
C121   C128    1.501   .     S
C122   C127    1.482   .     S
C122   O149    1.398   .     S
C122   O148    1.218   .     D
C123   C127    1.419   .     A
C124   C128    1.410   .     A
C124   C1072   1.412   1_554 S
C124   C1079   1.424   1_554 S
C125   C126    1.409   .     A
C125   C591    1.403   .     S
C125   C601    1.424   .     S
C126   C127    1.411   .     A
C126   I141    2.164   .     S
C129   C14     1.482   1_655 S
H130   C270    1.088   .     S
H131   O147    1.014   .     S
H132   O43     1.013   1_655 S
H133   N142    1.029   .     S
H134   N143    1.029   .     S
H135   C591    1.079   .     S
H136   C10     1.083   1_655 S
H139   C427    1.088   1_545 S
H140   O145    1.014   .     S
N142   N143    1.293   .     D
N142   Zn159   2.017   .     S
N143   Zn158   2.017   .     S
O144   Zn158   1.946   .     S
O144   C1      1.274   1_655 S
O150   Zn159   1.971   .     S
O151   Zn158   1.946   .     S
O151   C4      1.291   1_655 S
O152   Zn159   1.900   .     S
O153   Zn158   1.971   .     S
O154   Zn159   1.946   .     S
O155   Zn158   1.900   .     S
O156   Zn159   1.946   .     S
C160   O203    1.288   .     A
C160   C162    1.402   .     S
C160   O303    1.274   1_455 S
C161   C163    1.464   .     S
C161   C176    1.412   .     A
C161   C169    1.403   .     A
C162   C429    1.338   1_455 S
C162   H351    1.088   .     S
C163   O205    1.300   .     A
C163   O310    1.291   1_455 S
C164   C165    1.403   .     S
C165   O206    1.286   .     A
C165   O260    1.277   .     S
C166   O208    1.302   .     A
C166   C168    1.455   .     S
C166   O262    1.284   .     S
C167   C182    1.389   .     A
C167   C1132   1.403   1_554 S
C167   H1142   1.079   1_554 S
C168   C181    1.400   .     A
C168   C182    1.417   .     A
C169   C647    1.391   .     S
C169   H295    1.083   1_455 S
C170   H191    1.083   .     S
C170   C172    1.394   .     A
C170   C1123   1.391   1_554 S
C171   C176    1.402   .     A
C171   C649    1.417   .     S
C171   C654    1.412   .     S
C172   H190    1.081   .     S
C172   C1125   1.417   1_554 S
C173   O198    1.398   .     S
C173   O210    1.221   .     D
C173   C288    1.482   1_455 S
C174   O200    1.399   .     S
C174   O199    1.223   .     D
C174   C181    1.501   .     S
C175   C180    1.482   .     S
C175   O202    1.398   .     S
C175   O201    1.218   .     D
C176   C180    1.419   .     A
C177   C181    1.410   .     A
C177   C1125   1.412   1_554 S
C177   C1132   1.424   1_554 S
C178   C179    1.409   .     A
C178   C644    1.403   .     S
C178   C654    1.424   .     S
C179   C180    1.411   .     A
C179   I194    2.164   .     S
C182   C226    1.482   .     S
H183   C323    1.088   .     S
H184   O200    1.014   .     S
H185   O255    1.013   .     S
H186   N195    1.029   .     S
H187   N196    1.029   .     S
H188   C644    1.079   .     S
H189   C222    1.083   .     S
H193   O198    1.014   .     S
N195   N196    1.293   .     D
N195   Zn212   2.017   .     S
N196   Zn211   2.017   .     S
O197   Zn211   1.946   .     S
O197   C213    1.274   .     S
O202   H291    1.013   1_455 S
O203   Zn212   1.971   .     S
O204   Zn211   1.946   .     S
O204   C216    1.291   .     S
O205   Zn212   1.900   .     S
O206   Zn211   1.971   .     S
O207   Zn212   1.946   .     S
O207   C271    1.277   1_455 S
O208   Zn211   1.900   .     S
O209   Zn212   1.946   .     S
O209   C272    1.284   1_455 S
C213   O256    1.288   .     A
C213   C215    1.402   .     S
C214   C216    1.464   .     S
C214   C229    1.412   .     A
C214   C222    1.403   .     A
C215   C323    1.338   .     S
C215   H404    1.088   .     S
C216   O258    1.300   .     A
C217   C218    1.403   .     S
C218   O259    1.286   .     A
C218   O313    1.277   .     S
C219   O261    1.302   .     A
C219   C221    1.455   .     S
C219   O315    1.284   .     S
C220   C235    1.389   .     A
C220   C1185   1.403   1_554 S
C220   H1195   1.079   1_554 S
C221   C234    1.400   .     A
C221   C235    1.417   .     A
C222   C700    1.391   .     S
C223   H244    1.083   .     S
C223   C225    1.394   .     A
C223   C1176   1.391   1_554 S
C224   C229    1.402   .     A
C224   C702    1.417   .     S
C224   C707    1.412   .     S
C225   H243    1.081   .     S
C225   C1178   1.417   1_554 S
C226   O251    1.398   .     S
C226   O263    1.221   .     D
C227   O253    1.399   .     S
C227   O252    1.223   .     D
C227   C234    1.501   .     S
C228   C233    1.482   .     S
C228   O255    1.398   .     S
C228   O254    1.218   .     D
C229   C233    1.419   .     A
C230   C234    1.410   .     A
C230   C1178   1.412   1_554 S
C230   C1185   1.424   1_554 S
C231   C232    1.409   .     A
C231   C697    1.403   .     S
C231   C707    1.424   .     S
C232   C233    1.411   .     A
C232   I247    2.164   .     S
C235   C279    1.482   .     S
H236   C376    1.088   .     S
H237   O253    1.014   .     S
H238   O308    1.013   .     S
H239   N248    1.029   .     S
H240   N249    1.029   .     S
H241   C697    1.079   .     S
H242   C275    1.083   .     S
H246   O251    1.014   .     S
N248   N249    1.293   .     D
N248   Zn265   2.017   .     S
N249   Zn264   2.017   .     S
O250   Zn264   1.946   .     S
O250   C266    1.274   .     S
O256   Zn265   1.971   .     S
O257   Zn264   1.946   .     S
O257   C269    1.291   .     S
O258   Zn265   1.900   .     S
O259   Zn264   1.971   .     S
O260   Zn265   1.946   .     S
O261   Zn264   1.900   .     S
O262   Zn265   1.946   .     S
C266   O309    1.288   .     A
C266   C268    1.402   .     S
C267   C269    1.464   .     S
C267   C282    1.412   .     A
C267   C275    1.403   .     A
C268   C376    1.338   .     S
C268   H457    1.088   .     S
C269   O311    1.300   .     A
C270   C271    1.403   .     S
C270   C3      1.338   1_655 S
C271   O312    1.286   .     A
C271   O207    1.277   1_655 S
C272   O314    1.302   .     A
C272   C274    1.455   .     S
C272   O209    1.284   1_655 S
C273   C288    1.389   .     A
C273   C1238   1.403   1_554 S
C273   H1248   1.079   1_554 S
C274   C287    1.400   .     A
C274   C288    1.417   .     A
C275   C753    1.391   .     S
C276   H297    1.083   .     S
C276   C278    1.394   .     A
C276   C1229   1.391   1_554 S
C277   C282    1.402   .     A
C277   C755    1.417   .     S
C277   C760    1.412   .     S
C278   H296    1.081   .     S
C278   C1231   1.417   1_554 S
C279   O304    1.398   .     S
C279   O316    1.221   .     D
C280   O306    1.399   .     S
C280   O305    1.223   .     D
C280   C287    1.501   .     S
C281   C286    1.482   .     S
C281   O308    1.398   .     S
C281   O307    1.218   .     D
C282   C286    1.419   .     A
C283   C287    1.410   .     A
C283   C1231   1.412   1_554 S
C283   C1238   1.424   1_554 S
C284   C285    1.409   .     A
C284   C750    1.403   .     S
C284   C760    1.424   .     S
C285   C286    1.411   .     A
C285   I300    2.164   .     S
C288   C173    1.482   1_655 S
H289   C429    1.088   .     S
H290   O306    1.014   .     S
H291   O202    1.013   1_655 S
H292   N301    1.029   .     S
H293   N302    1.029   .     S
H294   C750    1.079   .     S
H295   C169    1.083   1_655 S
H299   O304    1.014   .     S
N301   N302    1.293   .     D
N301   Zn318   2.017   .     S
N302   Zn317   2.017   .     S
O303   Zn317   1.946   .     S
O303   C160    1.274   1_655 S
O309   Zn318   1.971   .     S
O310   Zn317   1.946   .     S
O310   C163    1.291   1_655 S
O311   Zn318   1.900   .     S
O312   Zn317   1.971   .     S
O313   Zn318   1.946   .     S
O314   Zn317   1.900   .     S
O315   Zn318   1.946   .     S
C319   O362    1.288   .     A
C319   C321    1.402   .     S
C319   O462    1.274   1_455 S
C320   C322    1.464   .     S
C320   C335    1.412   .     A
C320   C328    1.403   .     A
C321   C111    1.338   1_465 S
C321   H33     1.088   1_565 S
C322   O364    1.300   .     A
C322   O469    1.291   1_455 S
C323   C324    1.403   .     S
C324   O365    1.286   .     A
C324   O419    1.277   .     S
C325   O367    1.302   .     A
C325   C327    1.455   .     S
C325   O421    1.284   .     S
C326   C341    1.389   .     A
C326   C1291   1.403   1_554 S
C326   H1301   1.079   1_554 S
C327   C340    1.400   .     A
C327   C341    1.417   .     A
C328   C806    1.391   .     S
C328   H454    1.083   1_455 S
C329   H350    1.083   .     S
C329   C331    1.394   .     A
C329   C1282   1.391   1_554 S
C330   C335    1.402   .     A
C330   C808    1.417   .     S
C330   C813    1.412   .     S
C331   H349    1.081   .     S
C331   C1284   1.417   1_554 S
C332   O357    1.398   .     S
C332   O369    1.221   .     D
C332   C447    1.482   1_455 S
C333   O359    1.399   .     S
C333   O358    1.223   .     D
C333   C340    1.501   .     S
C334   C339    1.482   .     S
C334   O361    1.398   .     S
C334   O360    1.218   .     D
C335   C339    1.419   .     A
C336   C340    1.410   .     A
C336   C1284   1.412   1_554 S
C336   C1291   1.424   1_554 S
C337   C338    1.409   .     A
C337   C803    1.403   .     S
C337   C813    1.424   .     S
C338   C339    1.411   .     A
C338   I353    2.164   .     S
C341   C385    1.482   .     S
H342   C5      1.088   1_565 S
H343   O359    1.014   .     S
H344   O414    1.013   .     S
H345   N354    1.029   .     S
H346   N355    1.029   .     S
H347   C803    1.079   .     S
H348   C381    1.083   .     S
H352   O357    1.014   .     S
N354   N355    1.293   .     D
N354   Zn371   2.017   .     S
N355   Zn370   2.017   .     S
O356   Zn370   1.946   .     S
O356   C372    1.274   .     S
O361   H450    1.013   1_455 S
O362   Zn371   1.971   .     S
O363   Zn370   1.946   .     S
O363   C375    1.291   .     S
O364   Zn371   1.900   .     S
O365   Zn370   1.971   .     S
O366   Zn371   1.946   .     S
O366   C430    1.277   1_455 S
O367   Zn370   1.900   .     S
O368   Zn371   1.946   .     S
O368   C431    1.284   1_455 S
C372   O415    1.288   .     A
C372   C374    1.402   .     S
C373   C375    1.464   .     S
C373   C388    1.412   .     A
C373   C381    1.403   .     A
C374   C5      1.338   1_565 S
C374   H86     1.088   1_565 S
C375   O417    1.300   .     A
C376   C377    1.403   .     S
C377   O418    1.286   .     A
C377   O472    1.277   .     S
C378   O420    1.302   .     A
C378   C380    1.455   .     S
C378   O474    1.284   .     S
C379   C394    1.389   .     A
C379   C1344   1.403   1_554 S
C379   H1354   1.079   1_554 S
C380   C393    1.400   .     A
C380   C394    1.417   .     A
C381   C859    1.391   .     S
C382   H403    1.083   .     S
C382   C384    1.394   .     A
C382   C1335   1.391   1_554 S
C383   C388    1.402   .     A
C383   C861    1.417   .     S
C383   C866    1.412   .     S
C384   H402    1.081   .     S
C384   C1337   1.417   1_554 S
C385   O410    1.398   .     S
C385   O422    1.221   .     D
C386   O412    1.399   .     S
C386   O411    1.223   .     D
C386   C393    1.501   .     S
C387   C392    1.482   .     S
C387   O414    1.398   .     S
C387   O413    1.218   .     D
C388   C392    1.419   .     A
C389   C393    1.410   .     A
C389   C1337   1.412   1_554 S
C389   C1344   1.424   1_554 S
C390   C391    1.409   .     A
C390   C856    1.403   .     S
C390   C866    1.424   .     S
C391   C392    1.411   .     A
C391   I406    2.164   .     S
C394   C438    1.482   .     S
H395   C58     1.088   1_565 S
H396   O412    1.014   .     S
H397   O467    1.013   .     S
H398   N407    1.029   .     S
H399   N408    1.029   .     S
H400   C856    1.079   .     S
H401   C434    1.083   .     S
H405   O410    1.014   .     S
N407   N408    1.293   .     D
N407   Zn424   2.017   .     S
N408   Zn423   2.017   .     S
O409   Zn423   1.946   .     S
O409   C425    1.274   .     S
O415   Zn424   1.971   .     S
O416   Zn423   1.946   .     S
O416   C428    1.291   .     S
O417   Zn424   1.900   .     S
O418   Zn423   1.971   .     S
O419   Zn424   1.946   .     S
O420   Zn423   1.900   .     S
O421   Zn424   1.946   .     S
C425   O468    1.288   .     A
C425   C427    1.402   .     S
C426   C428    1.464   .     S
C426   C441    1.412   .     A
C426   C434    1.403   .     A
C427   C58     1.338   1_565 S
C427   H139    1.088   1_565 S
C428   O470    1.300   .     A
C429   C430    1.403   .     S
C429   C162    1.338   1_655 S
C430   O471    1.286   .     A
C430   O366    1.277   1_655 S
C431   O473    1.302   .     A
C431   C433    1.455   .     S
C431   O368    1.284   1_655 S
C432   C447    1.389   .     A
C432   C1397   1.403   1_554 S
C432   H1407   1.079   1_554 S
C433   C446    1.400   .     A
C433   C447    1.417   .     A
C434   C912    1.391   .     S
C435   H456    1.083   .     S
C435   C437    1.394   .     A
C435   C1388   1.391   1_554 S
C436   C441    1.402   .     A
C436   C914    1.417   .     S
C436   C919    1.412   .     S
C437   H455    1.081   .     S
C437   C1390   1.417   1_554 S
C438   O463    1.398   .     S
C438   O475    1.221   .     D
C439   O465    1.399   .     S
C439   O464    1.223   .     D
C439   C446    1.501   .     S
C440   C445    1.482   .     S
C440   O467    1.398   .     S
C440   O466    1.218   .     D
C441   C445    1.419   .     A
C442   C446    1.410   .     A
C442   C1390   1.412   1_554 S
C442   C1397   1.424   1_554 S
C443   C444    1.409   .     A
C443   C909    1.403   .     S
C443   C919    1.424   .     S
C444   C445    1.411   .     A
C444   I459    2.164   .     S
C447   C332    1.482   1_655 S
H448   C111    1.088   1_565 S
H449   O465    1.014   .     S
H450   O361    1.013   1_655 S
H451   N460    1.029   .     S
H452   N461    1.029   .     S
H453   C909    1.079   .     S
H454   C328    1.083   1_655 S
H458   O463    1.014   .     S
N460   N461    1.293   .     D
N460   Zn477   2.017   .     S
N461   Zn476   2.017   .     S
O462   Zn476   1.946   .     S
O462   C319    1.274   1_655 S
O468   Zn477   1.971   .     S
O469   Zn476   1.946   .     S
O469   C322    1.291   1_655 S
O470   Zn477   1.900   .     S
O471   Zn476   1.971   .     S
O472   Zn477   1.946   .     S
O473   Zn476   1.900   .     S
O474   Zn477   1.946   .     S
C478   O521    1.288   .     A
C478   C480    1.402   .     S
C478   O621    1.274   1_455 S
C479   C481    1.464   .     S
C479   C494    1.412   .     A
C479   C487    1.403   .     A
C480   C747    1.338   1_455 S
C480   H669    1.088   .     S
C481   O523    1.300   .     A
C481   O628    1.291   1_455 S
C482   C483    1.403   .     S
C482   C851    1.338   1_545 S
C482   H819    1.088   1_545 S
C483   O524    1.286   .     A
C483   O578    1.277   .     S
C484   O526    1.302   .     A
C484   C486    1.455   .     S
C484   O580    1.284   .     S
C485   C500    1.389   .     A
C486   C499    1.400   .     A
C486   C500    1.417   .     A
C487   C965    1.391   .     S
C487   H613    1.083   1_455 S
C488   H509    1.083   .     S
C488   C490    1.394   .     A
C489   C494    1.402   .     A
C489   C967    1.417   .     S
C489   C972    1.412   .     S
C490   H508    1.081   .     S
C491   O516    1.398   .     S
C491   O528    1.221   .     D
C491   C606    1.482   1_455 S
C492   O518    1.399   .     S
C492   O517    1.223   .     D
C492   C499    1.501   .     S
C493   C498    1.482   .     S
C493   O520    1.398   .     S
C493   O519    1.218   .     D
C494   C498    1.419   .     A
C495   C499    1.410   .     A
C496   C497    1.409   .     A
C496   C962    1.403   .     S
C496   C972    1.424   .     S
C497   C498    1.411   .     A
C497   I512    2.164   .     S
C500   C544    1.482   .     S
H501   C641    1.088   .     S
H502   O518    1.014   .     S
H503   O573    1.013   .     S
H504   N513    1.029   .     S
H505   N514    1.029   .     S
H506   C962    1.079   .     S
H507   C540    1.083   .     S
H510   C798    1.088   1_545 S
H511   O516    1.014   .     S
N513   N514    1.293   .     D
N513   Zn530   2.017   .     S
N514   Zn529   2.017   .     S
O515   Zn529   1.946   .     S
O515   C531    1.274   .     S
O520   H609    1.013   1_455 S
O521   Zn530   1.971   .     S
O522   Zn529   1.946   .     S
O522   C534    1.291   .     S
O523   Zn530   1.900   .     S
O524   Zn529   1.971   .     S
O525   Zn530   1.946   .     S
O525   C589    1.277   1_455 S
O526   Zn529   1.900   .     S
O527   Zn530   1.946   .     S
O527   C590    1.284   1_455 S
C531   O574    1.288   .     A
C531   C533    1.402   .     S
C532   C534    1.464   .     S
C532   C547    1.412   .     A
C532   C540    1.403   .     A
C533   C641    1.338   .     S
C533   H722    1.088   .     S
C534   O576    1.300   .     A
C535   C536    1.403   .     S
C535   C904    1.338   1_545 S
C535   H872    1.088   1_545 S
C536   O577    1.286   .     A
C536   O631    1.277   .     S
C537   O579    1.302   .     A
C537   C539    1.455   .     S
C537   O633    1.284   .     S
C538   C553    1.389   .     A
C539   C552    1.400   .     A
C539   C553    1.417   .     A
C540   C1018   1.391   .     S
C541   H562    1.083   .     S
C541   C543    1.394   .     A
C542   C547    1.402   .     A
C542   C1020   1.417   .     S
C542   C1025   1.412   .     S
C543   H561    1.081   .     S
C544   O569    1.398   .     S
C544   O581    1.221   .     D
C545   O571    1.399   .     S
C545   O570    1.223   .     D
C545   C552    1.501   .     S
C546   C551    1.482   .     S
C546   O573    1.398   .     S
C546   O572    1.218   .     D
C547   C551    1.419   .     A
C548   C552    1.410   .     A
C549   C550    1.409   .     A
C549   C1015   1.403   .     S
C549   C1025   1.424   .     S
C550   C551    1.411   .     A
C550   I565    2.164   .     S
C553   C597    1.482   .     S
H554   C694    1.088   .     S
H555   O571    1.014   .     S
H556   O626    1.013   .     S
H557   N566    1.029   .     S
H558   N567    1.029   .     S
H559   C1015   1.079   .     S
H560   C593    1.083   .     S
H563   C851    1.088   1_545 S
H564   O569    1.014   .     S
N566   N567    1.293   .     D
N566   Zn583   2.017   .     S
N567   Zn582   2.017   .     S
O568   Zn582   1.946   .     S
O568   C584    1.274   .     S
O574   Zn583   1.971   .     S
O575   Zn582   1.946   .     S
O575   C587    1.291   .     S
O576   Zn583   1.900   .     S
O577   Zn582   1.971   .     S
O578   Zn583   1.946   .     S
O579   Zn582   1.900   .     S
O580   Zn583   1.946   .     S
C584   O627    1.288   .     A
C584   C586    1.402   .     S
C585   C587    1.464   .     S
C585   C600    1.412   .     A
C585   C593    1.403   .     A
C586   C694    1.338   .     S
C586   H775    1.088   .     S
C587   O629    1.300   .     A
C588   C589    1.403   .     S
C588   C798    1.338   1_645 S
C588   H925    1.088   1_545 S
C589   O630    1.286   .     A
C589   O525    1.277   1_655 S
C590   O632    1.302   .     A
C590   C592    1.455   .     S
C590   O527    1.284   1_655 S
C591   C606    1.389   .     A
C592   C605    1.400   .     A
C592   C606    1.417   .     A
C593   C1071   1.391   .     S
C594   H615    1.083   .     S
C594   C596    1.394   .     A
C595   C600    1.402   .     A
C595   C1073   1.417   .     S
C595   C1078   1.412   .     S
C596   H614    1.081   .     S
C597   O622    1.398   .     S
C597   O634    1.221   .     D
C598   O624    1.399   .     S
C598   O623    1.223   .     D
C598   C605    1.501   .     S
C599   C604    1.482   .     S
C599   O626    1.398   .     S
C599   O625    1.218   .     D
C600   C604    1.419   .     A
C601   C605    1.410   .     A
C602   C603    1.409   .     A
C602   C1068   1.403   .     S
C602   C1078   1.424   .     S
C603   C604    1.411   .     A
C603   I618    2.164   .     S
C606   C491    1.482   1_655 S
H607   C747    1.088   .     S
H608   O624    1.014   .     S
H609   O520    1.013   1_655 S
H610   N619    1.029   .     S
H611   N620    1.029   .     S
H612   C1068   1.079   .     S
H613   C487    1.083   1_655 S
H616   C904    1.088   1_545 S
H617   O622    1.014   .     S
N619   N620    1.293   .     D
N619   Zn636   2.017   .     S
N620   Zn635   2.017   .     S
O621   Zn635   1.946   .     S
O621   C478    1.274   1_655 S
O627   Zn636   1.971   .     S
O628   Zn635   1.946   .     S
O628   C481    1.291   1_655 S
O629   Zn636   1.900   .     S
O630   Zn635   1.971   .     S
O631   Zn636   1.946   .     S
O632   Zn635   1.900   .     S
O633   Zn636   1.946   .     S
C637   O680    1.288   .     A
C637   C639    1.402   .     S
C637   O780    1.274   1_455 S
C638   C640    1.464   .     S
C638   C653    1.412   .     A
C638   C646    1.403   .     A
C639   C906    1.338   1_455 S
C639   H828    1.088   .     S
C640   O682    1.300   .     A
C640   O787    1.291   1_455 S
C641   C642    1.403   .     S
C642   O683    1.286   .     A
C642   O737    1.277   .     S
C643   O685    1.302   .     A
C643   C645    1.455   .     S
C643   O739    1.284   .     S
C644   C659    1.389   .     A
C645   C658    1.400   .     A
C645   C659    1.417   .     A
C646   C1124   1.391   .     S
C646   H772    1.083   1_455 S
C647   H668    1.083   .     S
C647   C649    1.394   .     A
C648   C653    1.402   .     A
C648   C1126   1.417   .     S
C648   C1131   1.412   .     S
C649   H667    1.081   .     S
C650   O675    1.398   .     S
C650   O687    1.221   .     D
C650   C765    1.482   1_455 S
C651   O677    1.399   .     S
C651   O676    1.223   .     D
C651   C658    1.501   .     S
C652   C657    1.482   .     S
C652   O679    1.398   .     S
C652   O678    1.218   .     D
C653   C657    1.419   .     A
C654   C658    1.410   .     A
C655   C656    1.409   .     A
C655   C1121   1.403   .     S
C655   C1131   1.424   .     S
C656   C657    1.411   .     A
C656   I671    2.164   .     S
C659   C703    1.482   .     S
H660   C800    1.088   .     S
H661   O677    1.014   .     S
H662   O732    1.013   .     S
H663   N672    1.029   .     S
H664   N673    1.029   .     S
H665   C1121   1.079   .     S
H666   C699    1.083   .     S
H670   O675    1.014   .     S
N672   N673    1.293   .     D
N672   Zn689   2.017   .     S
N673   Zn688   2.017   .     S
O674   Zn688   1.946   .     S
O674   C690    1.274   .     S
O679   H768    1.013   1_455 S
O680   Zn689   1.971   .     S
O681   Zn688   1.946   .     S
O681   C693    1.291   .     S
O682   Zn689   1.900   .     S
O683   Zn688   1.971   .     S
O684   Zn689   1.946   .     S
O684   C748    1.277   1_455 S
O685   Zn688   1.900   .     S
O686   Zn689   1.946   .     S
O686   C749    1.284   1_455 S
C690   O733    1.288   .     A
C690   C692    1.402   .     S
C691   C693    1.464   .     S
C691   C706    1.412   .     A
C691   C699    1.403   .     A
C692   C800    1.338   .     S
C692   H881    1.088   .     S
C693   O735    1.300   .     A
C694   C695    1.403   .     S
C695   O736    1.286   .     A
C695   O790    1.277   .     S
C696   O738    1.302   .     A
C696   C698    1.455   .     S
C696   O792    1.284   .     S
C697   C712    1.389   .     A
C698   C711    1.400   .     A
C698   C712    1.417   .     A
C699   C1177   1.391   .     S
C700   H721    1.083   .     S
C700   C702    1.394   .     A
C701   C706    1.402   .     A
C701   C1179   1.417   .     S
C701   C1184   1.412   .     S
C702   H720    1.081   .     S
C703   O728    1.398   .     S
C703   O740    1.221   .     D
C704   O730    1.399   .     S
C704   O729    1.223   .     D
C704   C711    1.501   .     S
C705   C710    1.482   .     S
C705   O732    1.398   .     S
C705   O731    1.218   .     D
C706   C710    1.419   .     A
C707   C711    1.410   .     A
C708   C709    1.409   .     A
C708   C1174   1.403   .     S
C708   C1184   1.424   .     S
C709   C710    1.411   .     A
C709   I724    2.164   .     S
C712   C756    1.482   .     S
H713   C853    1.088   .     S
H714   O730    1.014   .     S
H715   O785    1.013   .     S
H716   N725    1.029   .     S
H717   N726    1.029   .     S
H718   C1174   1.079   .     S
H719   C752    1.083   .     S
H723   O728    1.014   .     S
N725   N726    1.293   .     D
N725   Zn742   2.017   .     S
N726   Zn741   2.017   .     S
O727   Zn741   1.946   .     S
O727   C743    1.274   .     S
O733   Zn742   1.971   .     S
O734   Zn741   1.946   .     S
O734   C746    1.291   .     S
O735   Zn742   1.900   .     S
O736   Zn741   1.971   .     S
O737   Zn742   1.946   .     S
O738   Zn741   1.900   .     S
O739   Zn742   1.946   .     S
C743   O786    1.288   .     A
C743   C745    1.402   .     S
C744   C746    1.464   .     S
C744   C759    1.412   .     A
C744   C752    1.403   .     A
C745   C853    1.338   .     S
C745   H934    1.088   .     S
C746   O788    1.300   .     A
C747   C748    1.403   .     S
C747   C480    1.338   1_655 S
C748   O789    1.286   .     A
C748   O684    1.277   1_655 S
C749   O791    1.302   .     A
C749   C751    1.455   .     S
C749   O686    1.284   1_655 S
C750   C765    1.389   .     A
C751   C764    1.400   .     A
C751   C765    1.417   .     A
C752   C1230   1.391   .     S
C753   H774    1.083   .     S
C753   C755    1.394   .     A
C754   C759    1.402   .     A
C754   C1232   1.417   .     S
C754   C1237   1.412   .     S
C755   H773    1.081   .     S
C756   O781    1.398   .     S
C756   O793    1.221   .     D
C757   O783    1.399   .     S
C757   O782    1.223   .     D
C757   C764    1.501   .     S
C758   C763    1.482   .     S
C758   O785    1.398   .     S
C758   O784    1.218   .     D
C759   C763    1.419   .     A
C760   C764    1.410   .     A
C761   C762    1.409   .     A
C761   C1227   1.403   .     S
C761   C1237   1.424   .     S
C762   C763    1.411   .     A
C762   I777    2.164   .     S
C765   C650    1.482   1_655 S
H766   C906    1.088   .     S
H767   O783    1.014   .     S
H768   O679    1.013   1_655 S
H769   N778    1.029   .     S
H770   N779    1.029   .     S
H771   C1227   1.079   .     S
H772   C646    1.083   1_655 S
H776   O781    1.014   .     S
N778   N779    1.293   .     D
N778   Zn795   2.017   .     S
N779   Zn794   2.017   .     S
O780   Zn794   1.946   .     S
O780   C637    1.274   1_655 S
O786   Zn795   1.971   .     S
O787   Zn794   1.946   .     S
O787   C640    1.291   1_655 S
O788   Zn795   1.900   .     S
O789   Zn794   1.971   .     S
O790   Zn795   1.946   .     S
O791   Zn794   1.900   .     S
O792   Zn795   1.946   .     S
C796   O839    1.288   .     A
C796   C798    1.402   .     S
C796   O939    1.274   1_455 S
C797   C799    1.464   .     S
C797   C812    1.412   .     A
C797   C805    1.403   .     A
C798   C588    1.338   1_465 S
C798   H510    1.088   1_565 S
C799   O841    1.300   .     A
C799   O946    1.291   1_455 S
C800   C801    1.403   .     S
C801   O842    1.286   .     A
C801   O896    1.277   .     S
C802   O844    1.302   .     A
C802   C804    1.455   .     S
C802   O898    1.284   .     S
C803   C818    1.389   .     A
C804   C817    1.400   .     A
C804   C818    1.417   .     A
C805   C1283   1.391   .     S
C805   H931    1.083   1_455 S
C806   H827    1.083   .     S
C806   C808    1.394   .     A
C807   C812    1.402   .     A
C807   C1285   1.417   .     S
C807   C1290   1.412   .     S
C808   H826    1.081   .     S
C809   O834    1.398   .     S
C809   O846    1.221   .     D
C809   C924    1.482   1_455 S
C810   O836    1.399   .     S
C810   O835    1.223   .     D
C810   C817    1.501   .     S
C811   C816    1.482   .     S
C811   O838    1.398   .     S
C811   O837    1.218   .     D
C812   C816    1.419   .     A
C813   C817    1.410   .     A
C814   C815    1.409   .     A
C814   C1280   1.403   .     S
C814   C1290   1.424   .     S
C815   C816    1.411   .     A
C815   I830    2.164   .     S
C818   C862    1.482   .     S
H819   C482    1.088   1_565 S
H820   O836    1.014   .     S
H821   O891    1.013   .     S
H822   N831    1.029   .     S
H823   N832    1.029   .     S
H824   C1280   1.079   .     S
H825   C858    1.083   .     S
H829   O834    1.014   .     S
N831   N832    1.293   .     D
N831   Zn848   2.017   .     S
N832   Zn847   2.017   .     S
O833   Zn847   1.946   .     S
O833   C849    1.274   .     S
O838   H927    1.013   1_455 S
O839   Zn848   1.971   .     S
O840   Zn847   1.946   .     S
O840   C852    1.291   .     S
O841   Zn848   1.900   .     S
O842   Zn847   1.971   .     S
O843   Zn848   1.946   .     S
O843   C907    1.277   1_455 S
O844   Zn847   1.900   .     S
O845   Zn848   1.946   .     S
O845   C908    1.284   1_455 S
C849   O892    1.288   .     A
C849   C851    1.402   .     S
C850   C852    1.464   .     S
C850   C865    1.412   .     A
C850   C858    1.403   .     A
C851   C482    1.338   1_565 S
C851   H563    1.088   1_565 S
C852   O894    1.300   .     A
C853   C854    1.403   .     S
C854   O895    1.286   .     A
C854   O949    1.277   .     S
C855   O897    1.302   .     A
C855   C857    1.455   .     S
C855   O951    1.284   .     S
C856   C871    1.389   .     A
C857   C870    1.400   .     A
C857   C871    1.417   .     A
C858   C1336   1.391   .     S
C859   H880    1.083   .     S
C859   C861    1.394   .     A
C860   C865    1.402   .     A
C860   C1338   1.417   .     S
C860   C1343   1.412   .     S
C861   H879    1.081   .     S
C862   O887    1.398   .     S
C862   O899    1.221   .     D
C863   O889    1.399   .     S
C863   O888    1.223   .     D
C863   C870    1.501   .     S
C864   C869    1.482   .     S
C864   O891    1.398   .     S
C864   O890    1.218   .     D
C865   C869    1.419   .     A
C866   C870    1.410   .     A
C867   C868    1.409   .     A
C867   C1333   1.403   .     S
C867   C1343   1.424   .     S
C868   C869    1.411   .     A
C868   I883    2.164   .     S
C871   C915    1.482   .     S
H872   C535    1.088   1_565 S
H873   O889    1.014   .     S
H874   O944    1.013   .     S
H875   N884    1.029   .     S
H876   N885    1.029   .     S
H877   C1333   1.079   .     S
H878   C911    1.083   .     S
H882   O887    1.014   .     S
N884   N885    1.293   .     D
N884   Zn901   2.017   .     S
N885   Zn900   2.017   .     S
O886   Zn900   1.946   .     S
O886   C902    1.274   .     S
O892   Zn901   1.971   .     S
O893   Zn900   1.946   .     S
O893   C905    1.291   .     S
O894   Zn901   1.900   .     S
O895   Zn900   1.971   .     S
O896   Zn901   1.946   .     S
O897   Zn900   1.900   .     S
O898   Zn901   1.946   .     S
C902   O945    1.288   .     A
C902   C904    1.402   .     S
C903   C905    1.464   .     S
C903   C918    1.412   .     A
C903   C911    1.403   .     A
C904   C535    1.338   1_565 S
C904   H616    1.088   1_565 S
C905   O947    1.300   .     A
C906   C907    1.403   .     S
C906   C639    1.338   1_655 S
C907   O948    1.286   .     A
C907   O843    1.277   1_655 S
C908   O950    1.302   .     A
C908   C910    1.455   .     S
C908   O845    1.284   1_655 S
C909   C924    1.389   .     A
C910   C923    1.400   .     A
C910   C924    1.417   .     A
C911   C1389   1.391   .     S
C912   H933    1.083   .     S
C912   C914    1.394   .     A
C913   C918    1.402   .     A
C913   C1391   1.417   .     S
C913   C1396   1.412   .     S
C914   H932    1.081   .     S
C915   O940    1.398   .     S
C915   O952    1.221   .     D
C916   O942    1.399   .     S
C916   O941    1.223   .     D
C916   C923    1.501   .     S
C917   C922    1.482   .     S
C917   O944    1.398   .     S
C917   O943    1.218   .     D
C918   C922    1.419   .     A
C919   C923    1.410   .     A
C920   C921    1.409   .     A
C920   C1386   1.403   .     S
C920   C1396   1.424   .     S
C921   C922    1.411   .     A
C921   I936    2.164   .     S
C924   C809    1.482   1_655 S
H925   C588    1.088   1_565 S
H926   O942    1.014   .     S
H927   O838    1.013   1_655 S
H928   N937    1.029   .     S
H929   N938    1.029   .     S
H930   C1386   1.079   .     S
H931   C805    1.083   1_655 S
H935   O940    1.014   .     S
N937   N938    1.293   .     D
N937   Zn954   2.017   .     S
N938   Zn953   2.017   .     S
O939   Zn953   1.946   .     S
O939   C796    1.274   1_655 S
O945   Zn954   1.971   .     S
O946   Zn953   1.946   .     S
O946   C799    1.291   1_655 S
O947   Zn954   1.900   .     S
O948   Zn953   1.971   .     S
O949   Zn954   1.946   .     S
O950   Zn953   1.900   .     S
O951   Zn954   1.946   .     S
C955   O998    1.288   .     A
C955   C957    1.402   .     S
C955   O1098   1.274   1_455 S
C956   C958    1.464   .     S
C956   C971    1.412   .     A
C956   C964    1.403   .     A
C957   C1224   1.338   1_455 S
C957   H1146   1.088   .     S
C958   O1000   1.300   .     A
C958   O1105   1.291   1_455 S
C959   C960    1.403   .     S
C959   C1328   1.338   1_545 S
C959   H1296   1.088   1_545 S
C960   O1001   1.286   .     A
C960   O1055   1.277   .     S
C961   O1003   1.302   .     A
C961   C963    1.455   .     S
C961   O1057   1.284   .     S
C962   C977    1.389   .     A
C963   C976    1.400   .     A
C963   C977    1.417   .     A
C964   C11     1.391   1_556 S
C964   H1090   1.083   1_455 S
C965   H986    1.083   .     S
C965   C967    1.394   .     A
C966   C971    1.402   .     A
C966   C13     1.417   1_556 S
C966   C18     1.412   1_556 S
C967   H985    1.081   .     S
C968   O993    1.398   .     S
C968   O1005   1.221   .     D
C968   C1083   1.482   1_455 S
C969   O995    1.399   .     S
C969   O994    1.223   .     D
C969   C976    1.501   .     S
C970   C975    1.482   .     S
C970   O997    1.398   .     S
C970   O996    1.218   .     D
C971   C975    1.419   .     A
C972   C976    1.410   .     A
C973   C974    1.409   .     A
C973   C8      1.403   1_556 S
C973   C18     1.424   1_556 S
C974   C975    1.411   .     A
C974   I989    2.164   .     S
C977   C1021   1.482   .     S
H978   C1118   1.088   .     S
H979   O995    1.014   .     S
H980   O1050   1.013   .     S
H981   N990    1.029   .     S
H982   N991    1.029   .     S
H983   C8      1.079   1_556 S
H984   C1017   1.083   .     S
H987   C1275   1.088   1_545 S
H988   O993    1.014   .     S
N990   N991    1.293   .     D
N990   Zn1007  2.017   .     S
N991   Zn1006  2.017   .     S
O992   Zn1006  1.946   .     S
O992   C1008   1.274   .     S
O997   H1086   1.013   1_455 S
O998   Zn1007  1.971   .     S
O999   Zn1006  1.946   .     S
O999   C1011   1.291   .     S
O1000  Zn1007  1.900   .     S
O1001  Zn1006  1.971   .     S
O1002  Zn1007  1.946   .     S
O1002  C1066   1.277   1_455 S
O1003  Zn1006  1.900   .     S
O1004  Zn1007  1.946   .     S
O1004  C1067   1.284   1_455 S
C1008  O1051   1.288   .     A
C1008  C1010   1.402   .     S
C1009  C1011   1.464   .     S
C1009  C1024   1.412   .     A
C1009  C1017   1.403   .     A
C1010  C1118   1.338   .     S
C1010  H1199   1.088   .     S
C1011  O1053   1.300   .     A
C1012  C1013   1.403   .     S
C1012  C1381   1.338   1_545 S
C1012  H1349   1.088   1_545 S
C1013  O1054   1.286   .     A
C1013  O1108   1.277   .     S
C1014  O1056   1.302   .     A
C1014  C1016   1.455   .     S
C1014  O1110   1.284   .     S
C1015  C1030   1.389   .     A
C1016  C1029   1.400   .     A
C1016  C1030   1.417   .     A
C1017  C64     1.391   1_556 S
C1018  H1039   1.083   .     S
C1018  C1020   1.394   .     A
C1019  C1024   1.402   .     A
C1019  C66     1.417   1_556 S
C1019  C71     1.412   1_556 S
C1020  H1038   1.081   .     S
C1021  O1046   1.398   .     S
C1021  O1058   1.221   .     D
C1022  O1048   1.399   .     S
C1022  O1047   1.223   .     D
C1022  C1029   1.501   .     S
C1023  C1028   1.482   .     S
C1023  O1050   1.398   .     S
C1023  O1049   1.218   .     D
C1024  C1028   1.419   .     A
C1025  C1029   1.410   .     A
C1026  C1027   1.409   .     A
C1026  C61     1.403   1_556 S
C1026  C71     1.424   1_556 S
C1027  C1028   1.411   .     A
C1027  I1042   2.164   .     S
C1030  C1074   1.482   .     S
H1031  C1171   1.088   .     S
H1032  O1048   1.014   .     S
H1033  O1103   1.013   .     S
H1034  N1043   1.029   .     S
H1035  N1044   1.029   .     S
H1036  C61     1.079   1_556 S
H1037  C1070   1.083   .     S
H1040  C1328   1.088   1_545 S
H1041  O1046   1.014   .     S
N1043  N1044   1.293   .     D
N1043  Zn1060  2.017   .     S
N1044  Zn1059  2.017   .     S
O1045  Zn1059  1.946   .     S
O1045  C1061   1.274   .     S
O1051  Zn1060  1.971   .     S
O1052  Zn1059  1.946   .     S
O1052  C1064   1.291   .     S
O1053  Zn1060  1.900   .     S
O1054  Zn1059  1.971   .     S
O1055  Zn1060  1.946   .     S
O1056  Zn1059  1.900   .     S
O1057  Zn1060  1.946   .     S
C1061  O1104   1.288   .     A
C1061  C1063   1.402   .     S
C1062  C1064   1.464   .     S
C1062  C1077   1.412   .     A
C1062  C1070   1.403   .     A
C1063  C1171   1.338   .     S
C1063  H1252   1.088   .     S
C1064  O1106   1.300   .     A
C1065  C1066   1.403   .     S
C1065  C1275   1.338   1_645 S
C1065  H1402   1.088   1_545 S
C1066  O1107   1.286   .     A
C1066  O1002   1.277   1_655 S
C1067  O1109   1.302   .     A
C1067  C1069   1.455   .     S
C1067  O1004   1.284   1_655 S
C1068  C1083   1.389   .     A
C1069  C1082   1.400   .     A
C1069  C1083   1.417   .     A
C1070  C117    1.391   1_556 S
C1071  H1092   1.083   .     S
C1071  C1073   1.394   .     A
C1072  C1077   1.402   .     A
C1072  C119    1.417   1_556 S
C1072  C124    1.412   1_556 S
C1073  H1091   1.081   .     S
C1074  O1099   1.398   .     S
C1074  O1111   1.221   .     D
C1075  O1101   1.399   .     S
C1075  O1100   1.223   .     D
C1075  C1082   1.501   .     S
C1076  C1081   1.482   .     S
C1076  O1103   1.398   .     S
C1076  O1102   1.218   .     D
C1077  C1081   1.419   .     A
C1078  C1082   1.410   .     A
C1079  C1080   1.409   .     A
C1079  C114    1.403   1_556 S
C1079  C124    1.424   1_556 S
C1080  C1081   1.411   .     A
C1080  I1095   2.164   .     S
C1083  C968    1.482   1_655 S
H1084  C1224   1.088   .     S
H1085  O1101   1.014   .     S
H1086  O997    1.013   1_655 S
H1087  N1096   1.029   .     S
H1088  N1097   1.029   .     S
H1089  C114    1.079   1_556 S
H1090  C964    1.083   1_655 S
H1093  C1381   1.088   1_545 S
H1094  O1099   1.014   .     S
N1096  N1097   1.293   .     D
N1096  Zn1113  2.017   .     S
N1097  Zn1112  2.017   .     S
O1098  Zn1112  1.946   .     S
O1098  C955    1.274   1_655 S
O1104  Zn1113  1.971   .     S
O1105  Zn1112  1.946   .     S
O1105  C958    1.291   1_655 S
O1106  Zn1113  1.900   .     S
O1107  Zn1112  1.971   .     S
O1108  Zn1113  1.946   .     S
O1109  Zn1112  1.900   .     S
O1110  Zn1113  1.946   .     S
C1114  O1157   1.288   .     A
C1114  C1116   1.402   .     S
C1114  O1257   1.274   1_455 S
C1115  C1117   1.464   .     S
C1115  C1130   1.412   .     A
C1115  C1123   1.403   .     A
C1116  C1383   1.338   1_455 S
C1116  H1305   1.088   .     S
C1117  O1159   1.300   .     A
C1117  O1264   1.291   1_455 S
C1118  C1119   1.403   .     S
C1119  O1160   1.286   .     A
C1119  O1214   1.277   .     S
C1120  O1162   1.302   .     A
C1120  C1122   1.455   .     S
C1120  O1216   1.284   .     S
C1121  C1136   1.389   .     A
C1122  C1135   1.400   .     A
C1122  C1136   1.417   .     A
C1123  C170    1.391   1_556 S
C1123  H1249   1.083   1_455 S
C1124  H1145   1.083   .     S
C1124  C1126   1.394   .     A
C1125  C1130   1.402   .     A
C1125  C172    1.417   1_556 S
C1125  C177    1.412   1_556 S
C1126  H1144   1.081   .     S
C1127  O1152   1.398   .     S
C1127  O1164   1.221   .     D
C1127  C1242   1.482   1_455 S
C1128  O1154   1.399   .     S
C1128  O1153   1.223   .     D
C1128  C1135   1.501   .     S
C1129  C1134   1.482   .     S
C1129  O1156   1.398   .     S
C1129  O1155   1.218   .     D
C1130  C1134   1.419   .     A
C1131  C1135   1.410   .     A
C1132  C1133   1.409   .     A
C1132  C167    1.403   1_556 S
C1132  C177    1.424   1_556 S
C1133  C1134   1.411   .     A
C1133  I1148   2.164   .     S
C1136  C1180   1.482   .     S
H1137  C1277   1.088   .     S
H1138  O1154   1.014   .     S
H1139  O1209   1.013   .     S
H1140  N1149   1.029   .     S
H1141  N1150   1.029   .     S
H1142  C167    1.079   1_556 S
H1143  C1176   1.083   .     S
H1147  O1152   1.014   .     S
N1149  N1150   1.293   .     D
N1149  Zn1166  2.017   .     S
N1150  Zn1165  2.017   .     S
O1151  Zn1165  1.946   .     S
O1151  C1167   1.274   .     S
O1156  H1245   1.013   1_455 S
O1157  Zn1166  1.971   .     S
O1158  Zn1165  1.946   .     S
O1158  C1170   1.291   .     S
O1159  Zn1166  1.900   .     S
O1160  Zn1165  1.971   .     S
O1161  Zn1166  1.946   .     S
O1161  C1225   1.277   1_455 S
O1162  Zn1165  1.900   .     S
O1163  Zn1166  1.946   .     S
O1163  C1226   1.284   1_455 S
C1167  O1210   1.288   .     A
C1167  C1169   1.402   .     S
C1168  C1170   1.464   .     S
C1168  C1183   1.412   .     A
C1168  C1176   1.403   .     A
C1169  C1277   1.338   .     S
C1169  H1358   1.088   .     S
C1170  O1212   1.300   .     A
C1171  C1172   1.403   .     S
C1172  O1213   1.286   .     A
C1172  O1267   1.277   .     S
C1173  O1215   1.302   .     A
C1173  C1175   1.455   .     S
C1173  O1269   1.284   .     S
C1174  C1189   1.389   .     A
C1175  C1188   1.400   .     A
C1175  C1189   1.417   .     A
C1176  C223    1.391   1_556 S
C1177  H1198   1.083   .     S
C1177  C1179   1.394   .     A
C1178  C1183   1.402   .     A
C1178  C225    1.417   1_556 S
C1178  C230    1.412   1_556 S
C1179  H1197   1.081   .     S
C1180  O1205   1.398   .     S
C1180  O1217   1.221   .     D
C1181  O1207   1.399   .     S
C1181  O1206   1.223   .     D
C1181  C1188   1.501   .     S
C1182  C1187   1.482   .     S
C1182  O1209   1.398   .     S
C1182  O1208   1.218   .     D
C1183  C1187   1.419   .     A
C1184  C1188   1.410   .     A
C1185  C1186   1.409   .     A
C1185  C220    1.403   1_556 S
C1185  C230    1.424   1_556 S
C1186  C1187   1.411   .     A
C1186  I1201   2.164   .     S
C1189  C1233   1.482   .     S
H1190  C1330   1.088   .     S
H1191  O1207   1.014   .     S
H1192  O1262   1.013   .     S
H1193  N1202   1.029   .     S
H1194  N1203   1.029   .     S
H1195  C220    1.079   1_556 S
H1196  C1229   1.083   .     S
H1200  O1205   1.014   .     S
N1202  N1203   1.293   .     D
N1202  Zn1219  2.017   .     S
N1203  Zn1218  2.017   .     S
O1204  Zn1218  1.946   .     S
O1204  C1220   1.274   .     S
O1210  Zn1219  1.971   .     S
O1211  Zn1218  1.946   .     S
O1211  C1223   1.291   .     S
O1212  Zn1219  1.900   .     S
O1213  Zn1218  1.971   .     S
O1214  Zn1219  1.946   .     S
O1215  Zn1218  1.900   .     S
O1216  Zn1219  1.946   .     S
C1220  O1263   1.288   .     A
C1220  C1222   1.402   .     S
C1221  C1223   1.464   .     S
C1221  C1236   1.412   .     A
C1221  C1229   1.403   .     A
C1222  C1330   1.338   .     S
C1222  H1411   1.088   .     S
C1223  O1265   1.300   .     A
C1224  C1225   1.403   .     S
C1224  C957    1.338   1_655 S
C1225  O1266   1.286   .     A
C1225  O1161   1.277   1_655 S
C1226  O1268   1.302   .     A
C1226  C1228   1.455   .     S
C1226  O1163   1.284   1_655 S
C1227  C1242   1.389   .     A
C1228  C1241   1.400   .     A
C1228  C1242   1.417   .     A
C1229  C276    1.391   1_556 S
C1230  H1251   1.083   .     S
C1230  C1232   1.394   .     A
C1231  C1236   1.402   .     A
C1231  C278    1.417   1_556 S
C1231  C283    1.412   1_556 S
C1232  H1250   1.081   .     S
C1233  O1258   1.398   .     S
C1233  O1270   1.221   .     D
C1234  O1260   1.399   .     S
C1234  O1259   1.223   .     D
C1234  C1241   1.501   .     S
C1235  C1240   1.482   .     S
C1235  O1262   1.398   .     S
C1235  O1261   1.218   .     D
C1236  C1240   1.419   .     A
C1237  C1241   1.410   .     A
C1238  C1239   1.409   .     A
C1238  C273    1.403   1_556 S
C1238  C283    1.424   1_556 S
C1239  C1240   1.411   .     A
C1239  I1254   2.164   .     S
C1242  C1127   1.482   1_655 S
H1243  C1383   1.088   .     S
H1244  O1260   1.014   .     S
H1245  O1156   1.013   1_655 S
H1246  N1255   1.029   .     S
H1247  N1256   1.029   .     S
H1248  C273    1.079   1_556 S
H1249  C1123   1.083   1_655 S
H1253  O1258   1.014   .     S
N1255  N1256   1.293   .     D
N1255  Zn1272  2.017   .     S
N1256  Zn1271  2.017   .     S
O1257  Zn1271  1.946   .     S
O1257  C1114   1.274   1_655 S
O1263  Zn1272  1.971   .     S
O1264  Zn1271  1.946   .     S
O1264  C1117   1.291   1_655 S
O1265  Zn1272  1.900   .     S
O1266  Zn1271  1.971   .     S
O1267  Zn1272  1.946   .     S
O1268  Zn1271  1.900   .     S
O1269  Zn1272  1.946   .     S
C1273  O1316   1.288   .     A
C1273  C1275   1.402   .     S
C1273  O1416   1.274   1_455 S
C1274  C1276   1.464   .     S
C1274  C1289   1.412   .     A
C1274  C1282   1.403   .     A
C1275  C1065   1.338   1_465 S
C1275  H987    1.088   1_565 S
C1276  O1318   1.300   .     A
C1276  O1423   1.291   1_455 S
C1277  C1278   1.403   .     S
C1278  O1319   1.286   .     A
C1278  O1373   1.277   .     S
C1279  O1321   1.302   .     A
C1279  C1281   1.455   .     S
C1279  O1375   1.284   .     S
C1280  C1295   1.389   .     A
C1281  C1294   1.400   .     A
C1281  C1295   1.417   .     A
C1282  C329    1.391   1_556 S
C1282  H1408   1.083   1_455 S
C1283  H1304   1.083   .     S
C1283  C1285   1.394   .     A
C1284  C1289   1.402   .     A
C1284  C331    1.417   1_556 S
C1284  C336    1.412   1_556 S
C1285  H1303   1.081   .     S
C1286  O1311   1.398   .     S
C1286  O1323   1.221   .     D
C1286  C1401   1.482   1_455 S
C1287  O1313   1.399   .     S
C1287  O1312   1.223   .     D
C1287  C1294   1.501   .     S
C1288  C1293   1.482   .     S
C1288  O1315   1.398   .     S
C1288  O1314   1.218   .     D
C1289  C1293   1.419   .     A
C1290  C1294   1.410   .     A
C1291  C1292   1.409   .     A
C1291  C326    1.403   1_556 S
C1291  C336    1.424   1_556 S
C1292  C1293   1.411   .     A
C1292  I1307   2.164   .     S
C1295  C1339   1.482   .     S
H1296  C959    1.088   1_565 S
H1297  O1313   1.014   .     S
H1298  O1368   1.013   .     S
H1299  N1308   1.029   .     S
H1300  N1309   1.029   .     S
H1301  C326    1.079   1_556 S
H1302  C1335   1.083   .     S
H1306  O1311   1.014   .     S
N1308  N1309   1.293   .     D
N1308  Zn1325  2.017   .     S
N1309  Zn1324  2.017   .     S
O1310  Zn1324  1.946   .     S
O1310  C1326   1.274   .     S
O1315  H1404   1.013   1_455 S
O1316  Zn1325  1.971   .     S
O1317  Zn1324  1.946   .     S
O1317  C1329   1.291   .     S
O1318  Zn1325  1.900   .     S
O1319  Zn1324  1.971   .     S
O1320  Zn1325  1.946   .     S
O1320  C1384   1.277   1_455 S
O1321  Zn1324  1.900   .     S
O1322  Zn1325  1.946   .     S
O1322  C1385   1.284   1_455 S
C1326  O1369   1.288   .     A
C1326  C1328   1.402   .     S
C1327  C1329   1.464   .     S
C1327  C1342   1.412   .     A
C1327  C1335   1.403   .     A
C1328  C959    1.338   1_565 S
C1328  H1040   1.088   1_565 S
C1329  O1371   1.300   .     A
C1330  C1331   1.403   .     S
C1331  O1372   1.286   .     A
C1331  O1426   1.277   .     S
C1332  O1374   1.302   .     A
C1332  C1334   1.455   .     S
C1332  O1428   1.284   .     S
C1333  C1348   1.389   .     A
C1334  C1347   1.400   .     A
C1334  C1348   1.417   .     A
C1335  C382    1.391   1_556 S
C1336  H1357   1.083   .     S
C1336  C1338   1.394   .     A
C1337  C1342   1.402   .     A
C1337  C384    1.417   1_556 S
C1337  C389    1.412   1_556 S
C1338  H1356   1.081   .     S
C1339  O1364   1.398   .     S
C1339  O1376   1.221   .     D
C1340  O1366   1.399   .     S
C1340  O1365   1.223   .     D
C1340  C1347   1.501   .     S
C1341  C1346   1.482   .     S
C1341  O1368   1.398   .     S
C1341  O1367   1.218   .     D
C1342  C1346   1.419   .     A
C1343  C1347   1.410   .     A
C1344  C1345   1.409   .     A
C1344  C379    1.403   1_556 S
C1344  C389    1.424   1_556 S
C1345  C1346   1.411   .     A
C1345  I1360   2.164   .     S
C1348  C1392   1.482   .     S
H1349  C1012   1.088   1_565 S
H1350  O1366   1.014   .     S
H1351  O1421   1.013   .     S
H1352  N1361   1.029   .     S
H1353  N1362   1.029   .     S
H1354  C379    1.079   1_556 S
H1355  C1388   1.083   .     S
H1359  O1364   1.014   .     S
N1361  N1362   1.293   .     D
N1361  Zn1378  2.017   .     S
N1362  Zn1377  2.017   .     S
O1363  Zn1377  1.946   .     S
O1363  C1379   1.274   .     S
O1369  Zn1378  1.971   .     S
O1370  Zn1377  1.946   .     S
O1370  C1382   1.291   .     S
O1371  Zn1378  1.900   .     S
O1372  Zn1377  1.971   .     S
O1373  Zn1378  1.946   .     S
O1374  Zn1377  1.900   .     S
O1375  Zn1378  1.946   .     S
C1379  O1422   1.288   .     A
C1379  C1381   1.402   .     S
C1380  C1382   1.464   .     S
C1380  C1395   1.412   .     A
C1380  C1388   1.403   .     A
C1381  C1012   1.338   1_565 S
C1381  H1093   1.088   1_565 S
C1382  O1424   1.300   .     A
C1383  C1384   1.403   .     S
C1383  C1116   1.338   1_655 S
C1384  O1425   1.286   .     A
C1384  O1320   1.277   1_655 S
C1385  O1427   1.302   .     A
C1385  C1387   1.455   .     S
C1385  O1322   1.284   1_655 S
C1386  C1401   1.389   .     A
C1387  C1400   1.400   .     A
C1387  C1401   1.417   .     A
C1388  C435    1.391   1_556 S
C1389  H1410   1.083   .     S
C1389  C1391   1.394   .     A
C1390  C1395   1.402   .     A
C1390  C437    1.417   1_556 S
C1390  C442    1.412   1_556 S
C1391  H1409   1.081   .     S
C1392  O1417   1.398   .     S
C1392  O1429   1.221   .     D
C1393  O1419   1.399   .     S
C1393  O1418   1.223   .     D
C1393  C1400   1.501   .     S
C1394  C1399   1.482   .     S
C1394  O1421   1.398   .     S
C1394  O1420   1.218   .     D
C1395  C1399   1.419   .     A
C1396  C1400   1.410   .     A
C1397  C1398   1.409   .     A
C1397  C432    1.403   1_556 S
C1397  C442    1.424   1_556 S
C1398  C1399   1.411   .     A
C1398  I1413   2.164   .     S
C1401  C1286   1.482   1_655 S
H1402  C1065   1.088   1_565 S
H1403  O1419   1.014   .     S
H1404  O1315   1.013   1_655 S
H1405  N1414   1.029   .     S
H1406  N1415   1.029   .     S
H1407  C432    1.079   1_556 S
H1408  C1282   1.083   1_655 S
H1412  O1417   1.014   .     S
N1414  N1415   1.293   .     D
N1414  Zn1431  2.017   .     S
N1415  Zn1430  2.017   .     S
O1416  Zn1430  1.946   .     S
O1416  C1273   1.274   1_655 S
O1422  Zn1431  1.971   .     S
O1423  Zn1430  1.946   .     S
O1423  C1276   1.291   1_655 S
O1424  Zn1431  1.900   .     S
O1425  Zn1430  1.971   .     S
O1426  Zn1431  1.946   .     S
O1427  Zn1430  1.900   .     S
O1428  Zn1431  1.946   .     S
