data_str_m3_o1_o16_pcu_sym.134
_audit_creation_date              2020-01-03
_audit_creation_method            'Materials Studio'
_symmetry_space_group_name_H-M    'P1'
_symmetry_Int_Tables_number       1
_symmetry_cell_setting            triclinic
loop_
_symmetry_equiv_pos_as_xyz
  x,y,z
_cell_length_a                    29.7549
_cell_length_b                    32.2241
_cell_length_c                    26.5890
_cell_angle_alpha                 89.9190
_cell_angle_beta                  71.8492
_cell_angle_gamma                 90.6679
loop_
_atom_site_label
_atom_site_type_symbol
_atom_site_fract_x
_atom_site_fract_y
_atom_site_fract_z
_atom_site_U_iso_or_equiv
_atom_site_adp_type
_atom_site_occupancy
O1     O     0.12846   0.22775   0.25000   0.00000  Uiso   1.00
O2     O     0.20490   0.22774   0.25000   0.00000  Uiso   1.00
C3     C     0.16747   0.24656   0.24889   0.00000  Uiso   1.00
O4     O     0.10947   0.16666   0.32681   0.00000  Uiso   1.00
O5     O     0.18591   0.16665   0.32681   0.00000  Uiso   1.00
C6     C     0.14132   0.16028   0.35071   0.00000  Uiso   1.00
Zn7    Zn    0.11562   0.16667   0.25000   0.00000  Uiso   1.00
Zn8    Zn    0.21771   0.16666   0.25000   0.00000  Uiso   1.00
O9     O     0.12843   0.10559   0.24999   0.00000  Uiso   1.00
O10    O     0.20488   0.10558   0.24999   0.00000  Uiso   1.00
O11    O     0.14742   0.16668   0.17319   0.00000  Uiso   1.00
O12    O     0.22387   0.16667   0.17319   0.00000  Uiso   1.00
C13    C     0.16616   0.08675   0.25073   0.00000  Uiso   1.00
C14    C     0.19255   0.16839   0.14851   0.00000  Uiso   1.00
C15    C     0.26379   0.18526   0.00429   0.00000  Uiso   1.00
H16    H     0.28050   0.16277   0.40276   0.00000  Uiso   1.00
C17    C     0.20741   0.17127   0.09079   0.00000  Uiso   1.00
C18    C     0.08086   0.13464   0.43562   0.00000  Uiso   1.00
C19    C     0.06832   0.12879   0.49059   0.00000  Uiso   1.00
C20    C     0.10106   0.13781   0.01694   0.00000  Uiso   1.00
C21    C     0.14882   0.14754   0.48846   0.00000  Uiso   1.00
C22    C     0.16294   0.14448   0.43301   0.00000  Uiso   1.00
C23    C     0.18363   0.15934   0.01253   0.00000  Uiso   1.00
C24    C     0.23052   0.16951   0.48081   0.00000  Uiso   1.00
C25    C     0.24414   0.15973   0.42718   0.00000  Uiso   1.00
C26    C     0.21192   0.14111   0.40617   0.00000  Uiso   1.00
C27    C     0.17310   0.16146   0.06696   0.00000  Uiso   1.00
C28    C     0.25284   0.18463   0.05962   0.00000  Uiso   1.00
C29    C     0.12794   0.14586   0.40674   0.00000  Uiso   1.00
H30    H     0.13814   0.15421   0.09197   0.00000  Uiso   1.00
H31    H     0.08812   0.13550   0.05945   0.00000  Uiso   1.00
C32    C     0.21010   0.31360   0.22322   0.00000  Uiso   1.00
C33    C     0.20828   0.02293   0.22453   0.00000  Uiso   1.00
H34    H     0.23984   0.04092   0.20430   0.00000  Uiso   1.00
C35    C     0.16584   0.04255   0.25085   0.00000  Uiso   1.00
C36    C     0.12478   0.01953   0.27701   0.00000  Uiso   1.00
C37    C     0.12703   0.31044   0.27657   0.00000  Uiso   1.00
H38    H     0.09628   0.29263   0.29864   0.00000  Uiso   1.00
C39    C     0.16868   0.29076   0.24900   0.00000  Uiso   1.00
C40    C     0.31457   0.13459   0.22867   0.00000  Uiso   1.00
H41    H     0.30067   0.10912   0.21129   0.00000  Uiso   1.00
C42    C     0.02898   0.13422   0.22844   0.00000  Uiso   1.00
N43    N     0.04760   0.16668   0.25001   0.00000  Uiso   1.00
C44    C     0.01752   0.19886   0.27191   0.00000  Uiso   1.00
C45    C     0.30338   0.19862   0.27137   0.00000  Uiso   1.00
H46    H     0.28023   0.22389   0.28909   0.00000  Uiso   1.00
N47    N     0.28573   0.16665   0.25000   0.00000  Uiso   1.00
C48    C     0.28858   0.19710   0.08346   0.00000  Uiso   1.00
N49    N     0.31748   0.20667   0.10208   0.00000  Uiso   1.00
C50    C     0.07982   0.03751   0.30486   0.00000  Uiso   1.00
N51    N     0.04312   0.05086   0.32693   0.00000  Uiso   1.00
N52    N     0.05675   0.09902   0.20562   0.00000  Uiso   1.00
O53    O     0.03799   0.06203   0.21562   0.00000  Uiso   1.00
O54    O     0.09391   0.10402   0.16454   0.00000  Uiso   1.00
N55    N     0.03266   0.23304   0.29690   0.00000  Uiso   1.00
O56    O     0.04847   0.22611   0.33640   0.00000  Uiso   1.00
O57    O     0.01838   0.27017   0.29065   0.00000  Uiso   1.00
C58    C     0.30861   0.20303   0.47241   0.00000  Uiso   1.00
N59    N     0.01100   0.21771   0.44772   0.00000  Uiso   1.00
C60    C     0.04592   0.12708   0.40924   0.00000  Uiso   1.00
N61    N     0.01794   0.12108   0.38813   0.00000  Uiso   1.00
C62    C     0.02177   0.11373   0.02104   0.00000  Uiso   1.00
N63    N     0.31801   0.10137   0.04537   0.00000  Uiso   1.00
C64    C     0.22984   0.11039   0.36539   0.00000  Uiso   1.00
N65    N     0.24441   0.08545   0.33337   0.00000  Uiso   1.00
C66    C     0.25458   0.29467   0.19504   0.00000  Uiso   1.00
N67    N     0.29043   0.27981   0.17269   0.00000  Uiso   1.00
O68    O     0.46179   0.22775   0.25000   0.00000  Uiso   1.00
O69    O     0.53823   0.22774   0.25000   0.00000  Uiso   1.00
C70    C     0.50080   0.24656   0.24889   0.00000  Uiso   1.00
O71    O     0.44280   0.16666   0.32681   0.00000  Uiso   1.00
O72    O     0.51924   0.16665   0.32681   0.00000  Uiso   1.00
C73    C     0.47465   0.16028   0.35071   0.00000  Uiso   1.00
Zn74   Zn    0.44896   0.16667   0.25000   0.00000  Uiso   1.00
Zn75   Zn    0.55104   0.16666   0.25000   0.00000  Uiso   1.00
O76    O     0.46177   0.10559   0.24999   0.00000  Uiso   1.00
O77    O     0.53821   0.10558   0.24999   0.00000  Uiso   1.00
O78    O     0.48076   0.16668   0.17319   0.00000  Uiso   1.00
O79    O     0.55720   0.16667   0.17319   0.00000  Uiso   1.00
C80    C     0.49949   0.08675   0.25073   0.00000  Uiso   1.00
C81    C     0.52588   0.16839   0.14851   0.00000  Uiso   1.00
C82    C     0.59712   0.18526   0.00429   0.00000  Uiso   1.00
H83    H     0.61383   0.16277   0.40276   0.00000  Uiso   1.00
C84    C     0.54075   0.17127   0.09079   0.00000  Uiso   1.00
C85    C     0.41419   0.13464   0.43562   0.00000  Uiso   1.00
C86    C     0.40165   0.12879   0.49059   0.00000  Uiso   1.00
C87    C     0.43440   0.13781   0.01694   0.00000  Uiso   1.00
C88    C     0.48216   0.14754   0.48846   0.00000  Uiso   1.00
C89    C     0.49627   0.14448   0.43301   0.00000  Uiso   1.00
C90    C     0.51697   0.15934   0.01253   0.00000  Uiso   1.00
C91    C     0.56385   0.16951   0.48081   0.00000  Uiso   1.00
C92    C     0.57747   0.15973   0.42718   0.00000  Uiso   1.00
C93    C     0.54525   0.14111   0.40617   0.00000  Uiso   1.00
C94    C     0.50643   0.16146   0.06696   0.00000  Uiso   1.00
C95    C     0.58618   0.18463   0.05962   0.00000  Uiso   1.00
C96    C     0.46127   0.14586   0.40674   0.00000  Uiso   1.00
H97    H     0.47148   0.15421   0.09197   0.00000  Uiso   1.00
H98    H     0.42145   0.13550   0.05945   0.00000  Uiso   1.00
C99    C     0.54343   0.31360   0.22322   0.00000  Uiso   1.00
C100   C     0.54161   0.02293   0.22453   0.00000  Uiso   1.00
H101   H     0.57318   0.04092   0.20430   0.00000  Uiso   1.00
C102   C     0.49917   0.04255   0.25085   0.00000  Uiso   1.00
C103   C     0.45811   0.01953   0.27701   0.00000  Uiso   1.00
C104   C     0.46036   0.31044   0.27657   0.00000  Uiso   1.00
H105   H     0.42962   0.29263   0.29864   0.00000  Uiso   1.00
C106   C     0.50201   0.29076   0.24900   0.00000  Uiso   1.00
C107   C     0.64790   0.13459   0.22867   0.00000  Uiso   1.00
H108   H     0.63400   0.10912   0.21129   0.00000  Uiso   1.00
C109   C     0.36231   0.13422   0.22844   0.00000  Uiso   1.00
N110   N     0.38093   0.16668   0.25001   0.00000  Uiso   1.00
C111   C     0.35085   0.19886   0.27191   0.00000  Uiso   1.00
C112   C     0.63671   0.19862   0.27137   0.00000  Uiso   1.00
H113   H     0.61356   0.22389   0.28909   0.00000  Uiso   1.00
N114   N     0.61906   0.16665   0.25000   0.00000  Uiso   1.00
C115   C     0.62191   0.19710   0.08346   0.00000  Uiso   1.00
N116   N     0.65081   0.20667   0.10208   0.00000  Uiso   1.00
C117   C     0.41315   0.03751   0.30486   0.00000  Uiso   1.00
N118   N     0.37645   0.05086   0.32693   0.00000  Uiso   1.00
N119   N     0.39009   0.09902   0.20562   0.00000  Uiso   1.00
O120   O     0.37133   0.06203   0.21562   0.00000  Uiso   1.00
O121   O     0.42725   0.10402   0.16454   0.00000  Uiso   1.00
N122   N     0.36600   0.23304   0.29690   0.00000  Uiso   1.00
O123   O     0.38180   0.22611   0.33640   0.00000  Uiso   1.00
O124   O     0.35172   0.27017   0.29065   0.00000  Uiso   1.00
C125   C     0.64194   0.20303   0.47241   0.00000  Uiso   1.00
N126   N     0.34433   0.21771   0.44772   0.00000  Uiso   1.00
C127   C     0.37926   0.12708   0.40924   0.00000  Uiso   1.00
N128   N     0.35127   0.12108   0.38813   0.00000  Uiso   1.00
C129   C     0.35511   0.11373   0.02104   0.00000  Uiso   1.00
N130   N     0.65135   0.10137   0.04537   0.00000  Uiso   1.00
C131   C     0.56318   0.11039   0.36539   0.00000  Uiso   1.00
N132   N     0.57774   0.08545   0.33337   0.00000  Uiso   1.00
C133   C     0.58791   0.29467   0.19504   0.00000  Uiso   1.00
N134   N     0.62376   0.27981   0.17269   0.00000  Uiso   1.00
O135   O     0.79512   0.22775   0.25000   0.00000  Uiso   1.00
O136   O     0.87157   0.22774   0.25000   0.00000  Uiso   1.00
C137   C     0.83414   0.24656   0.24889   0.00000  Uiso   1.00
O138   O     0.77613   0.16666   0.32681   0.00000  Uiso   1.00
O139   O     0.85258   0.16665   0.32681   0.00000  Uiso   1.00
C140   C     0.80798   0.16028   0.35071   0.00000  Uiso   1.00
Zn141  Zn    0.78229   0.16667   0.25000   0.00000  Uiso   1.00
Zn142  Zn    0.88438   0.16666   0.25000   0.00000  Uiso   1.00
O143   O     0.79510   0.10559   0.24999   0.00000  Uiso   1.00
O144   O     0.87154   0.10558   0.24999   0.00000  Uiso   1.00
O145   O     0.81409   0.16668   0.17319   0.00000  Uiso   1.00
O146   O     0.89053   0.16667   0.17319   0.00000  Uiso   1.00
C147   C     0.83283   0.08675   0.25073   0.00000  Uiso   1.00
C148   C     0.85921   0.16839   0.14851   0.00000  Uiso   1.00
C149   C     0.93046   0.18526   0.00429   0.00000  Uiso   1.00
H150   H     0.94717   0.16277   0.40276   0.00000  Uiso   1.00
C151   C     0.87408   0.17127   0.09079   0.00000  Uiso   1.00
C152   C     0.74753   0.13464   0.43562   0.00000  Uiso   1.00
C153   C     0.73498   0.12879   0.49059   0.00000  Uiso   1.00
C154   C     0.76773   0.13781   0.01694   0.00000  Uiso   1.00
C155   C     0.81549   0.14754   0.48846   0.00000  Uiso   1.00
C156   C     0.82961   0.14448   0.43301   0.00000  Uiso   1.00
C157   C     0.85030   0.15934   0.01253   0.00000  Uiso   1.00
C158   C     0.89719   0.16951   0.48081   0.00000  Uiso   1.00
C159   C     0.91081   0.15973   0.42718   0.00000  Uiso   1.00
C160   C     0.87859   0.14111   0.40617   0.00000  Uiso   1.00
C161   C     0.83977   0.16146   0.06696   0.00000  Uiso   1.00
C162   C     0.91951   0.18463   0.05962   0.00000  Uiso   1.00
C163   C     0.79460   0.14586   0.40674   0.00000  Uiso   1.00
H164   H     0.80481   0.15421   0.09197   0.00000  Uiso   1.00
H165   H     0.75478   0.13550   0.05945   0.00000  Uiso   1.00
C166   C     0.87677   0.31360   0.22322   0.00000  Uiso   1.00
C167   C     0.87494   0.02293   0.22453   0.00000  Uiso   1.00
H168   H     0.90651   0.04092   0.20430   0.00000  Uiso   1.00
C169   C     0.83251   0.04255   0.25085   0.00000  Uiso   1.00
C170   C     0.79145   0.01953   0.27701   0.00000  Uiso   1.00
C171   C     0.79370   0.31044   0.27657   0.00000  Uiso   1.00
H172   H     0.76295   0.29263   0.29864   0.00000  Uiso   1.00
C173   C     0.83534   0.29076   0.24900   0.00000  Uiso   1.00
C174   C     0.98124   0.13459   0.22867   0.00000  Uiso   1.00
H175   H     0.96733   0.10912   0.21129   0.00000  Uiso   1.00
C176   C     0.69564   0.13422   0.22844   0.00000  Uiso   1.00
N177   N     0.71426   0.16668   0.25001   0.00000  Uiso   1.00
C178   C     0.68419   0.19886   0.27191   0.00000  Uiso   1.00
C179   C     0.97004   0.19862   0.27137   0.00000  Uiso   1.00
H180   H     0.94690   0.22389   0.28909   0.00000  Uiso   1.00
N181   N     0.95239   0.16665   0.25000   0.00000  Uiso   1.00
C182   C     0.95525   0.19710   0.08346   0.00000  Uiso   1.00
N183   N     0.98415   0.20667   0.10208   0.00000  Uiso   1.00
C184   C     0.74648   0.03751   0.30486   0.00000  Uiso   1.00
N185   N     0.70978   0.05086   0.32693   0.00000  Uiso   1.00
N186   N     0.72342   0.09902   0.20562   0.00000  Uiso   1.00
O187   O     0.70466   0.06203   0.21562   0.00000  Uiso   1.00
O188   O     0.76058   0.10402   0.16454   0.00000  Uiso   1.00
N189   N     0.69933   0.23304   0.29690   0.00000  Uiso   1.00
O190   O     0.71513   0.22611   0.33640   0.00000  Uiso   1.00
O191   O     0.68505   0.27017   0.29065   0.00000  Uiso   1.00
C192   C     0.97528   0.20303   0.47241   0.00000  Uiso   1.00
N193   N     0.67767   0.21771   0.44772   0.00000  Uiso   1.00
C194   C     0.71259   0.12708   0.40924   0.00000  Uiso   1.00
N195   N     0.68461   0.12108   0.38813   0.00000  Uiso   1.00
C196   C     0.68844   0.11373   0.02104   0.00000  Uiso   1.00
N197   N     0.98468   0.10137   0.04537   0.00000  Uiso   1.00
C198   C     0.89651   0.11039   0.36539   0.00000  Uiso   1.00
N199   N     0.91107   0.08545   0.33337   0.00000  Uiso   1.00
C200   C     0.92125   0.29467   0.19504   0.00000  Uiso   1.00
N201   N     0.95709   0.27981   0.17269   0.00000  Uiso   1.00
O202   O     0.12846   0.56108   0.25000   0.00000  Uiso   1.00
O203   O     0.20490   0.56107   0.25000   0.00000  Uiso   1.00
C204   C     0.16747   0.57990   0.24889   0.00000  Uiso   1.00
O205   O     0.10947   0.50000   0.32681   0.00000  Uiso   1.00
O206   O     0.18591   0.49999   0.32681   0.00000  Uiso   1.00
C207   C     0.14132   0.49362   0.35071   0.00000  Uiso   1.00
Zn208  Zn    0.11562   0.50001   0.25000   0.00000  Uiso   1.00
Zn209  Zn    0.21771   0.49999   0.25000   0.00000  Uiso   1.00
O210   O     0.12843   0.43893   0.24999   0.00000  Uiso   1.00
O211   O     0.20488   0.43892   0.24999   0.00000  Uiso   1.00
O212   O     0.14742   0.50001   0.17319   0.00000  Uiso   1.00
O213   O     0.22387   0.50000   0.17319   0.00000  Uiso   1.00
C214   C     0.16616   0.42009   0.25073   0.00000  Uiso   1.00
C215   C     0.19255   0.50172   0.14851   0.00000  Uiso   1.00
C216   C     0.26379   0.51859   0.00429   0.00000  Uiso   1.00
H217   H     0.28050   0.49611   0.40276   0.00000  Uiso   1.00
C218   C     0.20741   0.50460   0.09079   0.00000  Uiso   1.00
C219   C     0.08086   0.46797   0.43562   0.00000  Uiso   1.00
C220   C     0.06832   0.46212   0.49059   0.00000  Uiso   1.00
C221   C     0.10106   0.47114   0.01694   0.00000  Uiso   1.00
C222   C     0.14882   0.48087   0.48846   0.00000  Uiso   1.00
C223   C     0.16294   0.47782   0.43301   0.00000  Uiso   1.00
C224   C     0.18363   0.49267   0.01253   0.00000  Uiso   1.00
C225   C     0.23052   0.50285   0.48081   0.00000  Uiso   1.00
C226   C     0.24414   0.49306   0.42718   0.00000  Uiso   1.00
C227   C     0.21192   0.47445   0.40617   0.00000  Uiso   1.00
C228   C     0.17310   0.49479   0.06696   0.00000  Uiso   1.00
C229   C     0.25284   0.51797   0.05962   0.00000  Uiso   1.00
C230   C     0.12794   0.47919   0.40674   0.00000  Uiso   1.00
H231   H     0.13814   0.48754   0.09197   0.00000  Uiso   1.00
H232   H     0.08812   0.46883   0.05945   0.00000  Uiso   1.00
C233   C     0.21010   0.64693   0.22322   0.00000  Uiso   1.00
C234   C     0.20828   0.35626   0.22453   0.00000  Uiso   1.00
H235   H     0.23984   0.37425   0.20430   0.00000  Uiso   1.00
C236   C     0.16584   0.37589   0.25085   0.00000  Uiso   1.00
C237   C     0.12478   0.35287   0.27701   0.00000  Uiso   1.00
C238   C     0.12703   0.64377   0.27657   0.00000  Uiso   1.00
H239   H     0.09628   0.62596   0.29864   0.00000  Uiso   1.00
C240   C     0.16868   0.62410   0.24900   0.00000  Uiso   1.00
C241   C     0.31457   0.46792   0.22867   0.00000  Uiso   1.00
H242   H     0.30067   0.44245   0.21129   0.00000  Uiso   1.00
C243   C     0.02898   0.46755   0.22844   0.00000  Uiso   1.00
N244   N     0.04760   0.50001   0.25001   0.00000  Uiso   1.00
C245   C     0.01752   0.53219   0.27191   0.00000  Uiso   1.00
C246   C     0.30338   0.53196   0.27137   0.00000  Uiso   1.00
H247   H     0.28023   0.55722   0.28909   0.00000  Uiso   1.00
N248   N     0.28573   0.49998   0.25000   0.00000  Uiso   1.00
C249   C     0.28858   0.53043   0.08346   0.00000  Uiso   1.00
N250   N     0.31748   0.54000   0.10208   0.00000  Uiso   1.00
C251   C     0.07982   0.37084   0.30486   0.00000  Uiso   1.00
N252   N     0.04312   0.38420   0.32693   0.00000  Uiso   1.00
N253   N     0.05675   0.43236   0.20562   0.00000  Uiso   1.00
O254   O     0.03799   0.39537   0.21562   0.00000  Uiso   1.00
O255   O     0.09391   0.43735   0.16454   0.00000  Uiso   1.00
N256   N     0.03266   0.56637   0.29690   0.00000  Uiso   1.00
O257   O     0.04847   0.55945   0.33640   0.00000  Uiso   1.00
O258   O     0.01838   0.60350   0.29065   0.00000  Uiso   1.00
C259   C     0.30861   0.53636   0.47241   0.00000  Uiso   1.00
N260   N     0.01100   0.55105   0.44772   0.00000  Uiso   1.00
C261   C     0.04592   0.46041   0.40924   0.00000  Uiso   1.00
N262   N     0.01794   0.45442   0.38813   0.00000  Uiso   1.00
C263   C     0.02177   0.44707   0.02104   0.00000  Uiso   1.00
N264   N     0.31801   0.43471   0.04537   0.00000  Uiso   1.00
C265   C     0.22984   0.44372   0.36539   0.00000  Uiso   1.00
N266   N     0.24441   0.41878   0.33337   0.00000  Uiso   1.00
C267   C     0.25458   0.62800   0.19504   0.00000  Uiso   1.00
N268   N     0.29043   0.61315   0.17269   0.00000  Uiso   1.00
O269   O     0.46179   0.56108   0.25000   0.00000  Uiso   1.00
O270   O     0.53823   0.56107   0.25000   0.00000  Uiso   1.00
C271   C     0.50080   0.57990   0.24889   0.00000  Uiso   1.00
O272   O     0.44280   0.50000   0.32681   0.00000  Uiso   1.00
O273   O     0.51924   0.49999   0.32681   0.00000  Uiso   1.00
C274   C     0.47465   0.49362   0.35071   0.00000  Uiso   1.00
Zn275  Zn    0.44896   0.50001   0.25000   0.00000  Uiso   1.00
Zn276  Zn    0.55104   0.49999   0.25000   0.00000  Uiso   1.00
O277   O     0.46177   0.43893   0.24999   0.00000  Uiso   1.00
O278   O     0.53821   0.43892   0.24999   0.00000  Uiso   1.00
O279   O     0.48076   0.50001   0.17319   0.00000  Uiso   1.00
O280   O     0.55720   0.50000   0.17319   0.00000  Uiso   1.00
C281   C     0.49949   0.42009   0.25073   0.00000  Uiso   1.00
C282   C     0.52588   0.50172   0.14851   0.00000  Uiso   1.00
C283   C     0.59712   0.51859   0.00429   0.00000  Uiso   1.00
H284   H     0.61383   0.49611   0.40276   0.00000  Uiso   1.00
C285   C     0.54075   0.50460   0.09079   0.00000  Uiso   1.00
C286   C     0.41419   0.46797   0.43562   0.00000  Uiso   1.00
C287   C     0.40165   0.46212   0.49059   0.00000  Uiso   1.00
C288   C     0.43440   0.47114   0.01694   0.00000  Uiso   1.00
C289   C     0.48216   0.48087   0.48846   0.00000  Uiso   1.00
C290   C     0.49627   0.47782   0.43301   0.00000  Uiso   1.00
C291   C     0.51697   0.49267   0.01253   0.00000  Uiso   1.00
C292   C     0.56385   0.50285   0.48081   0.00000  Uiso   1.00
C293   C     0.57747   0.49306   0.42718   0.00000  Uiso   1.00
C294   C     0.54525   0.47445   0.40617   0.00000  Uiso   1.00
C295   C     0.50643   0.49479   0.06696   0.00000  Uiso   1.00
C296   C     0.58618   0.51797   0.05962   0.00000  Uiso   1.00
C297   C     0.46127   0.47919   0.40674   0.00000  Uiso   1.00
H298   H     0.47148   0.48754   0.09197   0.00000  Uiso   1.00
H299   H     0.42145   0.46883   0.05945   0.00000  Uiso   1.00
C300   C     0.54343   0.64693   0.22322   0.00000  Uiso   1.00
C301   C     0.54161   0.35626   0.22453   0.00000  Uiso   1.00
H302   H     0.57318   0.37425   0.20430   0.00000  Uiso   1.00
C303   C     0.49917   0.37589   0.25085   0.00000  Uiso   1.00
C304   C     0.45811   0.35287   0.27701   0.00000  Uiso   1.00
C305   C     0.46036   0.64377   0.27657   0.00000  Uiso   1.00
H306   H     0.42962   0.62596   0.29864   0.00000  Uiso   1.00
C307   C     0.50201   0.62410   0.24900   0.00000  Uiso   1.00
C308   C     0.64790   0.46792   0.22867   0.00000  Uiso   1.00
H309   H     0.63400   0.44245   0.21129   0.00000  Uiso   1.00
C310   C     0.36231   0.46755   0.22844   0.00000  Uiso   1.00
N311   N     0.38093   0.50001   0.25001   0.00000  Uiso   1.00
C312   C     0.35085   0.53219   0.27191   0.00000  Uiso   1.00
C313   C     0.63671   0.53196   0.27137   0.00000  Uiso   1.00
H314   H     0.61356   0.55722   0.28909   0.00000  Uiso   1.00
N315   N     0.61906   0.49998   0.25000   0.00000  Uiso   1.00
C316   C     0.62191   0.53043   0.08346   0.00000  Uiso   1.00
N317   N     0.65081   0.54000   0.10208   0.00000  Uiso   1.00
C318   C     0.41315   0.37084   0.30486   0.00000  Uiso   1.00
N319   N     0.37645   0.38420   0.32693   0.00000  Uiso   1.00
N320   N     0.39009   0.43236   0.20562   0.00000  Uiso   1.00
O321   O     0.37133   0.39537   0.21562   0.00000  Uiso   1.00
O322   O     0.42725   0.43735   0.16454   0.00000  Uiso   1.00
N323   N     0.36600   0.56637   0.29690   0.00000  Uiso   1.00
O324   O     0.38180   0.55945   0.33640   0.00000  Uiso   1.00
O325   O     0.35172   0.60350   0.29065   0.00000  Uiso   1.00
C326   C     0.64194   0.53636   0.47241   0.00000  Uiso   1.00
N327   N     0.34433   0.55105   0.44772   0.00000  Uiso   1.00
C328   C     0.37926   0.46041   0.40924   0.00000  Uiso   1.00
N329   N     0.35127   0.45442   0.38813   0.00000  Uiso   1.00
C330   C     0.35511   0.44707   0.02104   0.00000  Uiso   1.00
N331   N     0.65135   0.43471   0.04537   0.00000  Uiso   1.00
C332   C     0.56318   0.44372   0.36539   0.00000  Uiso   1.00
N333   N     0.57774   0.41878   0.33337   0.00000  Uiso   1.00
C334   C     0.58791   0.62800   0.19504   0.00000  Uiso   1.00
N335   N     0.62376   0.61315   0.17269   0.00000  Uiso   1.00
O336   O     0.79512   0.56108   0.25000   0.00000  Uiso   1.00
O337   O     0.87157   0.56107   0.25000   0.00000  Uiso   1.00
C338   C     0.83414   0.57990   0.24889   0.00000  Uiso   1.00
O339   O     0.77613   0.50000   0.32681   0.00000  Uiso   1.00
O340   O     0.85258   0.49999   0.32681   0.00000  Uiso   1.00
C341   C     0.80798   0.49362   0.35071   0.00000  Uiso   1.00
Zn342  Zn    0.78229   0.50001   0.25000   0.00000  Uiso   1.00
Zn343  Zn    0.88438   0.49999   0.25000   0.00000  Uiso   1.00
O344   O     0.79510   0.43893   0.24999   0.00000  Uiso   1.00
O345   O     0.87154   0.43892   0.24999   0.00000  Uiso   1.00
O346   O     0.81409   0.50001   0.17319   0.00000  Uiso   1.00
O347   O     0.89053   0.50000   0.17319   0.00000  Uiso   1.00
C348   C     0.83283   0.42009   0.25073   0.00000  Uiso   1.00
C349   C     0.85921   0.50172   0.14851   0.00000  Uiso   1.00
C350   C     0.93046   0.51859   0.00429   0.00000  Uiso   1.00
H351   H     0.94717   0.49611   0.40276   0.00000  Uiso   1.00
C352   C     0.87408   0.50460   0.09079   0.00000  Uiso   1.00
C353   C     0.74753   0.46797   0.43562   0.00000  Uiso   1.00
C354   C     0.73498   0.46212   0.49059   0.00000  Uiso   1.00
C355   C     0.76773   0.47114   0.01694   0.00000  Uiso   1.00
C356   C     0.81549   0.48087   0.48846   0.00000  Uiso   1.00
C357   C     0.82961   0.47782   0.43301   0.00000  Uiso   1.00
C358   C     0.85030   0.49267   0.01253   0.00000  Uiso   1.00
C359   C     0.89719   0.50285   0.48081   0.00000  Uiso   1.00
C360   C     0.91081   0.49306   0.42718   0.00000  Uiso   1.00
C361   C     0.87859   0.47445   0.40617   0.00000  Uiso   1.00
C362   C     0.83977   0.49479   0.06696   0.00000  Uiso   1.00
C363   C     0.91951   0.51797   0.05962   0.00000  Uiso   1.00
C364   C     0.79460   0.47919   0.40674   0.00000  Uiso   1.00
H365   H     0.80481   0.48754   0.09197   0.00000  Uiso   1.00
H366   H     0.75478   0.46883   0.05945   0.00000  Uiso   1.00
C367   C     0.87677   0.64693   0.22322   0.00000  Uiso   1.00
C368   C     0.87494   0.35626   0.22453   0.00000  Uiso   1.00
H369   H     0.90651   0.37425   0.20430   0.00000  Uiso   1.00
C370   C     0.83251   0.37589   0.25085   0.00000  Uiso   1.00
C371   C     0.79145   0.35287   0.27701   0.00000  Uiso   1.00
C372   C     0.79370   0.64377   0.27657   0.00000  Uiso   1.00
H373   H     0.76295   0.62596   0.29864   0.00000  Uiso   1.00
C374   C     0.83534   0.62410   0.24900   0.00000  Uiso   1.00
C375   C     0.98124   0.46792   0.22867   0.00000  Uiso   1.00
H376   H     0.96733   0.44245   0.21129   0.00000  Uiso   1.00
C377   C     0.69564   0.46755   0.22844   0.00000  Uiso   1.00
N378   N     0.71426   0.50001   0.25001   0.00000  Uiso   1.00
C379   C     0.68419   0.53219   0.27191   0.00000  Uiso   1.00
C380   C     0.97004   0.53196   0.27137   0.00000  Uiso   1.00
H381   H     0.94690   0.55722   0.28909   0.00000  Uiso   1.00
N382   N     0.95239   0.49998   0.25000   0.00000  Uiso   1.00
C383   C     0.95525   0.53043   0.08346   0.00000  Uiso   1.00
N384   N     0.98415   0.54000   0.10208   0.00000  Uiso   1.00
C385   C     0.74648   0.37084   0.30486   0.00000  Uiso   1.00
N386   N     0.70978   0.38420   0.32693   0.00000  Uiso   1.00
N387   N     0.72342   0.43236   0.20562   0.00000  Uiso   1.00
O388   O     0.70466   0.39537   0.21562   0.00000  Uiso   1.00
O389   O     0.76058   0.43735   0.16454   0.00000  Uiso   1.00
N390   N     0.69933   0.56637   0.29690   0.00000  Uiso   1.00
O391   O     0.71513   0.55945   0.33640   0.00000  Uiso   1.00
O392   O     0.68505   0.60350   0.29065   0.00000  Uiso   1.00
C393   C     0.97528   0.53636   0.47241   0.00000  Uiso   1.00
N394   N     0.67767   0.55105   0.44772   0.00000  Uiso   1.00
C395   C     0.71259   0.46041   0.40924   0.00000  Uiso   1.00
N396   N     0.68461   0.45442   0.38813   0.00000  Uiso   1.00
C397   C     0.68844   0.44707   0.02104   0.00000  Uiso   1.00
N398   N     0.98468   0.43471   0.04537   0.00000  Uiso   1.00
C399   C     0.89651   0.44372   0.36539   0.00000  Uiso   1.00
N400   N     0.91107   0.41878   0.33337   0.00000  Uiso   1.00
C401   C     0.92125   0.62800   0.19504   0.00000  Uiso   1.00
N402   N     0.95709   0.61315   0.17269   0.00000  Uiso   1.00
O403   O     0.12846   0.89442   0.25000   0.00000  Uiso   1.00
O404   O     0.20490   0.89441   0.25000   0.00000  Uiso   1.00
C405   C     0.16747   0.91323   0.24889   0.00000  Uiso   1.00
O406   O     0.10947   0.83333   0.32681   0.00000  Uiso   1.00
O407   O     0.18591   0.83332   0.32681   0.00000  Uiso   1.00
C408   C     0.14132   0.82695   0.35071   0.00000  Uiso   1.00
Zn409  Zn    0.11562   0.83334   0.25000   0.00000  Uiso   1.00
Zn410  Zn    0.21771   0.83333   0.25000   0.00000  Uiso   1.00
O411   O     0.12843   0.77226   0.24999   0.00000  Uiso   1.00
O412   O     0.20488   0.77225   0.24999   0.00000  Uiso   1.00
O413   O     0.14742   0.83335   0.17319   0.00000  Uiso   1.00
O414   O     0.22387   0.83334   0.17319   0.00000  Uiso   1.00
C415   C     0.16616   0.75342   0.25073   0.00000  Uiso   1.00
C416   C     0.19255   0.83506   0.14851   0.00000  Uiso   1.00
C417   C     0.26379   0.85193   0.00429   0.00000  Uiso   1.00
H418   H     0.28050   0.82944   0.40276   0.00000  Uiso   1.00
C419   C     0.20741   0.83793   0.09079   0.00000  Uiso   1.00
C420   C     0.08086   0.80131   0.43562   0.00000  Uiso   1.00
C421   C     0.06832   0.79546   0.49059   0.00000  Uiso   1.00
C422   C     0.10106   0.80448   0.01694   0.00000  Uiso   1.00
C423   C     0.14882   0.81421   0.48846   0.00000  Uiso   1.00
C424   C     0.16294   0.81115   0.43301   0.00000  Uiso   1.00
C425   C     0.18363   0.82601   0.01253   0.00000  Uiso   1.00
C426   C     0.23052   0.83618   0.48081   0.00000  Uiso   1.00
C427   C     0.24414   0.82639   0.42718   0.00000  Uiso   1.00
C428   C     0.21192   0.80778   0.40617   0.00000  Uiso   1.00
C429   C     0.17310   0.82813   0.06696   0.00000  Uiso   1.00
C430   C     0.25284   0.85130   0.05962   0.00000  Uiso   1.00
C431   C     0.12794   0.81252   0.40674   0.00000  Uiso   1.00
H432   H     0.13814   0.82088   0.09197   0.00000  Uiso   1.00
H433   H     0.08812   0.80216   0.05945   0.00000  Uiso   1.00
C434   C     0.21010   0.98026   0.22322   0.00000  Uiso   1.00
C435   C     0.20828   0.68960   0.22453   0.00000  Uiso   1.00
H436   H     0.23984   0.70759   0.20430   0.00000  Uiso   1.00
C437   C     0.16584   0.70922   0.25085   0.00000  Uiso   1.00
C438   C     0.12478   0.68620   0.27701   0.00000  Uiso   1.00
C439   C     0.12703   0.97711   0.27657   0.00000  Uiso   1.00
H440   H     0.09628   0.95930   0.29864   0.00000  Uiso   1.00
C441   C     0.16868   0.95743   0.24900   0.00000  Uiso   1.00
C442   C     0.31457   0.80126   0.22867   0.00000  Uiso   1.00
H443   H     0.30067   0.77579   0.21129   0.00000  Uiso   1.00
C444   C     0.02898   0.80088   0.22844   0.00000  Uiso   1.00
N445   N     0.04760   0.83334   0.25001   0.00000  Uiso   1.00
C446   C     0.01752   0.86552   0.27191   0.00000  Uiso   1.00
C447   C     0.30338   0.86529   0.27137   0.00000  Uiso   1.00
H448   H     0.28023   0.89055   0.28909   0.00000  Uiso   1.00
N449   N     0.28573   0.83331   0.25000   0.00000  Uiso   1.00
C450   C     0.28858   0.86377   0.08346   0.00000  Uiso   1.00
N451   N     0.31748   0.87333   0.10208   0.00000  Uiso   1.00
C452   C     0.07982   0.70417   0.30486   0.00000  Uiso   1.00
N453   N     0.04312   0.71753   0.32693   0.00000  Uiso   1.00
N454   N     0.05675   0.76569   0.20562   0.00000  Uiso   1.00
O455   O     0.03799   0.72870   0.21562   0.00000  Uiso   1.00
O456   O     0.09391   0.77068   0.16454   0.00000  Uiso   1.00
N457   N     0.03266   0.89970   0.29690   0.00000  Uiso   1.00
O458   O     0.04847   0.89278   0.33640   0.00000  Uiso   1.00
O459   O     0.01838   0.93683   0.29065   0.00000  Uiso   1.00
C460   C     0.30861   0.86970   0.47241   0.00000  Uiso   1.00
N461   N     0.01100   0.88438   0.44772   0.00000  Uiso   1.00
C462   C     0.04592   0.79374   0.40924   0.00000  Uiso   1.00
N463   N     0.01794   0.78775   0.38813   0.00000  Uiso   1.00
C464   C     0.02177   0.78040   0.02104   0.00000  Uiso   1.00
N465   N     0.31801   0.76804   0.04537   0.00000  Uiso   1.00
C466   C     0.22984   0.77705   0.36539   0.00000  Uiso   1.00
N467   N     0.24441   0.75211   0.33337   0.00000  Uiso   1.00
C468   C     0.25458   0.96134   0.19504   0.00000  Uiso   1.00
N469   N     0.29043   0.94648   0.17269   0.00000  Uiso   1.00
O470   O     0.46179   0.89442   0.25000   0.00000  Uiso   1.00
O471   O     0.53823   0.89441   0.25000   0.00000  Uiso   1.00
C472   C     0.50080   0.91323   0.24889   0.00000  Uiso   1.00
O473   O     0.44280   0.83333   0.32681   0.00000  Uiso   1.00
O474   O     0.51924   0.83332   0.32681   0.00000  Uiso   1.00
C475   C     0.47465   0.82695   0.35071   0.00000  Uiso   1.00
Zn476  Zn    0.44896   0.83334   0.25000   0.00000  Uiso   1.00
Zn477  Zn    0.55104   0.83333   0.25000   0.00000  Uiso   1.00
O478   O     0.46177   0.77226   0.24999   0.00000  Uiso   1.00
O479   O     0.53821   0.77225   0.24999   0.00000  Uiso   1.00
O480   O     0.48076   0.83335   0.17319   0.00000  Uiso   1.00
O481   O     0.55720   0.83334   0.17319   0.00000  Uiso   1.00
C482   C     0.49949   0.75342   0.25073   0.00000  Uiso   1.00
C483   C     0.52588   0.83506   0.14851   0.00000  Uiso   1.00
C484   C     0.59712   0.85193   0.00429   0.00000  Uiso   1.00
H485   H     0.61383   0.82944   0.40276   0.00000  Uiso   1.00
C486   C     0.54075   0.83793   0.09079   0.00000  Uiso   1.00
C487   C     0.41419   0.80131   0.43562   0.00000  Uiso   1.00
C488   C     0.40165   0.79546   0.49059   0.00000  Uiso   1.00
C489   C     0.43440   0.80448   0.01694   0.00000  Uiso   1.00
C490   C     0.48216   0.81421   0.48846   0.00000  Uiso   1.00
C491   C     0.49627   0.81115   0.43301   0.00000  Uiso   1.00
C492   C     0.51697   0.82601   0.01253   0.00000  Uiso   1.00
C493   C     0.56385   0.83618   0.48081   0.00000  Uiso   1.00
C494   C     0.57747   0.82639   0.42718   0.00000  Uiso   1.00
C495   C     0.54525   0.80778   0.40617   0.00000  Uiso   1.00
C496   C     0.50643   0.82813   0.06696   0.00000  Uiso   1.00
C497   C     0.58618   0.85130   0.05962   0.00000  Uiso   1.00
C498   C     0.46127   0.81252   0.40674   0.00000  Uiso   1.00
H499   H     0.47148   0.82088   0.09197   0.00000  Uiso   1.00
H500   H     0.42145   0.80216   0.05945   0.00000  Uiso   1.00
C501   C     0.54343   0.98026   0.22322   0.00000  Uiso   1.00
C502   C     0.54161   0.68960   0.22453   0.00000  Uiso   1.00
H503   H     0.57318   0.70759   0.20430   0.00000  Uiso   1.00
C504   C     0.49917   0.70922   0.25085   0.00000  Uiso   1.00
C505   C     0.45811   0.68620   0.27701   0.00000  Uiso   1.00
C506   C     0.46036   0.97711   0.27657   0.00000  Uiso   1.00
H507   H     0.42962   0.95930   0.29864   0.00000  Uiso   1.00
C508   C     0.50201   0.95743   0.24900   0.00000  Uiso   1.00
C509   C     0.64790   0.80126   0.22867   0.00000  Uiso   1.00
H510   H     0.63400   0.77579   0.21129   0.00000  Uiso   1.00
C511   C     0.36231   0.80088   0.22844   0.00000  Uiso   1.00
N512   N     0.38093   0.83334   0.25001   0.00000  Uiso   1.00
C513   C     0.35085   0.86552   0.27191   0.00000  Uiso   1.00
C514   C     0.63671   0.86529   0.27137   0.00000  Uiso   1.00
H515   H     0.61356   0.89055   0.28909   0.00000  Uiso   1.00
N516   N     0.61906   0.83331   0.25000   0.00000  Uiso   1.00
C517   C     0.62191   0.86377   0.08346   0.00000  Uiso   1.00
N518   N     0.65081   0.87333   0.10208   0.00000  Uiso   1.00
C519   C     0.41315   0.70417   0.30486   0.00000  Uiso   1.00
N520   N     0.37645   0.71753   0.32693   0.00000  Uiso   1.00
N521   N     0.39009   0.76569   0.20562   0.00000  Uiso   1.00
O522   O     0.37133   0.72870   0.21562   0.00000  Uiso   1.00
O523   O     0.42725   0.77068   0.16454   0.00000  Uiso   1.00
N524   N     0.36600   0.89970   0.29690   0.00000  Uiso   1.00
O525   O     0.38180   0.89278   0.33640   0.00000  Uiso   1.00
O526   O     0.35172   0.93683   0.29065   0.00000  Uiso   1.00
C527   C     0.64194   0.86970   0.47241   0.00000  Uiso   1.00
N528   N     0.34433   0.88438   0.44772   0.00000  Uiso   1.00
C529   C     0.37926   0.79374   0.40924   0.00000  Uiso   1.00
N530   N     0.35127   0.78775   0.38813   0.00000  Uiso   1.00
C531   C     0.35511   0.78040   0.02104   0.00000  Uiso   1.00
N532   N     0.65135   0.76804   0.04537   0.00000  Uiso   1.00
C533   C     0.56318   0.77705   0.36539   0.00000  Uiso   1.00
N534   N     0.57774   0.75211   0.33337   0.00000  Uiso   1.00
C535   C     0.58791   0.96134   0.19504   0.00000  Uiso   1.00
N536   N     0.62376   0.94648   0.17269   0.00000  Uiso   1.00
O537   O     0.79512   0.89442   0.25000   0.00000  Uiso   1.00
O538   O     0.87157   0.89441   0.25000   0.00000  Uiso   1.00
C539   C     0.83414   0.91323   0.24889   0.00000  Uiso   1.00
O540   O     0.77613   0.83333   0.32681   0.00000  Uiso   1.00
O541   O     0.85258   0.83332   0.32681   0.00000  Uiso   1.00
C542   C     0.80798   0.82695   0.35071   0.00000  Uiso   1.00
Zn543  Zn    0.78229   0.83334   0.25000   0.00000  Uiso   1.00
Zn544  Zn    0.88438   0.83333   0.25000   0.00000  Uiso   1.00
O545   O     0.79510   0.77226   0.24999   0.00000  Uiso   1.00
O546   O     0.87154   0.77225   0.24999   0.00000  Uiso   1.00
O547   O     0.81409   0.83335   0.17319   0.00000  Uiso   1.00
O548   O     0.89053   0.83334   0.17319   0.00000  Uiso   1.00
C549   C     0.83283   0.75342   0.25073   0.00000  Uiso   1.00
C550   C     0.85921   0.83506   0.14851   0.00000  Uiso   1.00
C551   C     0.93046   0.85193   0.00429   0.00000  Uiso   1.00
H552   H     0.94717   0.82944   0.40276   0.00000  Uiso   1.00
C553   C     0.87408   0.83793   0.09079   0.00000  Uiso   1.00
C554   C     0.74753   0.80131   0.43562   0.00000  Uiso   1.00
C555   C     0.73498   0.79546   0.49059   0.00000  Uiso   1.00
C556   C     0.76773   0.80448   0.01694   0.00000  Uiso   1.00
C557   C     0.81549   0.81421   0.48846   0.00000  Uiso   1.00
C558   C     0.82961   0.81115   0.43301   0.00000  Uiso   1.00
C559   C     0.85030   0.82601   0.01253   0.00000  Uiso   1.00
C560   C     0.89719   0.83618   0.48081   0.00000  Uiso   1.00
C561   C     0.91081   0.82639   0.42718   0.00000  Uiso   1.00
C562   C     0.87859   0.80778   0.40617   0.00000  Uiso   1.00
C563   C     0.83977   0.82813   0.06696   0.00000  Uiso   1.00
C564   C     0.91951   0.85130   0.05962   0.00000  Uiso   1.00
C565   C     0.79460   0.81252   0.40674   0.00000  Uiso   1.00
H566   H     0.80481   0.82088   0.09197   0.00000  Uiso   1.00
H567   H     0.75478   0.80216   0.05945   0.00000  Uiso   1.00
C568   C     0.87677   0.98026   0.22322   0.00000  Uiso   1.00
C569   C     0.87494   0.68960   0.22453   0.00000  Uiso   1.00
H570   H     0.90651   0.70759   0.20430   0.00000  Uiso   1.00
C571   C     0.83251   0.70922   0.25085   0.00000  Uiso   1.00
C572   C     0.79145   0.68620   0.27701   0.00000  Uiso   1.00
C573   C     0.79370   0.97711   0.27657   0.00000  Uiso   1.00
H574   H     0.76295   0.95930   0.29864   0.00000  Uiso   1.00
C575   C     0.83534   0.95743   0.24900   0.00000  Uiso   1.00
C576   C     0.98124   0.80126   0.22867   0.00000  Uiso   1.00
H577   H     0.96733   0.77579   0.21129   0.00000  Uiso   1.00
C578   C     0.69564   0.80088   0.22844   0.00000  Uiso   1.00
N579   N     0.71426   0.83334   0.25001   0.00000  Uiso   1.00
C580   C     0.68419   0.86552   0.27191   0.00000  Uiso   1.00
C581   C     0.97004   0.86529   0.27137   0.00000  Uiso   1.00
H582   H     0.94690   0.89055   0.28909   0.00000  Uiso   1.00
N583   N     0.95239   0.83331   0.25000   0.00000  Uiso   1.00
C584   C     0.95525   0.86377   0.08346   0.00000  Uiso   1.00
N585   N     0.98415   0.87333   0.10208   0.00000  Uiso   1.00
C586   C     0.74648   0.70417   0.30486   0.00000  Uiso   1.00
N587   N     0.70978   0.71753   0.32693   0.00000  Uiso   1.00
N588   N     0.72342   0.76569   0.20562   0.00000  Uiso   1.00
O589   O     0.70466   0.72870   0.21562   0.00000  Uiso   1.00
O590   O     0.76058   0.77068   0.16454   0.00000  Uiso   1.00
N591   N     0.69933   0.89970   0.29690   0.00000  Uiso   1.00
O592   O     0.71513   0.89278   0.33640   0.00000  Uiso   1.00
O593   O     0.68505   0.93683   0.29065   0.00000  Uiso   1.00
C594   C     0.97528   0.86970   0.47241   0.00000  Uiso   1.00
N595   N     0.67767   0.88438   0.44772   0.00000  Uiso   1.00
C596   C     0.71259   0.79374   0.40924   0.00000  Uiso   1.00
N597   N     0.68461   0.78775   0.38813   0.00000  Uiso   1.00
C598   C     0.68844   0.78040   0.02104   0.00000  Uiso   1.00
N599   N     0.98468   0.76804   0.04537   0.00000  Uiso   1.00
C600   C     0.89651   0.77705   0.36539   0.00000  Uiso   1.00
N601   N     0.91107   0.75211   0.33337   0.00000  Uiso   1.00
C602   C     0.92125   0.96134   0.19504   0.00000  Uiso   1.00
N603   N     0.95709   0.94648   0.17269   0.00000  Uiso   1.00
O604   O     0.12846   0.22775   0.75000   0.00000  Uiso   1.00
O605   O     0.20490   0.22774   0.75000   0.00000  Uiso   1.00
C606   C     0.16747   0.24656   0.74889   0.00000  Uiso   1.00
O607   O     0.10947   0.16666   0.82681   0.00000  Uiso   1.00
O608   O     0.18591   0.16665   0.82681   0.00000  Uiso   1.00
C609   C     0.14132   0.16028   0.85071   0.00000  Uiso   1.00
Zn610  Zn    0.11562   0.16667   0.75000   0.00000  Uiso   1.00
Zn611  Zn    0.21771   0.16666   0.75000   0.00000  Uiso   1.00
O612   O     0.12843   0.10559   0.74999   0.00000  Uiso   1.00
O613   O     0.20488   0.10558   0.74999   0.00000  Uiso   1.00
O614   O     0.14742   0.16668   0.67319   0.00000  Uiso   1.00
O615   O     0.22387   0.16667   0.67319   0.00000  Uiso   1.00
C616   C     0.16616   0.08675   0.75073   0.00000  Uiso   1.00
C617   C     0.19255   0.16839   0.64851   0.00000  Uiso   1.00
C618   C     0.26379   0.18526   0.50429   0.00000  Uiso   1.00
H619   H     0.28050   0.16277   0.90276   0.00000  Uiso   1.00
C620   C     0.20741   0.17127   0.59079   0.00000  Uiso   1.00
C621   C     0.08086   0.13464   0.93562   0.00000  Uiso   1.00
C622   C     0.06832   0.12879   0.99059   0.00000  Uiso   1.00
C623   C     0.10106   0.13781   0.51694   0.00000  Uiso   1.00
C624   C     0.14882   0.14754   0.98846   0.00000  Uiso   1.00
C625   C     0.16294   0.14448   0.93301   0.00000  Uiso   1.00
C626   C     0.18363   0.15934   0.51253   0.00000  Uiso   1.00
C627   C     0.23052   0.16951   0.98081   0.00000  Uiso   1.00
C628   C     0.24414   0.15973   0.92718   0.00000  Uiso   1.00
C629   C     0.21192   0.14111   0.90617   0.00000  Uiso   1.00
C630   C     0.17310   0.16146   0.56696   0.00000  Uiso   1.00
C631   C     0.25284   0.18463   0.55962   0.00000  Uiso   1.00
C632   C     0.12794   0.14586   0.90674   0.00000  Uiso   1.00
H633   H     0.13814   0.15421   0.59197   0.00000  Uiso   1.00
H634   H     0.08812   0.13550   0.55945   0.00000  Uiso   1.00
C635   C     0.21010   0.31360   0.72322   0.00000  Uiso   1.00
C636   C     0.20828   0.02293   0.72453   0.00000  Uiso   1.00
H637   H     0.23984   0.04092   0.70430   0.00000  Uiso   1.00
C638   C     0.16584   0.04255   0.75085   0.00000  Uiso   1.00
C639   C     0.12478   0.01953   0.77701   0.00000  Uiso   1.00
C640   C     0.12703   0.31044   0.77657   0.00000  Uiso   1.00
H641   H     0.09628   0.29263   0.79864   0.00000  Uiso   1.00
C642   C     0.16868   0.29076   0.74900   0.00000  Uiso   1.00
C643   C     0.31457   0.13459   0.72867   0.00000  Uiso   1.00
H644   H     0.30067   0.10912   0.71129   0.00000  Uiso   1.00
C645   C     0.02898   0.13422   0.72844   0.00000  Uiso   1.00
N646   N     0.04760   0.16668   0.75001   0.00000  Uiso   1.00
C647   C     0.01752   0.19886   0.77191   0.00000  Uiso   1.00
C648   C     0.30338   0.19862   0.77137   0.00000  Uiso   1.00
H649   H     0.28023   0.22389   0.78909   0.00000  Uiso   1.00
N650   N     0.28573   0.16665   0.75000   0.00000  Uiso   1.00
C651   C     0.28858   0.19710   0.58346   0.00000  Uiso   1.00
N652   N     0.31748   0.20667   0.60208   0.00000  Uiso   1.00
C653   C     0.07982   0.03751   0.80486   0.00000  Uiso   1.00
N654   N     0.04312   0.05086   0.82693   0.00000  Uiso   1.00
N655   N     0.05675   0.09902   0.70562   0.00000  Uiso   1.00
O656   O     0.03799   0.06203   0.71562   0.00000  Uiso   1.00
O657   O     0.09391   0.10402   0.66454   0.00000  Uiso   1.00
N658   N     0.03266   0.23304   0.79690   0.00000  Uiso   1.00
O659   O     0.04847   0.22611   0.83640   0.00000  Uiso   1.00
O660   O     0.01838   0.27017   0.79065   0.00000  Uiso   1.00
C661   C     0.30861   0.20303   0.97241   0.00000  Uiso   1.00
N662   N     0.01100   0.21771   0.94772   0.00000  Uiso   1.00
C663   C     0.04592   0.12708   0.90924   0.00000  Uiso   1.00
N664   N     0.01794   0.12108   0.88813   0.00000  Uiso   1.00
C665   C     0.02177   0.11373   0.52104   0.00000  Uiso   1.00
N666   N     0.31801   0.10137   0.54537   0.00000  Uiso   1.00
C667   C     0.22984   0.11039   0.86539   0.00000  Uiso   1.00
N668   N     0.24441   0.08545   0.83337   0.00000  Uiso   1.00
C669   C     0.25458   0.29467   0.69504   0.00000  Uiso   1.00
N670   N     0.29043   0.27981   0.67269   0.00000  Uiso   1.00
O671   O     0.46179   0.22775   0.75000   0.00000  Uiso   1.00
O672   O     0.53823   0.22774   0.75000   0.00000  Uiso   1.00
C673   C     0.50080   0.24656   0.74889   0.00000  Uiso   1.00
O674   O     0.44280   0.16666   0.82681   0.00000  Uiso   1.00
O675   O     0.51924   0.16665   0.82681   0.00000  Uiso   1.00
C676   C     0.47465   0.16028   0.85071   0.00000  Uiso   1.00
Zn677  Zn    0.44896   0.16667   0.75000   0.00000  Uiso   1.00
Zn678  Zn    0.55104   0.16666   0.75000   0.00000  Uiso   1.00
O679   O     0.46177   0.10559   0.74999   0.00000  Uiso   1.00
O680   O     0.53821   0.10558   0.74999   0.00000  Uiso   1.00
O681   O     0.48076   0.16668   0.67319   0.00000  Uiso   1.00
O682   O     0.55720   0.16667   0.67319   0.00000  Uiso   1.00
C683   C     0.49949   0.08675   0.75073   0.00000  Uiso   1.00
C684   C     0.52588   0.16839   0.64851   0.00000  Uiso   1.00
C685   C     0.59712   0.18526   0.50429   0.00000  Uiso   1.00
H686   H     0.61383   0.16277   0.90276   0.00000  Uiso   1.00
C687   C     0.54075   0.17127   0.59079   0.00000  Uiso   1.00
C688   C     0.41419   0.13464   0.93562   0.00000  Uiso   1.00
C689   C     0.40165   0.12879   0.99059   0.00000  Uiso   1.00
C690   C     0.43440   0.13781   0.51694   0.00000  Uiso   1.00
C691   C     0.48216   0.14754   0.98846   0.00000  Uiso   1.00
C692   C     0.49627   0.14448   0.93301   0.00000  Uiso   1.00
C693   C     0.51697   0.15934   0.51253   0.00000  Uiso   1.00
C694   C     0.56385   0.16951   0.98081   0.00000  Uiso   1.00
C695   C     0.57747   0.15973   0.92718   0.00000  Uiso   1.00
C696   C     0.54525   0.14111   0.90617   0.00000  Uiso   1.00
C697   C     0.50643   0.16146   0.56696   0.00000  Uiso   1.00
C698   C     0.58618   0.18463   0.55962   0.00000  Uiso   1.00
C699   C     0.46127   0.14586   0.90674   0.00000  Uiso   1.00
H700   H     0.47148   0.15421   0.59197   0.00000  Uiso   1.00
H701   H     0.42145   0.13550   0.55945   0.00000  Uiso   1.00
C702   C     0.54343   0.31360   0.72322   0.00000  Uiso   1.00
C703   C     0.54161   0.02293   0.72453   0.00000  Uiso   1.00
H704   H     0.57318   0.04092   0.70430   0.00000  Uiso   1.00
C705   C     0.49917   0.04255   0.75085   0.00000  Uiso   1.00
C706   C     0.45811   0.01953   0.77701   0.00000  Uiso   1.00
C707   C     0.46036   0.31044   0.77657   0.00000  Uiso   1.00
H708   H     0.42962   0.29263   0.79864   0.00000  Uiso   1.00
C709   C     0.50201   0.29076   0.74900   0.00000  Uiso   1.00
C710   C     0.64790   0.13459   0.72867   0.00000  Uiso   1.00
H711   H     0.63400   0.10912   0.71129   0.00000  Uiso   1.00
C712   C     0.36231   0.13422   0.72844   0.00000  Uiso   1.00
N713   N     0.38093   0.16668   0.75001   0.00000  Uiso   1.00
C714   C     0.35085   0.19886   0.77191   0.00000  Uiso   1.00
C715   C     0.63671   0.19862   0.77137   0.00000  Uiso   1.00
H716   H     0.61356   0.22389   0.78909   0.00000  Uiso   1.00
N717   N     0.61906   0.16665   0.75000   0.00000  Uiso   1.00
C718   C     0.62191   0.19710   0.58346   0.00000  Uiso   1.00
N719   N     0.65081   0.20667   0.60208   0.00000  Uiso   1.00
C720   C     0.41315   0.03751   0.80486   0.00000  Uiso   1.00
N721   N     0.37645   0.05086   0.82693   0.00000  Uiso   1.00
N722   N     0.39009   0.09902   0.70562   0.00000  Uiso   1.00
O723   O     0.37133   0.06203   0.71562   0.00000  Uiso   1.00
O724   O     0.42725   0.10402   0.66454   0.00000  Uiso   1.00
N725   N     0.36600   0.23304   0.79690   0.00000  Uiso   1.00
O726   O     0.38180   0.22611   0.83640   0.00000  Uiso   1.00
O727   O     0.35172   0.27017   0.79065   0.00000  Uiso   1.00
C728   C     0.64194   0.20303   0.97241   0.00000  Uiso   1.00
N729   N     0.34433   0.21771   0.94772   0.00000  Uiso   1.00
C730   C     0.37926   0.12708   0.90924   0.00000  Uiso   1.00
N731   N     0.35127   0.12108   0.88813   0.00000  Uiso   1.00
C732   C     0.35511   0.11373   0.52104   0.00000  Uiso   1.00
N733   N     0.65135   0.10137   0.54537   0.00000  Uiso   1.00
C734   C     0.56318   0.11039   0.86539   0.00000  Uiso   1.00
N735   N     0.57774   0.08545   0.83337   0.00000  Uiso   1.00
C736   C     0.58791   0.29467   0.69504   0.00000  Uiso   1.00
N737   N     0.62376   0.27981   0.67269   0.00000  Uiso   1.00
O738   O     0.79512   0.22775   0.75000   0.00000  Uiso   1.00
O739   O     0.87157   0.22774   0.75000   0.00000  Uiso   1.00
C740   C     0.83414   0.24656   0.74889   0.00000  Uiso   1.00
O741   O     0.77613   0.16666   0.82681   0.00000  Uiso   1.00
O742   O     0.85258   0.16665   0.82681   0.00000  Uiso   1.00
C743   C     0.80798   0.16028   0.85071   0.00000  Uiso   1.00
Zn744  Zn    0.78229   0.16667   0.75000   0.00000  Uiso   1.00
Zn745  Zn    0.88438   0.16666   0.75000   0.00000  Uiso   1.00
O746   O     0.79510   0.10559   0.74999   0.00000  Uiso   1.00
O747   O     0.87154   0.10558   0.74999   0.00000  Uiso   1.00
O748   O     0.81409   0.16668   0.67319   0.00000  Uiso   1.00
O749   O     0.89053   0.16667   0.67319   0.00000  Uiso   1.00
C750   C     0.83283   0.08675   0.75073   0.00000  Uiso   1.00
C751   C     0.85921   0.16839   0.64851   0.00000  Uiso   1.00
C752   C     0.93046   0.18526   0.50429   0.00000  Uiso   1.00
H753   H     0.94717   0.16277   0.90276   0.00000  Uiso   1.00
C754   C     0.87408   0.17127   0.59079   0.00000  Uiso   1.00
C755   C     0.74753   0.13464   0.93562   0.00000  Uiso   1.00
C756   C     0.73498   0.12879   0.99059   0.00000  Uiso   1.00
C757   C     0.76773   0.13781   0.51694   0.00000  Uiso   1.00
C758   C     0.81549   0.14754   0.98846   0.00000  Uiso   1.00
C759   C     0.82961   0.14448   0.93301   0.00000  Uiso   1.00
C760   C     0.85030   0.15934   0.51253   0.00000  Uiso   1.00
C761   C     0.89719   0.16951   0.98081   0.00000  Uiso   1.00
C762   C     0.91081   0.15973   0.92718   0.00000  Uiso   1.00
C763   C     0.87859   0.14111   0.90617   0.00000  Uiso   1.00
C764   C     0.83977   0.16146   0.56696   0.00000  Uiso   1.00
C765   C     0.91951   0.18463   0.55962   0.00000  Uiso   1.00
C766   C     0.79460   0.14586   0.90674   0.00000  Uiso   1.00
H767   H     0.80481   0.15421   0.59197   0.00000  Uiso   1.00
H768   H     0.75478   0.13550   0.55945   0.00000  Uiso   1.00
C769   C     0.87677   0.31360   0.72322   0.00000  Uiso   1.00
C770   C     0.87494   0.02293   0.72453   0.00000  Uiso   1.00
H771   H     0.90651   0.04092   0.70430   0.00000  Uiso   1.00
C772   C     0.83251   0.04255   0.75085   0.00000  Uiso   1.00
C773   C     0.79145   0.01953   0.77701   0.00000  Uiso   1.00
C774   C     0.79370   0.31044   0.77657   0.00000  Uiso   1.00
H775   H     0.76295   0.29263   0.79864   0.00000  Uiso   1.00
C776   C     0.83534   0.29076   0.74900   0.00000  Uiso   1.00
C777   C     0.98124   0.13459   0.72867   0.00000  Uiso   1.00
H778   H     0.96733   0.10912   0.71129   0.00000  Uiso   1.00
C779   C     0.69564   0.13422   0.72844   0.00000  Uiso   1.00
N780   N     0.71426   0.16668   0.75001   0.00000  Uiso   1.00
C781   C     0.68419   0.19886   0.77191   0.00000  Uiso   1.00
C782   C     0.97004   0.19862   0.77137   0.00000  Uiso   1.00
H783   H     0.94690   0.22389   0.78909   0.00000  Uiso   1.00
N784   N     0.95239   0.16665   0.75000   0.00000  Uiso   1.00
C785   C     0.95525   0.19710   0.58346   0.00000  Uiso   1.00
N786   N     0.98415   0.20667   0.60208   0.00000  Uiso   1.00
C787   C     0.74648   0.03751   0.80486   0.00000  Uiso   1.00
N788   N     0.70978   0.05086   0.82693   0.00000  Uiso   1.00
N789   N     0.72342   0.09902   0.70562   0.00000  Uiso   1.00
O790   O     0.70466   0.06203   0.71562   0.00000  Uiso   1.00
O791   O     0.76058   0.10402   0.66454   0.00000  Uiso   1.00
N792   N     0.69933   0.23304   0.79690   0.00000  Uiso   1.00
O793   O     0.71513   0.22611   0.83640   0.00000  Uiso   1.00
O794   O     0.68505   0.27017   0.79065   0.00000  Uiso   1.00
C795   C     0.97528   0.20303   0.97241   0.00000  Uiso   1.00
N796   N     0.67767   0.21771   0.94772   0.00000  Uiso   1.00
C797   C     0.71259   0.12708   0.90924   0.00000  Uiso   1.00
N798   N     0.68461   0.12108   0.88813   0.00000  Uiso   1.00
C799   C     0.68844   0.11373   0.52104   0.00000  Uiso   1.00
N800   N     0.98468   0.10137   0.54537   0.00000  Uiso   1.00
C801   C     0.89651   0.11039   0.86539   0.00000  Uiso   1.00
N802   N     0.91107   0.08545   0.83337   0.00000  Uiso   1.00
C803   C     0.92125   0.29467   0.69504   0.00000  Uiso   1.00
N804   N     0.95709   0.27981   0.67269   0.00000  Uiso   1.00
O805   O     0.12846   0.56108   0.75000   0.00000  Uiso   1.00
O806   O     0.20490   0.56107   0.75000   0.00000  Uiso   1.00
C807   C     0.16747   0.57990   0.74889   0.00000  Uiso   1.00
O808   O     0.10947   0.50000   0.82681   0.00000  Uiso   1.00
O809   O     0.18591   0.49999   0.82681   0.00000  Uiso   1.00
C810   C     0.14132   0.49362   0.85071   0.00000  Uiso   1.00
Zn811  Zn    0.11562   0.50001   0.75000   0.00000  Uiso   1.00
Zn812  Zn    0.21771   0.49999   0.75000   0.00000  Uiso   1.00
O813   O     0.12843   0.43893   0.74999   0.00000  Uiso   1.00
O814   O     0.20488   0.43892   0.74999   0.00000  Uiso   1.00
O815   O     0.14742   0.50001   0.67319   0.00000  Uiso   1.00
O816   O     0.22387   0.50000   0.67319   0.00000  Uiso   1.00
C817   C     0.16616   0.42009   0.75073   0.00000  Uiso   1.00
C818   C     0.19255   0.50172   0.64851   0.00000  Uiso   1.00
C819   C     0.26379   0.51859   0.50429   0.00000  Uiso   1.00
H820   H     0.28050   0.49611   0.90276   0.00000  Uiso   1.00
C821   C     0.20741   0.50460   0.59079   0.00000  Uiso   1.00
C822   C     0.08086   0.46797   0.93562   0.00000  Uiso   1.00
C823   C     0.06832   0.46212   0.99059   0.00000  Uiso   1.00
C824   C     0.10106   0.47114   0.51694   0.00000  Uiso   1.00
C825   C     0.14882   0.48087   0.98846   0.00000  Uiso   1.00
C826   C     0.16294   0.47782   0.93301   0.00000  Uiso   1.00
C827   C     0.18363   0.49267   0.51253   0.00000  Uiso   1.00
C828   C     0.23052   0.50285   0.98081   0.00000  Uiso   1.00
C829   C     0.24414   0.49306   0.92718   0.00000  Uiso   1.00
C830   C     0.21192   0.47445   0.90617   0.00000  Uiso   1.00
C831   C     0.17310   0.49479   0.56696   0.00000  Uiso   1.00
C832   C     0.25284   0.51797   0.55962   0.00000  Uiso   1.00
C833   C     0.12794   0.47919   0.90674   0.00000  Uiso   1.00
H834   H     0.13814   0.48754   0.59197   0.00000  Uiso   1.00
H835   H     0.08812   0.46883   0.55945   0.00000  Uiso   1.00
C836   C     0.21010   0.64693   0.72322   0.00000  Uiso   1.00
C837   C     0.20828   0.35626   0.72453   0.00000  Uiso   1.00
H838   H     0.23984   0.37425   0.70430   0.00000  Uiso   1.00
C839   C     0.16584   0.37589   0.75085   0.00000  Uiso   1.00
C840   C     0.12478   0.35287   0.77701   0.00000  Uiso   1.00
C841   C     0.12703   0.64377   0.77657   0.00000  Uiso   1.00
H842   H     0.09628   0.62596   0.79864   0.00000  Uiso   1.00
C843   C     0.16868   0.62410   0.74900   0.00000  Uiso   1.00
C844   C     0.31457   0.46792   0.72867   0.00000  Uiso   1.00
H845   H     0.30067   0.44245   0.71129   0.00000  Uiso   1.00
C846   C     0.02898   0.46755   0.72844   0.00000  Uiso   1.00
N847   N     0.04760   0.50001   0.75001   0.00000  Uiso   1.00
C848   C     0.01752   0.53219   0.77191   0.00000  Uiso   1.00
C849   C     0.30338   0.53196   0.77137   0.00000  Uiso   1.00
H850   H     0.28023   0.55722   0.78909   0.00000  Uiso   1.00
N851   N     0.28573   0.49998   0.75000   0.00000  Uiso   1.00
C852   C     0.28858   0.53043   0.58346   0.00000  Uiso   1.00
N853   N     0.31748   0.54000   0.60208   0.00000  Uiso   1.00
C854   C     0.07982   0.37084   0.80486   0.00000  Uiso   1.00
N855   N     0.04312   0.38420   0.82693   0.00000  Uiso   1.00
N856   N     0.05675   0.43236   0.70562   0.00000  Uiso   1.00
O857   O     0.03799   0.39537   0.71562   0.00000  Uiso   1.00
O858   O     0.09391   0.43735   0.66454   0.00000  Uiso   1.00
N859   N     0.03266   0.56637   0.79690   0.00000  Uiso   1.00
O860   O     0.04847   0.55945   0.83640   0.00000  Uiso   1.00
O861   O     0.01838   0.60350   0.79065   0.00000  Uiso   1.00
C862   C     0.30861   0.53636   0.97241   0.00000  Uiso   1.00
N863   N     0.01100   0.55105   0.94772   0.00000  Uiso   1.00
C864   C     0.04592   0.46041   0.90924   0.00000  Uiso   1.00
N865   N     0.01794   0.45442   0.88813   0.00000  Uiso   1.00
C866   C     0.02177   0.44707   0.52104   0.00000  Uiso   1.00
N867   N     0.31801   0.43471   0.54537   0.00000  Uiso   1.00
C868   C     0.22984   0.44372   0.86539   0.00000  Uiso   1.00
N869   N     0.24441   0.41878   0.83337   0.00000  Uiso   1.00
C870   C     0.25458   0.62800   0.69504   0.00000  Uiso   1.00
N871   N     0.29043   0.61315   0.67269   0.00000  Uiso   1.00
O872   O     0.46179   0.56108   0.75000   0.00000  Uiso   1.00
O873   O     0.53823   0.56107   0.75000   0.00000  Uiso   1.00
C874   C     0.50080   0.57990   0.74889   0.00000  Uiso   1.00
O875   O     0.44280   0.50000   0.82681   0.00000  Uiso   1.00
O876   O     0.51924   0.49999   0.82681   0.00000  Uiso   1.00
C877   C     0.47465   0.49362   0.85071   0.00000  Uiso   1.00
Zn878  Zn    0.44896   0.50001   0.75000   0.00000  Uiso   1.00
Zn879  Zn    0.55104   0.49999   0.75000   0.00000  Uiso   1.00
O880   O     0.46177   0.43893   0.74999   0.00000  Uiso   1.00
O881   O     0.53821   0.43892   0.74999   0.00000  Uiso   1.00
O882   O     0.48076   0.50001   0.67319   0.00000  Uiso   1.00
O883   O     0.55720   0.50000   0.67319   0.00000  Uiso   1.00
C884   C     0.49949   0.42009   0.75073   0.00000  Uiso   1.00
C885   C     0.52588   0.50172   0.64851   0.00000  Uiso   1.00
C886   C     0.59712   0.51859   0.50429   0.00000  Uiso   1.00
H887   H     0.61383   0.49611   0.90276   0.00000  Uiso   1.00
C888   C     0.54075   0.50460   0.59079   0.00000  Uiso   1.00
C889   C     0.41419   0.46797   0.93562   0.00000  Uiso   1.00
C890   C     0.40165   0.46212   0.99059   0.00000  Uiso   1.00
C891   C     0.43440   0.47114   0.51694   0.00000  Uiso   1.00
C892   C     0.48216   0.48087   0.98846   0.00000  Uiso   1.00
C893   C     0.49627   0.47782   0.93301   0.00000  Uiso   1.00
C894   C     0.51697   0.49267   0.51253   0.00000  Uiso   1.00
C895   C     0.56385   0.50285   0.98081   0.00000  Uiso   1.00
C896   C     0.57747   0.49306   0.92718   0.00000  Uiso   1.00
C897   C     0.54525   0.47445   0.90617   0.00000  Uiso   1.00
C898   C     0.50643   0.49479   0.56696   0.00000  Uiso   1.00
C899   C     0.58618   0.51797   0.55962   0.00000  Uiso   1.00
C900   C     0.46127   0.47919   0.90674   0.00000  Uiso   1.00
H901   H     0.47148   0.48754   0.59197   0.00000  Uiso   1.00
H902   H     0.42145   0.46883   0.55945   0.00000  Uiso   1.00
C903   C     0.54343   0.64693   0.72322   0.00000  Uiso   1.00
C904   C     0.54161   0.35626   0.72453   0.00000  Uiso   1.00
H905   H     0.57318   0.37425   0.70430   0.00000  Uiso   1.00
C906   C     0.49917   0.37589   0.75085   0.00000  Uiso   1.00
C907   C     0.45811   0.35287   0.77701   0.00000  Uiso   1.00
C908   C     0.46036   0.64377   0.77657   0.00000  Uiso   1.00
H909   H     0.42962   0.62596   0.79864   0.00000  Uiso   1.00
C910   C     0.50201   0.62410   0.74900   0.00000  Uiso   1.00
C911   C     0.64790   0.46792   0.72867   0.00000  Uiso   1.00
H912   H     0.63400   0.44245   0.71129   0.00000  Uiso   1.00
C913   C     0.36231   0.46755   0.72844   0.00000  Uiso   1.00
N914   N     0.38093   0.50001   0.75001   0.00000  Uiso   1.00
C915   C     0.35085   0.53219   0.77191   0.00000  Uiso   1.00
C916   C     0.63671   0.53196   0.77137   0.00000  Uiso   1.00
H917   H     0.61356   0.55722   0.78909   0.00000  Uiso   1.00
N918   N     0.61906   0.49998   0.75000   0.00000  Uiso   1.00
C919   C     0.62191   0.53043   0.58346   0.00000  Uiso   1.00
N920   N     0.65081   0.54000   0.60208   0.00000  Uiso   1.00
C921   C     0.41315   0.37084   0.80486   0.00000  Uiso   1.00
N922   N     0.37645   0.38420   0.82693   0.00000  Uiso   1.00
N923   N     0.39009   0.43236   0.70562   0.00000  Uiso   1.00
O924   O     0.37133   0.39537   0.71562   0.00000  Uiso   1.00
O925   O     0.42725   0.43735   0.66454   0.00000  Uiso   1.00
N926   N     0.36600   0.56637   0.79690   0.00000  Uiso   1.00
O927   O     0.38180   0.55945   0.83640   0.00000  Uiso   1.00
O928   O     0.35172   0.60350   0.79065   0.00000  Uiso   1.00
C929   C     0.64194   0.53636   0.97241   0.00000  Uiso   1.00
N930   N     0.34433   0.55105   0.94772   0.00000  Uiso   1.00
C931   C     0.37926   0.46041   0.90924   0.00000  Uiso   1.00
N932   N     0.35127   0.45442   0.88813   0.00000  Uiso   1.00
C933   C     0.35511   0.44707   0.52104   0.00000  Uiso   1.00
N934   N     0.65135   0.43471   0.54537   0.00000  Uiso   1.00
C935   C     0.56318   0.44372   0.86539   0.00000  Uiso   1.00
N936   N     0.57774   0.41878   0.83337   0.00000  Uiso   1.00
C937   C     0.58791   0.62800   0.69504   0.00000  Uiso   1.00
N938   N     0.62376   0.61315   0.67269   0.00000  Uiso   1.00
O939   O     0.79512   0.56108   0.75000   0.00000  Uiso   1.00
O940   O     0.87157   0.56107   0.75000   0.00000  Uiso   1.00
C941   C     0.83414   0.57990   0.74889   0.00000  Uiso   1.00
O942   O     0.77613   0.50000   0.82681   0.00000  Uiso   1.00
O943   O     0.85258   0.49999   0.82681   0.00000  Uiso   1.00
C944   C     0.80798   0.49362   0.85071   0.00000  Uiso   1.00
Zn945  Zn    0.78229   0.50001   0.75000   0.00000  Uiso   1.00
Zn946  Zn    0.88438   0.49999   0.75000   0.00000  Uiso   1.00
O947   O     0.79510   0.43893   0.74999   0.00000  Uiso   1.00
O948   O     0.87154   0.43892   0.74999   0.00000  Uiso   1.00
O949   O     0.81409   0.50001   0.67319   0.00000  Uiso   1.00
O950   O     0.89053   0.50000   0.67319   0.00000  Uiso   1.00
C951   C     0.83283   0.42009   0.75073   0.00000  Uiso   1.00
C952   C     0.85921   0.50172   0.64851   0.00000  Uiso   1.00
C953   C     0.93046   0.51859   0.50429   0.00000  Uiso   1.00
H954   H     0.94717   0.49611   0.90276   0.00000  Uiso   1.00
C955   C     0.87408   0.50460   0.59079   0.00000  Uiso   1.00
C956   C     0.74753   0.46797   0.93562   0.00000  Uiso   1.00
C957   C     0.73498   0.46212   0.99059   0.00000  Uiso   1.00
C958   C     0.76773   0.47114   0.51694   0.00000  Uiso   1.00
C959   C     0.81549   0.48087   0.98846   0.00000  Uiso   1.00
C960   C     0.82961   0.47782   0.93301   0.00000  Uiso   1.00
C961   C     0.85030   0.49267   0.51253   0.00000  Uiso   1.00
C962   C     0.89719   0.50285   0.98081   0.00000  Uiso   1.00
C963   C     0.91081   0.49306   0.92718   0.00000  Uiso   1.00
C964   C     0.87859   0.47445   0.90617   0.00000  Uiso   1.00
C965   C     0.83977   0.49479   0.56696   0.00000  Uiso   1.00
C966   C     0.91951   0.51797   0.55962   0.00000  Uiso   1.00
C967   C     0.79460   0.47919   0.90674   0.00000  Uiso   1.00
H968   H     0.80481   0.48754   0.59197   0.00000  Uiso   1.00
H969   H     0.75478   0.46883   0.55945   0.00000  Uiso   1.00
C970   C     0.87677   0.64693   0.72322   0.00000  Uiso   1.00
C971   C     0.87494   0.35626   0.72453   0.00000  Uiso   1.00
H972   H     0.90651   0.37425   0.70430   0.00000  Uiso   1.00
C973   C     0.83251   0.37589   0.75085   0.00000  Uiso   1.00
C974   C     0.79145   0.35287   0.77701   0.00000  Uiso   1.00
C975   C     0.79370   0.64377   0.77657   0.00000  Uiso   1.00
H976   H     0.76295   0.62596   0.79864   0.00000  Uiso   1.00
C977   C     0.83534   0.62410   0.74900   0.00000  Uiso   1.00
C978   C     0.98124   0.46792   0.72867   0.00000  Uiso   1.00
H979   H     0.96733   0.44245   0.71129   0.00000  Uiso   1.00
C980   C     0.69564   0.46755   0.72844   0.00000  Uiso   1.00
N981   N     0.71426   0.50001   0.75001   0.00000  Uiso   1.00
C982   C     0.68419   0.53219   0.77191   0.00000  Uiso   1.00
C983   C     0.97004   0.53196   0.77137   0.00000  Uiso   1.00
H984   H     0.94690   0.55722   0.78909   0.00000  Uiso   1.00
N985   N     0.95239   0.49998   0.75000   0.00000  Uiso   1.00
C986   C     0.95525   0.53043   0.58346   0.00000  Uiso   1.00
N987   N     0.98415   0.54000   0.60208   0.00000  Uiso   1.00
C988   C     0.74648   0.37084   0.80486   0.00000  Uiso   1.00
N989   N     0.70978   0.38420   0.82693   0.00000  Uiso   1.00
N990   N     0.72342   0.43236   0.70562   0.00000  Uiso   1.00
O991   O     0.70466   0.39537   0.71562   0.00000  Uiso   1.00
O992   O     0.76058   0.43735   0.66454   0.00000  Uiso   1.00
N993   N     0.69933   0.56637   0.79690   0.00000  Uiso   1.00
O994   O     0.71513   0.55945   0.83640   0.00000  Uiso   1.00
O995   O     0.68505   0.60350   0.79065   0.00000  Uiso   1.00
C996   C     0.97528   0.53636   0.97241   0.00000  Uiso   1.00
N997   N     0.67767   0.55105   0.94772   0.00000  Uiso   1.00
C998   C     0.71259   0.46041   0.90924   0.00000  Uiso   1.00
N999   N     0.68461   0.45442   0.88813   0.00000  Uiso   1.00
C1000  C     0.68844   0.44707   0.52104   0.00000  Uiso   1.00
N1001  N     0.98468   0.43471   0.54537   0.00000  Uiso   1.00
C1002  C     0.89651   0.44372   0.86539   0.00000  Uiso   1.00
N1003  N     0.91107   0.41878   0.83337   0.00000  Uiso   1.00
C1004  C     0.92125   0.62800   0.69504   0.00000  Uiso   1.00
N1005  N     0.95709   0.61315   0.67269   0.00000  Uiso   1.00
O1006  O     0.12846   0.89442   0.75000   0.00000  Uiso   1.00
O1007  O     0.20490   0.89441   0.75000   0.00000  Uiso   1.00
C1008  C     0.16747   0.91323   0.74889   0.00000  Uiso   1.00
O1009  O     0.10947   0.83333   0.82681   0.00000  Uiso   1.00
O1010  O     0.18591   0.83332   0.82681   0.00000  Uiso   1.00
C1011  C     0.14132   0.82695   0.85071   0.00000  Uiso   1.00
Zn1012 Zn    0.11562   0.83334   0.75000   0.00000  Uiso   1.00
Zn1013 Zn    0.21771   0.83333   0.75000   0.00000  Uiso   1.00
O1014  O     0.12843   0.77226   0.74999   0.00000  Uiso   1.00
O1015  O     0.20488   0.77225   0.74999   0.00000  Uiso   1.00
O1016  O     0.14742   0.83335   0.67319   0.00000  Uiso   1.00
O1017  O     0.22387   0.83334   0.67319   0.00000  Uiso   1.00
C1018  C     0.16616   0.75342   0.75073   0.00000  Uiso   1.00
C1019  C     0.19255   0.83506   0.64851   0.00000  Uiso   1.00
C1020  C     0.26379   0.85193   0.50429   0.00000  Uiso   1.00
H1021  H     0.28050   0.82944   0.90276   0.00000  Uiso   1.00
C1022  C     0.20741   0.83793   0.59079   0.00000  Uiso   1.00
C1023  C     0.08086   0.80131   0.93562   0.00000  Uiso   1.00
C1024  C     0.06832   0.79546   0.99059   0.00000  Uiso   1.00
C1025  C     0.10106   0.80448   0.51694   0.00000  Uiso   1.00
C1026  C     0.14882   0.81421   0.98846   0.00000  Uiso   1.00
C1027  C     0.16294   0.81115   0.93301   0.00000  Uiso   1.00
C1028  C     0.18363   0.82601   0.51253   0.00000  Uiso   1.00
C1029  C     0.23052   0.83618   0.98081   0.00000  Uiso   1.00
C1030  C     0.24414   0.82639   0.92718   0.00000  Uiso   1.00
C1031  C     0.21192   0.80778   0.90617   0.00000  Uiso   1.00
C1032  C     0.17310   0.82813   0.56696   0.00000  Uiso   1.00
C1033  C     0.25284   0.85130   0.55962   0.00000  Uiso   1.00
C1034  C     0.12794   0.81252   0.90674   0.00000  Uiso   1.00
H1035  H     0.13814   0.82088   0.59197   0.00000  Uiso   1.00
H1036  H     0.08812   0.80216   0.55945   0.00000  Uiso   1.00
C1037  C     0.21010   0.98026   0.72322   0.00000  Uiso   1.00
C1038  C     0.20828   0.68960   0.72453   0.00000  Uiso   1.00
H1039  H     0.23984   0.70759   0.70430   0.00000  Uiso   1.00
C1040  C     0.16584   0.70922   0.75085   0.00000  Uiso   1.00
C1041  C     0.12478   0.68620   0.77701   0.00000  Uiso   1.00
C1042  C     0.12703   0.97711   0.77657   0.00000  Uiso   1.00
H1043  H     0.09628   0.95930   0.79864   0.00000  Uiso   1.00
C1044  C     0.16868   0.95743   0.74900   0.00000  Uiso   1.00
C1045  C     0.31457   0.80126   0.72867   0.00000  Uiso   1.00
H1046  H     0.30067   0.77579   0.71129   0.00000  Uiso   1.00
C1047  C     0.02898   0.80088   0.72844   0.00000  Uiso   1.00
N1048  N     0.04760   0.83334   0.75001   0.00000  Uiso   1.00
C1049  C     0.01752   0.86552   0.77191   0.00000  Uiso   1.00
C1050  C     0.30338   0.86529   0.77137   0.00000  Uiso   1.00
H1051  H     0.28023   0.89055   0.78909   0.00000  Uiso   1.00
N1052  N     0.28573   0.83331   0.75000   0.00000  Uiso   1.00
C1053  C     0.28858   0.86377   0.58346   0.00000  Uiso   1.00
N1054  N     0.31748   0.87333   0.60208   0.00000  Uiso   1.00
C1055  C     0.07982   0.70417   0.80486   0.00000  Uiso   1.00
N1056  N     0.04312   0.71753   0.82693   0.00000  Uiso   1.00
N1057  N     0.05675   0.76569   0.70562   0.00000  Uiso   1.00
O1058  O     0.03799   0.72870   0.71562   0.00000  Uiso   1.00
O1059  O     0.09391   0.77068   0.66454   0.00000  Uiso   1.00
N1060  N     0.03266   0.89970   0.79690   0.00000  Uiso   1.00
O1061  O     0.04847   0.89278   0.83640   0.00000  Uiso   1.00
O1062  O     0.01838   0.93683   0.79065   0.00000  Uiso   1.00
C1063  C     0.30861   0.86970   0.97241   0.00000  Uiso   1.00
N1064  N     0.01100   0.88438   0.94772   0.00000  Uiso   1.00
C1065  C     0.04592   0.79374   0.90924   0.00000  Uiso   1.00
N1066  N     0.01794   0.78775   0.88813   0.00000  Uiso   1.00
C1067  C     0.02177   0.78040   0.52104   0.00000  Uiso   1.00
N1068  N     0.31801   0.76804   0.54537   0.00000  Uiso   1.00
C1069  C     0.22984   0.77705   0.86539   0.00000  Uiso   1.00
N1070  N     0.24441   0.75211   0.83337   0.00000  Uiso   1.00
C1071  C     0.25458   0.96134   0.69504   0.00000  Uiso   1.00
N1072  N     0.29043   0.94648   0.67269   0.00000  Uiso   1.00
O1073  O     0.46179   0.89442   0.75000   0.00000  Uiso   1.00
O1074  O     0.53823   0.89441   0.75000   0.00000  Uiso   1.00
C1075  C     0.50080   0.91323   0.74889   0.00000  Uiso   1.00
O1076  O     0.44280   0.83333   0.82681   0.00000  Uiso   1.00
O1077  O     0.51924   0.83332   0.82681   0.00000  Uiso   1.00
C1078  C     0.47465   0.82695   0.85071   0.00000  Uiso   1.00
Zn1079 Zn    0.44896   0.83334   0.75000   0.00000  Uiso   1.00
Zn1080 Zn    0.55104   0.83333   0.75000   0.00000  Uiso   1.00
O1081  O     0.46177   0.77226   0.74999   0.00000  Uiso   1.00
O1082  O     0.53821   0.77225   0.74999   0.00000  Uiso   1.00
O1083  O     0.48076   0.83335   0.67319   0.00000  Uiso   1.00
O1084  O     0.55720   0.83334   0.67319   0.00000  Uiso   1.00
C1085  C     0.49949   0.75342   0.75073   0.00000  Uiso   1.00
C1086  C     0.52588   0.83506   0.64851   0.00000  Uiso   1.00
C1087  C     0.59712   0.85193   0.50429   0.00000  Uiso   1.00
H1088  H     0.61383   0.82944   0.90276   0.00000  Uiso   1.00
C1089  C     0.54075   0.83793   0.59079   0.00000  Uiso   1.00
C1090  C     0.41419   0.80131   0.93562   0.00000  Uiso   1.00
C1091  C     0.40165   0.79546   0.99059   0.00000  Uiso   1.00
C1092  C     0.43440   0.80448   0.51694   0.00000  Uiso   1.00
C1093  C     0.48216   0.81421   0.98846   0.00000  Uiso   1.00
C1094  C     0.49627   0.81115   0.93301   0.00000  Uiso   1.00
C1095  C     0.51697   0.82601   0.51253   0.00000  Uiso   1.00
C1096  C     0.56385   0.83618   0.98081   0.00000  Uiso   1.00
C1097  C     0.57747   0.82639   0.92718   0.00000  Uiso   1.00
C1098  C     0.54525   0.80778   0.90617   0.00000  Uiso   1.00
C1099  C     0.50643   0.82813   0.56696   0.00000  Uiso   1.00
C1100  C     0.58618   0.85130   0.55962   0.00000  Uiso   1.00
C1101  C     0.46127   0.81252   0.90674   0.00000  Uiso   1.00
H1102  H     0.47148   0.82088   0.59197   0.00000  Uiso   1.00
H1103  H     0.42145   0.80216   0.55945   0.00000  Uiso   1.00
C1104  C     0.54343   0.98026   0.72322   0.00000  Uiso   1.00
C1105  C     0.54161   0.68960   0.72453   0.00000  Uiso   1.00
H1106  H     0.57318   0.70759   0.70430   0.00000  Uiso   1.00
C1107  C     0.49917   0.70922   0.75085   0.00000  Uiso   1.00
C1108  C     0.45811   0.68620   0.77701   0.00000  Uiso   1.00
C1109  C     0.46036   0.97711   0.77657   0.00000  Uiso   1.00
H1110  H     0.42962   0.95930   0.79864   0.00000  Uiso   1.00
C1111  C     0.50201   0.95743   0.74900   0.00000  Uiso   1.00
C1112  C     0.64790   0.80126   0.72867   0.00000  Uiso   1.00
H1113  H     0.63400   0.77579   0.71129   0.00000  Uiso   1.00
C1114  C     0.36231   0.80088   0.72844   0.00000  Uiso   1.00
N1115  N     0.38093   0.83334   0.75001   0.00000  Uiso   1.00
C1116  C     0.35085   0.86552   0.77191   0.00000  Uiso   1.00
C1117  C     0.63671   0.86529   0.77137   0.00000  Uiso   1.00
H1118  H     0.61356   0.89055   0.78909   0.00000  Uiso   1.00
N1119  N     0.61906   0.83331   0.75000   0.00000  Uiso   1.00
C1120  C     0.62191   0.86377   0.58346   0.00000  Uiso   1.00
N1121  N     0.65081   0.87333   0.60208   0.00000  Uiso   1.00
C1122  C     0.41315   0.70417   0.80486   0.00000  Uiso   1.00
N1123  N     0.37645   0.71753   0.82693   0.00000  Uiso   1.00
N1124  N     0.39009   0.76569   0.70562   0.00000  Uiso   1.00
O1125  O     0.37133   0.72870   0.71562   0.00000  Uiso   1.00
O1126  O     0.42725   0.77068   0.66454   0.00000  Uiso   1.00
N1127  N     0.36600   0.89970   0.79690   0.00000  Uiso   1.00
O1128  O     0.38180   0.89278   0.83640   0.00000  Uiso   1.00
O1129  O     0.35172   0.93683   0.79065   0.00000  Uiso   1.00
C1130  C     0.64194   0.86970   0.97241   0.00000  Uiso   1.00
N1131  N     0.34433   0.88438   0.94772   0.00000  Uiso   1.00
C1132  C     0.37926   0.79374   0.90924   0.00000  Uiso   1.00
N1133  N     0.35127   0.78775   0.88813   0.00000  Uiso   1.00
C1134  C     0.35511   0.78040   0.52104   0.00000  Uiso   1.00
N1135  N     0.65135   0.76804   0.54537   0.00000  Uiso   1.00
C1136  C     0.56318   0.77705   0.86539   0.00000  Uiso   1.00
N1137  N     0.57774   0.75211   0.83337   0.00000  Uiso   1.00
C1138  C     0.58791   0.96134   0.69504   0.00000  Uiso   1.00
N1139  N     0.62376   0.94648   0.67269   0.00000  Uiso   1.00
O1140  O     0.79512   0.89442   0.75000   0.00000  Uiso   1.00
O1141  O     0.87157   0.89441   0.75000   0.00000  Uiso   1.00
C1142  C     0.83414   0.91323   0.74889   0.00000  Uiso   1.00
O1143  O     0.77613   0.83333   0.82681   0.00000  Uiso   1.00
O1144  O     0.85258   0.83332   0.82681   0.00000  Uiso   1.00
C1145  C     0.80798   0.82695   0.85071   0.00000  Uiso   1.00
Zn1146 Zn    0.78229   0.83334   0.75000   0.00000  Uiso   1.00
Zn1147 Zn    0.88438   0.83333   0.75000   0.00000  Uiso   1.00
O1148  O     0.79510   0.77226   0.74999   0.00000  Uiso   1.00
O1149  O     0.87154   0.77225   0.74999   0.00000  Uiso   1.00
O1150  O     0.81409   0.83335   0.67319   0.00000  Uiso   1.00
O1151  O     0.89053   0.83334   0.67319   0.00000  Uiso   1.00
C1152  C     0.83283   0.75342   0.75073   0.00000  Uiso   1.00
C1153  C     0.85921   0.83506   0.64851   0.00000  Uiso   1.00
C1154  C     0.93046   0.85193   0.50429   0.00000  Uiso   1.00
H1155  H     0.94717   0.82944   0.90276   0.00000  Uiso   1.00
C1156  C     0.87408   0.83793   0.59079   0.00000  Uiso   1.00
C1157  C     0.74753   0.80131   0.93562   0.00000  Uiso   1.00
C1158  C     0.73498   0.79546   0.99059   0.00000  Uiso   1.00
C1159  C     0.76773   0.80448   0.51694   0.00000  Uiso   1.00
C1160  C     0.81549   0.81421   0.98846   0.00000  Uiso   1.00
C1161  C     0.82961   0.81115   0.93301   0.00000  Uiso   1.00
C1162  C     0.85030   0.82601   0.51253   0.00000  Uiso   1.00
C1163  C     0.89719   0.83618   0.98081   0.00000  Uiso   1.00
C1164  C     0.91081   0.82639   0.92718   0.00000  Uiso   1.00
C1165  C     0.87859   0.80778   0.90617   0.00000  Uiso   1.00
C1166  C     0.83977   0.82813   0.56696   0.00000  Uiso   1.00
C1167  C     0.91951   0.85130   0.55962   0.00000  Uiso   1.00
C1168  C     0.79460   0.81252   0.90674   0.00000  Uiso   1.00
H1169  H     0.80481   0.82088   0.59197   0.00000  Uiso   1.00
H1170  H     0.75478   0.80216   0.55945   0.00000  Uiso   1.00
C1171  C     0.87677   0.98026   0.72322   0.00000  Uiso   1.00
C1172  C     0.87494   0.68960   0.72453   0.00000  Uiso   1.00
H1173  H     0.90651   0.70759   0.70430   0.00000  Uiso   1.00
C1174  C     0.83251   0.70922   0.75085   0.00000  Uiso   1.00
C1175  C     0.79145   0.68620   0.77701   0.00000  Uiso   1.00
C1176  C     0.79370   0.97711   0.77657   0.00000  Uiso   1.00
H1177  H     0.76295   0.95930   0.79864   0.00000  Uiso   1.00
C1178  C     0.83534   0.95743   0.74900   0.00000  Uiso   1.00
C1179  C     0.98124   0.80126   0.72867   0.00000  Uiso   1.00
H1180  H     0.96733   0.77579   0.71129   0.00000  Uiso   1.00
C1181  C     0.69564   0.80088   0.72844   0.00000  Uiso   1.00
N1182  N     0.71426   0.83334   0.75001   0.00000  Uiso   1.00
C1183  C     0.68419   0.86552   0.77191   0.00000  Uiso   1.00
C1184  C     0.97004   0.86529   0.77137   0.00000  Uiso   1.00
H1185  H     0.94690   0.89055   0.78909   0.00000  Uiso   1.00
N1186  N     0.95239   0.83331   0.75000   0.00000  Uiso   1.00
C1187  C     0.95525   0.86377   0.58346   0.00000  Uiso   1.00
N1188  N     0.98415   0.87333   0.60208   0.00000  Uiso   1.00
C1189  C     0.74648   0.70417   0.80486   0.00000  Uiso   1.00
N1190  N     0.70978   0.71753   0.82693   0.00000  Uiso   1.00
N1191  N     0.72342   0.76569   0.70562   0.00000  Uiso   1.00
O1192  O     0.70466   0.72870   0.71562   0.00000  Uiso   1.00
O1193  O     0.76058   0.77068   0.66454   0.00000  Uiso   1.00
N1194  N     0.69933   0.89970   0.79690   0.00000  Uiso   1.00
O1195  O     0.71513   0.89278   0.83640   0.00000  Uiso   1.00
O1196  O     0.68505   0.93683   0.79065   0.00000  Uiso   1.00
C1197  C     0.97528   0.86970   0.97241   0.00000  Uiso   1.00
N1198  N     0.67767   0.88438   0.94772   0.00000  Uiso   1.00
C1199  C     0.71259   0.79374   0.90924   0.00000  Uiso   1.00
N1200  N     0.68461   0.78775   0.88813   0.00000  Uiso   1.00
C1201  C     0.68844   0.78040   0.52104   0.00000  Uiso   1.00
N1202  N     0.98468   0.76804   0.54537   0.00000  Uiso   1.00
C1203  C     0.89651   0.77705   0.86539   0.00000  Uiso   1.00
N1204  N     0.91107   0.75211   0.83337   0.00000  Uiso   1.00
C1205  C     0.92125   0.96134   0.69504   0.00000  Uiso   1.00
N1206  N     0.95709   0.94648   0.67269   0.00000  Uiso   1.00
loop_
_geom_bond_atom_site_label_1
_geom_bond_atom_site_label_2
_geom_bond_distance
_geom_bond_site_symmetry_2
_ccdc_geom_bond_type
O1     Zn7     2.000   .     S
O1     C3      1.295   .     A
O2     C3      1.283   .     A
O2     Zn8     2.009   .     S
C3     C39     1.424   .     S
O4     Zn7     1.993   .     S
O4     C6      1.313   .     A
O5     Zn8     1.965   .     S
O5     C6      1.294   .     A
C6     C29     1.489   .     S
Zn7    N43     2.024   .     S
Zn7    O11     1.965   .     S
Zn7    O9      2.009   .     S
Zn8    O12     1.993   .     S
Zn8    N47     2.024   .     S
Zn8    O10     2.000   .     S
O9     C13     1.288   .     A
O10    C13     1.290   .     A
O11    C14     1.298   .     A
O12    C14     1.298   .     A
C13    C35     1.424   .     S
C14    C17     1.461   .     S
C15    C28     1.404   .     A
C15    C627    1.415   1_554 S
C15    C661    1.450   1_554 S
H16    C25     1.078   .     S
C17    C27     1.393   .     A
C17    C28     1.410   .     A
C18    C29     1.414   .     A
C18    C60     1.443   .     S
C18    C19     1.403   .     A
C19    C623    1.394   .     S
C19    C665    1.447   .     S
C20    H31     1.077   .     S
C20    C622    1.394   1_554 S
C20    C624    1.418   1_554 S
C21    C22     1.405   .     A
C21    C623    1.418   .     S
C21    C626    1.425   .     S
C22    C29     1.424   .     A
C22    C26     1.415   .     A
C23    C27     1.384   .     A
C23    C624    1.425   1_554 S
C23    C627    1.421   1_554 S
C24    C25     1.394   .     A
C24    C626    1.421   .     S
C24    C618    1.415   .     S
C25    C26     1.383   .     A
C26    C64     1.448   .     S
C27    H30     1.068   .     S
C28    C48     1.451   .     S
C32    C66     1.445   .     S
C32    C39     1.408   .     A
C32    C234    1.377   .     S
C33    C35     1.398   .     A
C33    H34     1.086   .     S
C33    C434    1.377   1_545 S
C35    C36     1.405   .     A
C36    C50     1.441   .     S
C36    C439    1.369   1_545 S
C37    C39     1.389   .     A
C37    H38     1.078   .     S
C37    C237    1.369   .     S
C40    H41     1.082   .     S
C40    N47     1.358   .     A
C40    C109    1.419   .     S
C42    N43     1.384   .     A
C42    N52     1.431   .     S
C42    C174    1.419   1_455 S
N43    C44     1.383   .     A
C44    N55     1.426   .     S
C44    C179    1.417   1_455 S
C45    N47     1.355   .     A
C45    H46     1.082   .     S
C45    C111    1.417   .     S
C48    N49     1.157   .     T
C50    N51     1.155   .     T
N52    O54     1.298   .     A
N52    O53     1.302   .     A
N55    O56     1.298   .     A
N55    O57     1.302   .     A
C58    C618    1.450   .     S
C58    N126    1.156   .     S
N59    C192    1.156   1_455 S
C60    N61     1.155   .     T
C62    C622    1.447   1_554 S
C62    N197    1.157   1_455 S
N63    C129    1.157   .     S
C64    N65     1.157   .     T
C66    N67     1.157   .     T
O68    Zn74    2.000   .     S
O68    C70     1.295   .     A
O69    C70     1.283   .     A
O69    Zn75    2.009   .     S
C70    C106    1.424   .     S
O71    Zn74    1.993   .     S
O71    C73     1.313   .     A
O72    Zn75    1.965   .     S
O72    C73     1.294   .     A
C73    C96     1.489   .     S
Zn74   N110    2.024   .     S
Zn74   O78     1.965   .     S
Zn74   O76     2.009   .     S
Zn75   O79     1.993   .     S
Zn75   N114    2.024   .     S
Zn75   O77     2.000   .     S
O76    C80     1.288   .     A
O77    C80     1.290   .     A
O78    C81     1.298   .     A
O79    C81     1.298   .     A
C80    C102    1.424   .     S
C81    C84     1.461   .     S
C82    C95     1.404   .     A
C82    C694    1.415   1_554 S
C82    C728    1.450   1_554 S
H83    C92     1.078   .     S
C84    C94     1.393   .     A
C84    C95     1.410   .     A
C85    C96     1.414   .     A
C85    C127    1.443   .     S
C85    C86     1.403   .     A
C86    C690    1.394   .     S
C86    C732    1.447   .     S
C87    H98     1.077   .     S
C87    C689    1.394   1_554 S
C87    C691    1.418   1_554 S
C88    C89     1.405   .     A
C88    C690    1.418   .     S
C88    C693    1.425   .     S
C89    C96     1.424   .     A
C89    C93     1.415   .     A
C90    C94     1.384   .     A
C90    C691    1.425   1_554 S
C90    C694    1.421   1_554 S
C91    C92     1.394   .     A
C91    C693    1.421   .     S
C91    C685    1.415   .     S
C92    C93     1.383   .     A
C93    C131    1.448   .     S
C94    H97     1.068   .     S
C95    C115    1.451   .     S
C99    C133    1.445   .     S
C99    C106    1.408   .     A
C99    C301    1.377   .     S
C100   C102    1.398   .     A
C100   H101    1.086   .     S
C100   C501    1.377   1_545 S
C102   C103    1.405   .     A
C103   C117    1.441   .     S
C103   C506    1.369   1_545 S
C104   C106    1.389   .     A
C104   H105    1.078   .     S
C104   C304    1.369   .     S
C107   H108    1.082   .     S
C107   N114    1.358   .     A
C107   C176    1.419   .     S
C109   N110    1.384   .     A
C109   N119    1.431   .     S
N110   C111    1.383   .     A
C111   N122    1.426   .     S
C112   N114    1.355   .     A
C112   H113    1.082   .     S
C112   C178    1.417   .     S
C115   N116    1.157   .     T
C117   N118    1.155   .     T
N119   O121    1.298   .     A
N119   O120    1.302   .     A
N122   O123    1.298   .     A
N122   O124    1.302   .     A
C125   C685    1.450   .     S
C125   N193    1.156   .     S
C127   N128    1.155   .     T
C129   C689    1.447   1_554 S
N130   C196    1.157   .     S
C131   N132    1.157   .     T
C133   N134    1.157   .     T
O135   Zn141   2.000   .     S
O135   C137    1.295   .     A
O136   C137    1.283   .     A
O136   Zn142   2.009   .     S
C137   C173    1.424   .     S
O138   Zn141   1.993   .     S
O138   C140    1.313   .     A
O139   Zn142   1.965   .     S
O139   C140    1.294   .     A
C140   C163    1.489   .     S
Zn141  N177    2.024   .     S
Zn141  O145    1.965   .     S
Zn141  O143    2.009   .     S
Zn142  O146    1.993   .     S
Zn142  N181    2.024   .     S
Zn142  O144    2.000   .     S
O143   C147    1.288   .     A
O144   C147    1.290   .     A
O145   C148    1.298   .     A
O146   C148    1.298   .     A
C147   C169    1.424   .     S
C148   C151    1.461   .     S
C149   C162    1.404   .     A
C149   C761    1.415   1_554 S
C149   C795    1.450   1_554 S
H150   C159    1.078   .     S
C151   C161    1.393   .     A
C151   C162    1.410   .     A
C152   C163    1.414   .     A
C152   C194    1.443   .     S
C152   C153    1.403   .     A
C153   C757    1.394   .     S
C153   C799    1.447   .     S
C154   H165    1.077   .     S
C154   C756    1.394   1_554 S
C154   C758    1.418   1_554 S
C155   C156    1.405   .     A
C155   C757    1.418   .     S
C155   C760    1.425   .     S
C156   C163    1.424   .     A
C156   C160    1.415   .     A
C157   C161    1.384   .     A
C157   C758    1.425   1_554 S
C157   C761    1.421   1_554 S
C158   C159    1.394   .     A
C158   C760    1.421   .     S
C158   C752    1.415   .     S
C159   C160    1.383   .     A
C160   C198    1.448   .     S
C161   H164    1.068   .     S
C162   C182    1.451   .     S
C166   C200    1.445   .     S
C166   C173    1.408   .     A
C166   C368    1.377   .     S
C167   C169    1.398   .     A
C167   H168    1.086   .     S
C167   C568    1.377   1_545 S
C169   C170    1.405   .     A
C170   C184    1.441   .     S
C170   C573    1.369   1_545 S
C171   C173    1.389   .     A
C171   H172    1.078   .     S
C171   C371    1.369   .     S
C174   H175    1.082   .     S
C174   N181    1.358   .     A
C174   C42     1.419   1_655 S
C176   N177    1.384   .     A
C176   N186    1.431   .     S
N177   C178    1.383   .     A
C178   N189    1.426   .     S
C179   N181    1.355   .     A
C179   H180    1.082   .     S
C179   C44     1.417   1_655 S
C182   N183    1.157   .     T
C184   N185    1.155   .     T
N186   O188    1.298   .     A
N186   O187    1.302   .     A
N189   O190    1.298   .     A
N189   O191    1.302   .     A
C192   C752    1.450   .     S
C192   N59     1.156   1_655 S
C194   N195    1.155   .     T
C196   C756    1.447   1_554 S
N197   C62     1.157   1_655 S
C198   N199    1.157   .     T
C200   N201    1.157   .     T
O202   Zn208   2.000   .     S
O202   C204    1.295   .     A
O203   C204    1.283   .     A
O203   Zn209   2.009   .     S
C204   C240    1.424   .     S
O205   Zn208   1.993   .     S
O205   C207    1.313   .     A
O206   Zn209   1.965   .     S
O206   C207    1.294   .     A
C207   C230    1.489   .     S
Zn208  N244    2.024   .     S
Zn208  O212    1.965   .     S
Zn208  O210    2.009   .     S
Zn209  O213    1.993   .     S
Zn209  N248    2.024   .     S
Zn209  O211    2.000   .     S
O210   C214    1.288   .     A
O211   C214    1.290   .     A
O212   C215    1.298   .     A
O213   C215    1.298   .     A
C214   C236    1.424   .     S
C215   C218    1.461   .     S
C216   C229    1.404   .     A
C216   C828    1.415   1_554 S
C216   C862    1.450   1_554 S
H217   C226    1.078   .     S
C218   C228    1.393   .     A
C218   C229    1.410   .     A
C219   C230    1.414   .     A
C219   C261    1.443   .     S
C219   C220    1.403   .     A
C220   C824    1.394   .     S
C220   C866    1.447   .     S
C221   H232    1.077   .     S
C221   C823    1.394   1_554 S
C221   C825    1.418   1_554 S
C222   C223    1.405   .     A
C222   C824    1.418   .     S
C222   C827    1.425   .     S
C223   C230    1.424   .     A
C223   C227    1.415   .     A
C224   C228    1.384   .     A
C224   C825    1.425   1_554 S
C224   C828    1.421   1_554 S
C225   C226    1.394   .     A
C225   C827    1.421   .     S
C225   C819    1.415   .     S
C226   C227    1.383   .     A
C227   C265    1.448   .     S
C228   H231    1.068   .     S
C229   C249    1.451   .     S
C233   C267    1.445   .     S
C233   C240    1.408   .     A
C233   C435    1.377   .     S
C234   C236    1.398   .     A
C234   H235    1.086   .     S
C236   C237    1.405   .     A
C237   C251    1.441   .     S
C238   C240    1.389   .     A
C238   H239    1.078   .     S
C238   C438    1.369   .     S
C241   H242    1.082   .     S
C241   N248    1.358   .     A
C241   C310    1.419   .     S
C243   N244    1.384   .     A
C243   N253    1.431   .     S
C243   C375    1.419   1_455 S
N244   C245    1.383   .     A
C245   N256    1.426   .     S
C245   C380    1.417   1_455 S
C246   N248    1.355   .     A
C246   H247    1.082   .     S
C246   C312    1.417   .     S
C249   N250    1.157   .     T
C251   N252    1.155   .     T
N253   O255    1.298   .     A
N253   O254    1.302   .     A
N256   O257    1.298   .     A
N256   O258    1.302   .     A
C259   C819    1.450   .     S
C259   N327    1.156   .     S
N260   C393    1.156   1_455 S
C261   N262    1.155   .     T
C263   C823    1.447   1_554 S
C263   N398    1.157   1_455 S
N264   C330    1.157   .     S
C265   N266    1.157   .     T
C267   N268    1.157   .     T
O269   Zn275   2.000   .     S
O269   C271    1.295   .     A
O270   C271    1.283   .     A
O270   Zn276   2.009   .     S
C271   C307    1.424   .     S
O272   Zn275   1.993   .     S
O272   C274    1.313   .     A
O273   Zn276   1.965   .     S
O273   C274    1.294   .     A
C274   C297    1.489   .     S
Zn275  N311    2.024   .     S
Zn275  O279    1.965   .     S
Zn275  O277    2.009   .     S
Zn276  O280    1.993   .     S
Zn276  N315    2.024   .     S
Zn276  O278    2.000   .     S
O277   C281    1.288   .     A
O278   C281    1.290   .     A
O279   C282    1.298   .     A
O280   C282    1.298   .     A
C281   C303    1.424   .     S
C282   C285    1.461   .     S
C283   C296    1.404   .     A
C283   C895    1.415   1_554 S
C283   C929    1.450   1_554 S
H284   C293    1.078   .     S
C285   C295    1.393   .     A
C285   C296    1.410   .     A
C286   C297    1.414   .     A
C286   C328    1.443   .     S
C286   C287    1.403   .     A
C287   C891    1.394   .     S
C287   C933    1.447   .     S
C288   H299    1.077   .     S
C288   C890    1.394   1_554 S
C288   C892    1.418   1_554 S
C289   C290    1.405   .     A
C289   C891    1.418   .     S
C289   C894    1.425   .     S
C290   C297    1.424   .     A
C290   C294    1.415   .     A
C291   C295    1.384   .     A
C291   C892    1.425   1_554 S
C291   C895    1.421   1_554 S
C292   C293    1.394   .     A
C292   C894    1.421   .     S
C292   C886    1.415   .     S
C293   C294    1.383   .     A
C294   C332    1.448   .     S
C295   H298    1.068   .     S
C296   C316    1.451   .     S
C300   C334    1.445   .     S
C300   C307    1.408   .     A
C300   C502    1.377   .     S
C301   C303    1.398   .     A
C301   H302    1.086   .     S
C303   C304    1.405   .     A
C304   C318    1.441   .     S
C305   C307    1.389   .     A
C305   H306    1.078   .     S
C305   C505    1.369   .     S
C308   H309    1.082   .     S
C308   N315    1.358   .     A
C308   C377    1.419   .     S
C310   N311    1.384   .     A
C310   N320    1.431   .     S
N311   C312    1.383   .     A
C312   N323    1.426   .     S
C313   N315    1.355   .     A
C313   H314    1.082   .     S
C313   C379    1.417   .     S
C316   N317    1.157   .     T
C318   N319    1.155   .     T
N320   O322    1.298   .     A
N320   O321    1.302   .     A
N323   O324    1.298   .     A
N323   O325    1.302   .     A
C326   C886    1.450   .     S
C326   N394    1.156   .     S
C328   N329    1.155   .     T
C330   C890    1.447   1_554 S
N331   C397    1.157   .     S
C332   N333    1.157   .     T
C334   N335    1.157   .     T
O336   Zn342   2.000   .     S
O336   C338    1.295   .     A
O337   C338    1.283   .     A
O337   Zn343   2.009   .     S
C338   C374    1.424   .     S
O339   Zn342   1.993   .     S
O339   C341    1.313   .     A
O340   Zn343   1.965   .     S
O340   C341    1.294   .     A
C341   C364    1.489   .     S
Zn342  N378    2.024   .     S
Zn342  O346    1.965   .     S
Zn342  O344    2.009   .     S
Zn343  O347    1.993   .     S
Zn343  N382    2.024   .     S
Zn343  O345    2.000   .     S
O344   C348    1.288   .     A
O345   C348    1.290   .     A
O346   C349    1.298   .     A
O347   C349    1.298   .     A
C348   C370    1.424   .     S
C349   C352    1.461   .     S
C350   C363    1.404   .     A
C350   C962    1.415   1_554 S
C350   C996    1.450   1_554 S
H351   C360    1.078   .     S
C352   C362    1.393   .     A
C352   C363    1.410   .     A
C353   C364    1.414   .     A
C353   C395    1.443   .     S
C353   C354    1.403   .     A
C354   C958    1.394   .     S
C354   C1000   1.447   .     S
C355   H366    1.077   .     S
C355   C957    1.394   1_554 S
C355   C959    1.418   1_554 S
C356   C357    1.405   .     A
C356   C958    1.418   .     S
C356   C961    1.425   .     S
C357   C364    1.424   .     A
C357   C361    1.415   .     A
C358   C362    1.384   .     A
C358   C959    1.425   1_554 S
C358   C962    1.421   1_554 S
C359   C360    1.394   .     A
C359   C961    1.421   .     S
C359   C953    1.415   .     S
C360   C361    1.383   .     A
C361   C399    1.448   .     S
C362   H365    1.068   .     S
C363   C383    1.451   .     S
C367   C401    1.445   .     S
C367   C374    1.408   .     A
C367   C569    1.377   .     S
C368   C370    1.398   .     A
C368   H369    1.086   .     S
C370   C371    1.405   .     A
C371   C385    1.441   .     S
C372   C374    1.389   .     A
C372   H373    1.078   .     S
C372   C572    1.369   .     S
C375   H376    1.082   .     S
C375   N382    1.358   .     A
C375   C243    1.419   1_655 S
C377   N378    1.384   .     A
C377   N387    1.431   .     S
N378   C379    1.383   .     A
C379   N390    1.426   .     S
C380   N382    1.355   .     A
C380   H381    1.082   .     S
C380   C245    1.417   1_655 S
C383   N384    1.157   .     T
C385   N386    1.155   .     T
N387   O389    1.298   .     A
N387   O388    1.302   .     A
N390   O391    1.298   .     A
N390   O392    1.302   .     A
C393   C953    1.450   .     S
C393   N260    1.156   1_655 S
C395   N396    1.155   .     T
C397   C957    1.447   1_554 S
N398   C263    1.157   1_655 S
C399   N400    1.157   .     T
C401   N402    1.157   .     T
O403   Zn409   2.000   .     S
O403   C405    1.295   .     A
O404   C405    1.283   .     A
O404   Zn410   2.009   .     S
C405   C441    1.424   .     S
O406   Zn409   1.993   .     S
O406   C408    1.313   .     A
O407   Zn410   1.965   .     S
O407   C408    1.294   .     A
C408   C431    1.489   .     S
Zn409  N445    2.024   .     S
Zn409  O413    1.965   .     S
Zn409  O411    2.009   .     S
Zn410  O414    1.993   .     S
Zn410  N449    2.024   .     S
Zn410  O412    2.000   .     S
O411   C415    1.288   .     A
O412   C415    1.290   .     A
O413   C416    1.298   .     A
O414   C416    1.298   .     A
C415   C437    1.424   .     S
C416   C419    1.461   .     S
C417   C430    1.404   .     A
C417   C1029   1.415   1_554 S
C417   C1063   1.450   1_554 S
H418   C427    1.078   .     S
C419   C429    1.393   .     A
C419   C430    1.410   .     A
C420   C431    1.414   .     A
C420   C462    1.443   .     S
C420   C421    1.403   .     A
C421   C1025   1.394   .     S
C421   C1067   1.447   .     S
C422   H433    1.077   .     S
C422   C1024   1.394   1_554 S
C422   C1026   1.418   1_554 S
C423   C424    1.405   .     A
C423   C1025   1.418   .     S
C423   C1028   1.425   .     S
C424   C431    1.424   .     A
C424   C428    1.415   .     A
C425   C429    1.384   .     A
C425   C1026   1.425   1_554 S
C425   C1029   1.421   1_554 S
C426   C427    1.394   .     A
C426   C1028   1.421   .     S
C426   C1020   1.415   .     S
C427   C428    1.383   .     A
C428   C466    1.448   .     S
C429   H432    1.068   .     S
C430   C450    1.451   .     S
C434   C468    1.445   .     S
C434   C441    1.408   .     A
C434   C33     1.377   1_565 S
C435   C437    1.398   .     A
C435   H436    1.086   .     S
C437   C438    1.405   .     A
C438   C452    1.441   .     S
C439   C441    1.389   .     A
C439   H440    1.078   .     S
C439   C36     1.369   1_565 S
C442   H443    1.082   .     S
C442   N449    1.358   .     A
C442   C511    1.419   .     S
C444   N445    1.384   .     A
C444   N454    1.431   .     S
C444   C576    1.419   1_455 S
N445   C446    1.383   .     A
C446   N457    1.426   .     S
C446   C581    1.417   1_455 S
C447   N449    1.355   .     A
C447   H448    1.082   .     S
C447   C513    1.417   .     S
C450   N451    1.157   .     T
C452   N453    1.155   .     T
N454   O456    1.298   .     A
N454   O455    1.302   .     A
N457   O458    1.298   .     A
N457   O459    1.302   .     A
C460   C1020   1.450   .     S
C460   N528    1.156   .     S
N461   C594    1.156   1_455 S
C462   N463    1.155   .     T
C464   C1024   1.447   1_554 S
C464   N599    1.157   1_455 S
N465   C531    1.157   .     S
C466   N467    1.157   .     T
C468   N469    1.157   .     T
O470   Zn476   2.000   .     S
O470   C472    1.295   .     A
O471   C472    1.283   .     A
O471   Zn477   2.009   .     S
C472   C508    1.424   .     S
O473   Zn476   1.993   .     S
O473   C475    1.313   .     A
O474   Zn477   1.965   .     S
O474   C475    1.294   .     A
C475   C498    1.489   .     S
Zn476  N512    2.024   .     S
Zn476  O480    1.965   .     S
Zn476  O478    2.009   .     S
Zn477  O481    1.993   .     S
Zn477  N516    2.024   .     S
Zn477  O479    2.000   .     S
O478   C482    1.288   .     A
O479   C482    1.290   .     A
O480   C483    1.298   .     A
O481   C483    1.298   .     A
C482   C504    1.424   .     S
C483   C486    1.461   .     S
C484   C497    1.404   .     A
C484   C1096   1.415   1_554 S
C484   C1130   1.450   1_554 S
H485   C494    1.078   .     S
C486   C496    1.393   .     A
C486   C497    1.410   .     A
C487   C498    1.414   .     A
C487   C529    1.443   .     S
C487   C488    1.403   .     A
C488   C1092   1.394   .     S
C488   C1134   1.447   .     S
C489   H500    1.077   .     S
C489   C1091   1.394   1_554 S
C489   C1093   1.418   1_554 S
C490   C491    1.405   .     A
C490   C1092   1.418   .     S
C490   C1095   1.425   .     S
C491   C498    1.424   .     A
C491   C495    1.415   .     A
C492   C496    1.384   .     A
C492   C1093   1.425   1_554 S
C492   C1096   1.421   1_554 S
C493   C494    1.394   .     A
C493   C1095   1.421   .     S
C493   C1087   1.415   .     S
C494   C495    1.383   .     A
C495   C533    1.448   .     S
C496   H499    1.068   .     S
C497   C517    1.451   .     S
C501   C535    1.445   .     S
C501   C508    1.408   .     A
C501   C100    1.377   1_565 S
C502   C504    1.398   .     A
C502   H503    1.086   .     S
C504   C505    1.405   .     A
C505   C519    1.441   .     S
C506   C508    1.389   .     A
C506   H507    1.078   .     S
C506   C103    1.369   1_565 S
C509   H510    1.082   .     S
C509   N516    1.358   .     A
C509   C578    1.419   .     S
C511   N512    1.384   .     A
C511   N521    1.431   .     S
N512   C513    1.383   .     A
C513   N524    1.426   .     S
C514   N516    1.355   .     A
C514   H515    1.082   .     S
C514   C580    1.417   .     S
C517   N518    1.157   .     T
C519   N520    1.155   .     T
N521   O523    1.298   .     A
N521   O522    1.302   .     A
N524   O525    1.298   .     A
N524   O526    1.302   .     A
C527   C1087   1.450   .     S
C527   N595    1.156   .     S
C529   N530    1.155   .     T
C531   C1091   1.447   1_554 S
N532   C598    1.157   .     S
C533   N534    1.157   .     T
C535   N536    1.157   .     T
O537   Zn543   2.000   .     S
O537   C539    1.295   .     A
O538   C539    1.283   .     A
O538   Zn544   2.009   .     S
C539   C575    1.424   .     S
O540   Zn543   1.993   .     S
O540   C542    1.313   .     A
O541   Zn544   1.965   .     S
O541   C542    1.294   .     A
C542   C565    1.489   .     S
Zn543  N579    2.024   .     S
Zn543  O547    1.965   .     S
Zn543  O545    2.009   .     S
Zn544  O548    1.993   .     S
Zn544  N583    2.024   .     S
Zn544  O546    2.000   .     S
O545   C549    1.288   .     A
O546   C549    1.290   .     A
O547   C550    1.298   .     A
O548   C550    1.298   .     A
C549   C571    1.424   .     S
C550   C553    1.461   .     S
C551   C564    1.404   .     A
C551   C1163   1.415   1_554 S
C551   C1197   1.450   1_554 S
H552   C561    1.078   .     S
C553   C563    1.393   .     A
C553   C564    1.410   .     A
C554   C565    1.414   .     A
C554   C596    1.443   .     S
C554   C555    1.403   .     A
C555   C1159   1.394   .     S
C555   C1201   1.447   .     S
C556   H567    1.077   .     S
C556   C1158   1.394   1_554 S
C556   C1160   1.418   1_554 S
C557   C558    1.405   .     A
C557   C1159   1.418   .     S
C557   C1162   1.425   .     S
C558   C565    1.424   .     A
C558   C562    1.415   .     A
C559   C563    1.384   .     A
C559   C1160   1.425   1_554 S
C559   C1163   1.421   1_554 S
C560   C561    1.394   .     A
C560   C1162   1.421   .     S
C560   C1154   1.415   .     S
C561   C562    1.383   .     A
C562   C600    1.448   .     S
C563   H566    1.068   .     S
C564   C584    1.451   .     S
C568   C602    1.445   .     S
C568   C575    1.408   .     A
C568   C167    1.377   1_565 S
C569   C571    1.398   .     A
C569   H570    1.086   .     S
C571   C572    1.405   .     A
C572   C586    1.441   .     S
C573   C575    1.389   .     A
C573   H574    1.078   .     S
C573   C170    1.369   1_565 S
C576   H577    1.082   .     S
C576   N583    1.358   .     A
C576   C444    1.419   1_655 S
C578   N579    1.384   .     A
C578   N588    1.431   .     S
N579   C580    1.383   .     A
C580   N591    1.426   .     S
C581   N583    1.355   .     A
C581   H582    1.082   .     S
C581   C446    1.417   1_655 S
C584   N585    1.157   .     T
C586   N587    1.155   .     T
N588   O590    1.298   .     A
N588   O589    1.302   .     A
N591   O592    1.298   .     A
N591   O593    1.302   .     A
C594   C1154   1.450   .     S
C594   N461    1.156   1_655 S
C596   N597    1.155   .     T
C598   C1158   1.447   1_554 S
N599   C464    1.157   1_655 S
C600   N601    1.157   .     T
C602   N603    1.157   .     T
O604   Zn610   2.000   .     S
O604   C606    1.295   .     A
O605   C606    1.283   .     A
O605   Zn611   2.009   .     S
C606   C642    1.424   .     S
O607   Zn610   1.993   .     S
O607   C609    1.313   .     A
O608   Zn611   1.965   .     S
O608   C609    1.294   .     A
C609   C632    1.489   .     S
Zn610  N646    2.024   .     S
Zn610  O614    1.965   .     S
Zn610  O612    2.009   .     S
Zn611  O615    1.993   .     S
Zn611  N650    2.024   .     S
Zn611  O613    2.000   .     S
O612   C616    1.288   .     A
O613   C616    1.290   .     A
O614   C617    1.298   .     A
O615   C617    1.298   .     A
C616   C638    1.424   .     S
C617   C620    1.461   .     S
C618   C631    1.404   .     A
H619   C628    1.078   .     S
C620   C630    1.393   .     A
C620   C631    1.410   .     A
C621   C632    1.414   .     A
C621   C663    1.443   .     S
C621   C622    1.403   .     A
C622   C20     1.394   1_556 S
C622   C62     1.447   1_556 S
C623   H634    1.077   .     S
C624   C625    1.405   .     A
C624   C20     1.418   1_556 S
C624   C23     1.425   1_556 S
C625   C632    1.424   .     A
C625   C629    1.415   .     A
C626   C630    1.384   .     A
C627   C628    1.394   .     A
C627   C23     1.421   1_556 S
C627   C15     1.415   1_556 S
C628   C629    1.383   .     A
C629   C667    1.448   .     S
C630   H633    1.068   .     S
C631   C651    1.451   .     S
C635   C669    1.445   .     S
C635   C642    1.408   .     A
C635   C837    1.377   .     S
C636   C638    1.398   .     A
C636   H637    1.086   .     S
C636   C1037   1.377   1_545 S
C638   C639    1.405   .     A
C639   C653    1.441   .     S
C639   C1042   1.369   1_545 S
C640   C642    1.389   .     A
C640   H641    1.078   .     S
C640   C840    1.369   .     S
C643   H644    1.082   .     S
C643   N650    1.358   .     A
C643   C712    1.419   .     S
C645   N646    1.384   .     A
C645   N655    1.431   .     S
C645   C777    1.419   1_455 S
N646   C647    1.383   .     A
C647   N658    1.426   .     S
C647   C782    1.417   1_455 S
C648   N650    1.355   .     A
C648   H649    1.082   .     S
C648   C714    1.417   .     S
C651   N652    1.157   .     T
C653   N654    1.155   .     T
N655   O657    1.298   .     A
N655   O656    1.302   .     A
N658   O659    1.298   .     A
N658   O660    1.302   .     A
C661   C15     1.450   1_556 S
C661   N729    1.156   .     S
N662   C795    1.156   1_455 S
C663   N664    1.155   .     T
C665   N800    1.157   1_455 S
N666   C732    1.157   .     S
C667   N668    1.157   .     T
C669   N670    1.157   .     T
O671   Zn677   2.000   .     S
O671   C673    1.295   .     A
O672   C673    1.283   .     A
O672   Zn678   2.009   .     S
C673   C709    1.424   .     S
O674   Zn677   1.993   .     S
O674   C676    1.313   .     A
O675   Zn678   1.965   .     S
O675   C676    1.294   .     A
C676   C699    1.489   .     S
Zn677  N713    2.024   .     S
Zn677  O681    1.965   .     S
Zn677  O679    2.009   .     S
Zn678  O682    1.993   .     S
Zn678  N717    2.024   .     S
Zn678  O680    2.000   .     S
O679   C683    1.288   .     A
O680   C683    1.290   .     A
O681   C684    1.298   .     A
O682   C684    1.298   .     A
C683   C705    1.424   .     S
C684   C687    1.461   .     S
C685   C698    1.404   .     A
H686   C695    1.078   .     S
C687   C697    1.393   .     A
C687   C698    1.410   .     A
C688   C699    1.414   .     A
C688   C730    1.443   .     S
C688   C689    1.403   .     A
C689   C87     1.394   1_556 S
C689   C129    1.447   1_556 S
C690   H701    1.077   .     S
C691   C692    1.405   .     A
C691   C87     1.418   1_556 S
C691   C90     1.425   1_556 S
C692   C699    1.424   .     A
C692   C696    1.415   .     A
C693   C697    1.384   .     A
C694   C695    1.394   .     A
C694   C90     1.421   1_556 S
C694   C82     1.415   1_556 S
C695   C696    1.383   .     A
C696   C734    1.448   .     S
C697   H700    1.068   .     S
C698   C718    1.451   .     S
C702   C736    1.445   .     S
C702   C709    1.408   .     A
C702   C904    1.377   .     S
C703   C705    1.398   .     A
C703   H704    1.086   .     S
C703   C1104   1.377   1_545 S
C705   C706    1.405   .     A
C706   C720    1.441   .     S
C706   C1109   1.369   1_545 S
C707   C709    1.389   .     A
C707   H708    1.078   .     S
C707   C907    1.369   .     S
C710   H711    1.082   .     S
C710   N717    1.358   .     A
C710   C779    1.419   .     S
C712   N713    1.384   .     A
C712   N722    1.431   .     S
N713   C714    1.383   .     A
C714   N725    1.426   .     S
C715   N717    1.355   .     A
C715   H716    1.082   .     S
C715   C781    1.417   .     S
C718   N719    1.157   .     T
C720   N721    1.155   .     T
N722   O724    1.298   .     A
N722   O723    1.302   .     A
N725   O726    1.298   .     A
N725   O727    1.302   .     A
C728   C82     1.450   1_556 S
C728   N796    1.156   .     S
C730   N731    1.155   .     T
N733   C799    1.157   .     S
C734   N735    1.157   .     T
C736   N737    1.157   .     T
O738   Zn744   2.000   .     S
O738   C740    1.295   .     A
O739   C740    1.283   .     A
O739   Zn745   2.009   .     S
C740   C776    1.424   .     S
O741   Zn744   1.993   .     S
O741   C743    1.313   .     A
O742   Zn745   1.965   .     S
O742   C743    1.294   .     A
C743   C766    1.489   .     S
Zn744  N780    2.024   .     S
Zn744  O748    1.965   .     S
Zn744  O746    2.009   .     S
Zn745  O749    1.993   .     S
Zn745  N784    2.024   .     S
Zn745  O747    2.000   .     S
O746   C750    1.288   .     A
O747   C750    1.290   .     A
O748   C751    1.298   .     A
O749   C751    1.298   .     A
C750   C772    1.424   .     S
C751   C754    1.461   .     S
C752   C765    1.404   .     A
H753   C762    1.078   .     S
C754   C764    1.393   .     A
C754   C765    1.410   .     A
C755   C766    1.414   .     A
C755   C797    1.443   .     S
C755   C756    1.403   .     A
C756   C154    1.394   1_556 S
C756   C196    1.447   1_556 S
C757   H768    1.077   .     S
C758   C759    1.405   .     A
C758   C154    1.418   1_556 S
C758   C157    1.425   1_556 S
C759   C766    1.424   .     A
C759   C763    1.415   .     A
C760   C764    1.384   .     A
C761   C762    1.394   .     A
C761   C157    1.421   1_556 S
C761   C149    1.415   1_556 S
C762   C763    1.383   .     A
C763   C801    1.448   .     S
C764   H767    1.068   .     S
C765   C785    1.451   .     S
C769   C803    1.445   .     S
C769   C776    1.408   .     A
C769   C971    1.377   .     S
C770   C772    1.398   .     A
C770   H771    1.086   .     S
C770   C1171   1.377   1_545 S
C772   C773    1.405   .     A
C773   C787    1.441   .     S
C773   C1176   1.369   1_545 S
C774   C776    1.389   .     A
C774   H775    1.078   .     S
C774   C974    1.369   .     S
C777   H778    1.082   .     S
C777   N784    1.358   .     A
C777   C645    1.419   1_655 S
C779   N780    1.384   .     A
C779   N789    1.431   .     S
N780   C781    1.383   .     A
C781   N792    1.426   .     S
C782   N784    1.355   .     A
C782   H783    1.082   .     S
C782   C647    1.417   1_655 S
C785   N786    1.157   .     T
C787   N788    1.155   .     T
N789   O791    1.298   .     A
N789   O790    1.302   .     A
N792   O793    1.298   .     A
N792   O794    1.302   .     A
C795   C149    1.450   1_556 S
C795   N662    1.156   1_655 S
C797   N798    1.155   .     T
N800   C665    1.157   1_655 S
C801   N802    1.157   .     T
C803   N804    1.157   .     T
O805   Zn811   2.000   .     S
O805   C807    1.295   .     A
O806   C807    1.283   .     A
O806   Zn812   2.009   .     S
C807   C843    1.424   .     S
O808   Zn811   1.993   .     S
O808   C810    1.313   .     A
O809   Zn812   1.965   .     S
O809   C810    1.294   .     A
C810   C833    1.489   .     S
Zn811  N847    2.024   .     S
Zn811  O815    1.965   .     S
Zn811  O813    2.009   .     S
Zn812  O816    1.993   .     S
Zn812  N851    2.024   .     S
Zn812  O814    2.000   .     S
O813   C817    1.288   .     A
O814   C817    1.290   .     A
O815   C818    1.298   .     A
O816   C818    1.298   .     A
C817   C839    1.424   .     S
C818   C821    1.461   .     S
C819   C832    1.404   .     A
H820   C829    1.078   .     S
C821   C831    1.393   .     A
C821   C832    1.410   .     A
C822   C833    1.414   .     A
C822   C864    1.443   .     S
C822   C823    1.403   .     A
C823   C221    1.394   1_556 S
C823   C263    1.447   1_556 S
C824   H835    1.077   .     S
C825   C826    1.405   .     A
C825   C221    1.418   1_556 S
C825   C224    1.425   1_556 S
C826   C833    1.424   .     A
C826   C830    1.415   .     A
C827   C831    1.384   .     A
C828   C829    1.394   .     A
C828   C224    1.421   1_556 S
C828   C216    1.415   1_556 S
C829   C830    1.383   .     A
C830   C868    1.448   .     S
C831   H834    1.068   .     S
C832   C852    1.451   .     S
C836   C870    1.445   .     S
C836   C843    1.408   .     A
C836   C1038   1.377   .     S
C837   C839    1.398   .     A
C837   H838    1.086   .     S
C839   C840    1.405   .     A
C840   C854    1.441   .     S
C841   C843    1.389   .     A
C841   H842    1.078   .     S
C841   C1041   1.369   .     S
C844   H845    1.082   .     S
C844   N851    1.358   .     A
C844   C913    1.419   .     S
C846   N847    1.384   .     A
C846   N856    1.431   .     S
C846   C978    1.419   1_455 S
N847   C848    1.383   .     A
C848   N859    1.426   .     S
C848   C983    1.417   1_455 S
C849   N851    1.355   .     A
C849   H850    1.082   .     S
C849   C915    1.417   .     S
C852   N853    1.157   .     T
C854   N855    1.155   .     T
N856   O858    1.298   .     A
N856   O857    1.302   .     A
N859   O860    1.298   .     A
N859   O861    1.302   .     A
C862   C216    1.450   1_556 S
C862   N930    1.156   .     S
N863   C996    1.156   1_455 S
C864   N865    1.155   .     T
C866   N1001   1.157   1_455 S
N867   C933    1.157   .     S
C868   N869    1.157   .     T
C870   N871    1.157   .     T
O872   Zn878   2.000   .     S
O872   C874    1.295   .     A
O873   C874    1.283   .     A
O873   Zn879   2.009   .     S
C874   C910    1.424   .     S
O875   Zn878   1.993   .     S
O875   C877    1.313   .     A
O876   Zn879   1.965   .     S
O876   C877    1.294   .     A
C877   C900    1.489   .     S
Zn878  N914    2.024   .     S
Zn878  O882    1.965   .     S
Zn878  O880    2.009   .     S
Zn879  O883    1.993   .     S
Zn879  N918    2.024   .     S
Zn879  O881    2.000   .     S
O880   C884    1.288   .     A
O881   C884    1.290   .     A
O882   C885    1.298   .     A
O883   C885    1.298   .     A
C884   C906    1.424   .     S
C885   C888    1.461   .     S
C886   C899    1.404   .     A
H887   C896    1.078   .     S
C888   C898    1.393   .     A
C888   C899    1.410   .     A
C889   C900    1.414   .     A
C889   C931    1.443   .     S
C889   C890    1.403   .     A
C890   C288    1.394   1_556 S
C890   C330    1.447   1_556 S
C891   H902    1.077   .     S
C892   C893    1.405   .     A
C892   C288    1.418   1_556 S
C892   C291    1.425   1_556 S
C893   C900    1.424   .     A
C893   C897    1.415   .     A
C894   C898    1.384   .     A
C895   C896    1.394   .     A
C895   C291    1.421   1_556 S
C895   C283    1.415   1_556 S
C896   C897    1.383   .     A
C897   C935    1.448   .     S
C898   H901    1.068   .     S
C899   C919    1.451   .     S
C903   C937    1.445   .     S
C903   C910    1.408   .     A
C903   C1105   1.377   .     S
C904   C906    1.398   .     A
C904   H905    1.086   .     S
C906   C907    1.405   .     A
C907   C921    1.441   .     S
C908   C910    1.389   .     A
C908   H909    1.078   .     S
C908   C1108   1.369   .     S
C911   H912    1.082   .     S
C911   N918    1.358   .     A
C911   C980    1.419   .     S
C913   N914    1.384   .     A
C913   N923    1.431   .     S
N914   C915    1.383   .     A
C915   N926    1.426   .     S
C916   N918    1.355   .     A
C916   H917    1.082   .     S
C916   C982    1.417   .     S
C919   N920    1.157   .     T
C921   N922    1.155   .     T
N923   O925    1.298   .     A
N923   O924    1.302   .     A
N926   O927    1.298   .     A
N926   O928    1.302   .     A
C929   C283    1.450   1_556 S
C929   N997    1.156   .     S
C931   N932    1.155   .     T
N934   C1000   1.157   .     S
C935   N936    1.157   .     T
C937   N938    1.157   .     T
O939   Zn945   2.000   .     S
O939   C941    1.295   .     A
O940   C941    1.283   .     A
O940   Zn946   2.009   .     S
C941   C977    1.424   .     S
O942   Zn945   1.993   .     S
O942   C944    1.313   .     A
O943   Zn946   1.965   .     S
O943   C944    1.294   .     A
C944   C967    1.489   .     S
Zn945  N981    2.024   .     S
Zn945  O949    1.965   .     S
Zn945  O947    2.009   .     S
Zn946  O950    1.993   .     S
Zn946  N985    2.024   .     S
Zn946  O948    2.000   .     S
O947   C951    1.288   .     A
O948   C951    1.290   .     A
O949   C952    1.298   .     A
O950   C952    1.298   .     A
C951   C973    1.424   .     S
C952   C955    1.461   .     S
C953   C966    1.404   .     A
H954   C963    1.078   .     S
C955   C965    1.393   .     A
C955   C966    1.410   .     A
C956   C967    1.414   .     A
C956   C998    1.443   .     S
C956   C957    1.403   .     A
C957   C355    1.394   1_556 S
C957   C397    1.447   1_556 S
C958   H969    1.077   .     S
C959   C960    1.405   .     A
C959   C355    1.418   1_556 S
C959   C358    1.425   1_556 S
C960   C967    1.424   .     A
C960   C964    1.415   .     A
C961   C965    1.384   .     A
C962   C963    1.394   .     A
C962   C358    1.421   1_556 S
C962   C350    1.415   1_556 S
C963   C964    1.383   .     A
C964   C1002   1.448   .     S
C965   H968    1.068   .     S
C966   C986    1.451   .     S
C970   C1004   1.445   .     S
C970   C977    1.408   .     A
C970   C1172   1.377   .     S
C971   C973    1.398   .     A
C971   H972    1.086   .     S
C973   C974    1.405   .     A
C974   C988    1.441   .     S
C975   C977    1.389   .     A
C975   H976    1.078   .     S
C975   C1175   1.369   .     S
C978   H979    1.082   .     S
C978   N985    1.358   .     A
C978   C846    1.419   1_655 S
C980   N981    1.384   .     A
C980   N990    1.431   .     S
N981   C982    1.383   .     A
C982   N993    1.426   .     S
C983   N985    1.355   .     A
C983   H984    1.082   .     S
C983   C848    1.417   1_655 S
C986   N987    1.157   .     T
C988   N989    1.155   .     T
N990   O992    1.298   .     A
N990   O991    1.302   .     A
N993   O994    1.298   .     A
N993   O995    1.302   .     A
C996   C350    1.450   1_556 S
C996   N863    1.156   1_655 S
C998   N999    1.155   .     T
N1001  C866    1.157   1_655 S
C1002  N1003   1.157   .     T
C1004  N1005   1.157   .     T
O1006  Zn1012  2.000   .     S
O1006  C1008   1.295   .     A
O1007  C1008   1.283   .     A
O1007  Zn1013  2.009   .     S
C1008  C1044   1.424   .     S
O1009  Zn1012  1.993   .     S
O1009  C1011   1.313   .     A
O1010  Zn1013  1.965   .     S
O1010  C1011   1.294   .     A
C1011  C1034   1.489   .     S
Zn1012 N1048   2.024   .     S
Zn1012 O1016   1.965   .     S
Zn1012 O1014   2.009   .     S
Zn1013 O1017   1.993   .     S
Zn1013 N1052   2.024   .     S
Zn1013 O1015   2.000   .     S
O1014  C1018   1.288   .     A
O1015  C1018   1.290   .     A
O1016  C1019   1.298   .     A
O1017  C1019   1.298   .     A
C1018  C1040   1.424   .     S
C1019  C1022   1.461   .     S
C1020  C1033   1.404   .     A
H1021  C1030   1.078   .     S
C1022  C1032   1.393   .     A
C1022  C1033   1.410   .     A
C1023  C1034   1.414   .     A
C1023  C1065   1.443   .     S
C1023  C1024   1.403   .     A
C1024  C422    1.394   1_556 S
C1024  C464    1.447   1_556 S
C1025  H1036   1.077   .     S
C1026  C1027   1.405   .     A
C1026  C422    1.418   1_556 S
C1026  C425    1.425   1_556 S
C1027  C1034   1.424   .     A
C1027  C1031   1.415   .     A
C1028  C1032   1.384   .     A
C1029  C1030   1.394   .     A
C1029  C425    1.421   1_556 S
C1029  C417    1.415   1_556 S
C1030  C1031   1.383   .     A
C1031  C1069   1.448   .     S
C1032  H1035   1.068   .     S
C1033  C1053   1.451   .     S
C1037  C1071   1.445   .     S
C1037  C1044   1.408   .     A
C1037  C636    1.377   1_565 S
C1038  C1040   1.398   .     A
C1038  H1039   1.086   .     S
C1040  C1041   1.405   .     A
C1041  C1055   1.441   .     S
C1042  C1044   1.389   .     A
C1042  H1043   1.078   .     S
C1042  C639    1.369   1_565 S
C1045  H1046   1.082   .     S
C1045  N1052   1.358   .     A
C1045  C1114   1.419   .     S
C1047  N1048   1.384   .     A
C1047  N1057   1.431   .     S
C1047  C1179   1.419   1_455 S
N1048  C1049   1.383   .     A
C1049  N1060   1.426   .     S
C1049  C1184   1.417   1_455 S
C1050  N1052   1.355   .     A
C1050  H1051   1.082   .     S
C1050  C1116   1.417   .     S
C1053  N1054   1.157   .     T
C1055  N1056   1.155   .     T
N1057  O1059   1.298   .     A
N1057  O1058   1.302   .     A
N1060  O1061   1.298   .     A
N1060  O1062   1.302   .     A
C1063  C417    1.450   1_556 S
C1063  N1131   1.156   .     S
N1064  C1197   1.156   1_455 S
C1065  N1066   1.155   .     T
C1067  N1202   1.157   1_455 S
N1068  C1134   1.157   .     S
C1069  N1070   1.157   .     T
C1071  N1072   1.157   .     T
O1073  Zn1079  2.000   .     S
O1073  C1075   1.295   .     A
O1074  C1075   1.283   .     A
O1074  Zn1080  2.009   .     S
C1075  C1111   1.424   .     S
O1076  Zn1079  1.993   .     S
O1076  C1078   1.313   .     A
O1077  Zn1080  1.965   .     S
O1077  C1078   1.294   .     A
C1078  C1101   1.489   .     S
Zn1079 N1115   2.024   .     S
Zn1079 O1083   1.965   .     S
Zn1079 O1081   2.009   .     S
Zn1080 O1084   1.993   .     S
Zn1080 N1119   2.024   .     S
Zn1080 O1082   2.000   .     S
O1081  C1085   1.288   .     A
O1082  C1085   1.290   .     A
O1083  C1086   1.298   .     A
O1084  C1086   1.298   .     A
C1085  C1107   1.424   .     S
C1086  C1089   1.461   .     S
C1087  C1100   1.404   .     A
H1088  C1097   1.078   .     S
C1089  C1099   1.393   .     A
C1089  C1100   1.410   .     A
C1090  C1101   1.414   .     A
C1090  C1132   1.443   .     S
C1090  C1091   1.403   .     A
C1091  C489    1.394   1_556 S
C1091  C531    1.447   1_556 S
C1092  H1103   1.077   .     S
C1093  C1094   1.405   .     A
C1093  C489    1.418   1_556 S
C1093  C492    1.425   1_556 S
C1094  C1101   1.424   .     A
C1094  C1098   1.415   .     A
C1095  C1099   1.384   .     A
C1096  C1097   1.394   .     A
C1096  C492    1.421   1_556 S
C1096  C484    1.415   1_556 S
C1097  C1098   1.383   .     A
C1098  C1136   1.448   .     S
C1099  H1102   1.068   .     S
C1100  C1120   1.451   .     S
C1104  C1138   1.445   .     S
C1104  C1111   1.408   .     A
C1104  C703    1.377   1_565 S
C1105  C1107   1.398   .     A
C1105  H1106   1.086   .     S
C1107  C1108   1.405   .     A
C1108  C1122   1.441   .     S
C1109  C1111   1.389   .     A
C1109  H1110   1.078   .     S
C1109  C706    1.369   1_565 S
C1112  H1113   1.082   .     S
C1112  N1119   1.358   .     A
C1112  C1181   1.419   .     S
C1114  N1115   1.384   .     A
C1114  N1124   1.431   .     S
N1115  C1116   1.383   .     A
C1116  N1127   1.426   .     S
C1117  N1119   1.355   .     A
C1117  H1118   1.082   .     S
C1117  C1183   1.417   .     S
C1120  N1121   1.157   .     T
C1122  N1123   1.155   .     T
N1124  O1126   1.298   .     A
N1124  O1125   1.302   .     A
N1127  O1128   1.298   .     A
N1127  O1129   1.302   .     A
C1130  C484    1.450   1_556 S
C1130  N1198   1.156   .     S
C1132  N1133   1.155   .     T
N1135  C1201   1.157   .     S
C1136  N1137   1.157   .     T
C1138  N1139   1.157   .     T
O1140  Zn1146  2.000   .     S
O1140  C1142   1.295   .     A
O1141  C1142   1.283   .     A
O1141  Zn1147  2.009   .     S
C1142  C1178   1.424   .     S
O1143  Zn1146  1.993   .     S
O1143  C1145   1.313   .     A
O1144  Zn1147  1.965   .     S
O1144  C1145   1.294   .     A
C1145  C1168   1.489   .     S
Zn1146 N1182   2.024   .     S
Zn1146 O1150   1.965   .     S
Zn1146 O1148   2.009   .     S
Zn1147 O1151   1.993   .     S
Zn1147 N1186   2.024   .     S
Zn1147 O1149   2.000   .     S
O1148  C1152   1.288   .     A
O1149  C1152   1.290   .     A
O1150  C1153   1.298   .     A
O1151  C1153   1.298   .     A
C1152  C1174   1.424   .     S
C1153  C1156   1.461   .     S
C1154  C1167   1.404   .     A
H1155  C1164   1.078   .     S
C1156  C1166   1.393   .     A
C1156  C1167   1.410   .     A
C1157  C1168   1.414   .     A
C1157  C1199   1.443   .     S
C1157  C1158   1.403   .     A
C1158  C556    1.394   1_556 S
C1158  C598    1.447   1_556 S
C1159  H1170   1.077   .     S
C1160  C1161   1.405   .     A
C1160  C556    1.418   1_556 S
C1160  C559    1.425   1_556 S
C1161  C1168   1.424   .     A
C1161  C1165   1.415   .     A
C1162  C1166   1.384   .     A
C1163  C1164   1.394   .     A
C1163  C559    1.421   1_556 S
C1163  C551    1.415   1_556 S
C1164  C1165   1.383   .     A
C1165  C1203   1.448   .     S
C1166  H1169   1.068   .     S
C1167  C1187   1.451   .     S
C1171  C1205   1.445   .     S
C1171  C1178   1.408   .     A
C1171  C770    1.377   1_565 S
C1172  C1174   1.398   .     A
C1172  H1173   1.086   .     S
C1174  C1175   1.405   .     A
C1175  C1189   1.441   .     S
C1176  C1178   1.389   .     A
C1176  H1177   1.078   .     S
C1176  C773    1.369   1_565 S
C1179  H1180   1.082   .     S
C1179  N1186   1.358   .     A
C1179  C1047   1.419   1_655 S
C1181  N1182   1.384   .     A
C1181  N1191   1.431   .     S
N1182  C1183   1.383   .     A
C1183  N1194   1.426   .     S
C1184  N1186   1.355   .     A
C1184  H1185   1.082   .     S
C1184  C1049   1.417   1_655 S
C1187  N1188   1.157   .     T
C1189  N1190   1.155   .     T
N1191  O1193   1.298   .     A
N1191  O1192   1.302   .     A
N1194  O1195   1.298   .     A
N1194  O1196   1.302   .     A
C1197  C551    1.450   1_556 S
C1197  N1064   1.156   1_655 S
C1199  N1200   1.155   .     T
N1202  C1067   1.157   1_655 S
C1203  N1204   1.157   .     T
C1205  N1206   1.157   .     T
