data_str_m2_o1_o17_pcu_sym.171
_audit_creation_date              2020-01-03
_audit_creation_method            'Materials Studio'
_symmetry_space_group_name_H-M    'P1'
_symmetry_Int_Tables_number       1
_symmetry_cell_setting            triclinic
loop_
_symmetry_equiv_pos_as_xyz
  x,y,z
_cell_length_a                    32.8201
_cell_length_b                    28.5847
_cell_length_c                    29.9895
_cell_angle_alpha                 89.9998
_cell_angle_beta                  90.3963
_cell_angle_gamma                 89.9999
loop_
_atom_site_label
_atom_site_type_symbol
_atom_site_fract_x
_atom_site_fract_y
_atom_site_fract_z
_atom_site_U_iso_or_equiv
_atom_site_adp_type
_atom_site_occupancy
C1     C     0.08737   0.16669   0.25008   0.00000  Uiso   1.00
C2     C     0.24596   0.16669   0.24992   0.00000  Uiso   1.00
C3     C     0.09325   0.17415   0.02464   0.00000  Uiso   1.00
C4     C     0.24008   0.17415   0.47535   0.00000  Uiso   1.00
C5     C     0.02109   0.12430   0.24762   0.00000  Uiso   1.00
C6     C     0.31225   0.20936   0.24706   0.00000  Uiso   1.00
C7     C     0.31224   0.12430   0.25238   0.00000  Uiso   1.00
C8     C     0.02108   0.20936   0.25294   0.00000  Uiso   1.00
C9     C     0.29059   0.16677   0.24970   0.00000  Uiso   1.00
C10    C     0.04274   0.16677   0.25031   0.00000  Uiso   1.00
C11    C     0.15169   0.02477   0.21438   0.00000  Uiso   1.00
C12    C     0.18192   0.30857   0.28549   0.00000  Uiso   1.00
C13    C     0.18164   0.02477   0.28562   0.00000  Uiso   1.00
C14    C     0.15141   0.30857   0.21451   0.00000  Uiso   1.00
C15    C     0.16677   0.16666   0.16454   0.00000  Uiso   1.00
C16    C     0.16657   0.16666   0.33545   0.00000  Uiso   1.00
C17    C     0.20206   0.17165   0.40646   0.00000  Uiso   1.00
C18    C     0.13128   0.17165   0.09354   0.00000  Uiso   1.00
C19    C     0.16527   0.16683   0.38362   0.00000  Uiso   1.00
C20    C     0.16807   0.16683   0.11638   0.00000  Uiso   1.00
C21    C     0.12813   0.16201   0.40647   0.00000  Uiso   1.00
C22    C     0.20520   0.16201   0.09353   0.00000  Uiso   1.00
C23    C     0.12805   0.16795   0.45344   0.00000  Uiso   1.00
C24    C     0.20529   0.16795   0.04656   0.00000  Uiso   1.00
C25    C     0.16604   0.16943   0.47653   0.00000  Uiso   1.00
C26    C     0.16729   0.16943   0.02347   0.00000  Uiso   1.00
C27    C     0.20287   0.17111   0.45273   0.00000  Uiso   1.00
C28    C     0.13046   0.17111   0.04727   0.00000  Uiso   1.00
C29    C     0.09170   0.17430   0.47819   0.00000  Uiso   1.00
C30    C     0.24163   0.17430   0.02181   0.00000  Uiso   1.00
Cu31   Cu    0.16667   0.21355   0.25000   0.00000  Uiso   1.00
Cu32   Cu    0.16667   0.11978   0.25000   0.00000  Uiso   1.00
H33    H     0.23024   0.17461   0.38792   0.00000  Uiso   1.00
H34    H     0.10309   0.17461   0.11208   0.00000  Uiso   1.00
H35    H     0.06512   0.17736   0.04307   0.00000  Uiso   1.00
H36    H     0.26821   0.17736   0.45693   0.00000  Uiso   1.00
H37    H     0.13935   0.04323   0.18589   0.00000  Uiso   1.00
H38    H     0.19451   0.29010   0.31386   0.00000  Uiso   1.00
H39    H     0.19398   0.04323   0.31411   0.00000  Uiso   1.00
H40    H     0.13882   0.29010   0.18614   0.00000  Uiso   1.00
N41    N     0.16667   0.28402   0.25000   0.00000  Uiso   1.00
N42    N     0.16667   0.04931   0.25000   0.00000  Uiso   1.00
O43    O     0.10655   0.20625   0.24999   0.00000  Uiso   1.00
O44    O     0.22679   0.12709   0.25000   0.00000  Uiso   1.00
O45    O     0.22679   0.20625   0.25000   0.00000  Uiso   1.00
O46    O     0.10655   0.12709   0.24999   0.00000  Uiso   1.00
O47    O     0.16666   0.20627   0.18513   0.00000  Uiso   1.00
O48    O     0.16668   0.12707   0.31487   0.00000  Uiso   1.00
O49    O     0.16668   0.20627   0.31487   0.00000  Uiso   1.00
O50    O     0.16666   0.12707   0.18513   0.00000  Uiso   1.00
C51    C     0.09125   0.14717   0.38094   0.00000  Uiso   1.00
H52    H     0.08644   0.15916   0.34706   0.00000  Uiso   1.00
O53    O     0.06735   0.11888   0.39645   0.00000  Uiso   1.00
C54    C     0.24209   0.14718   0.11906   0.00000  Uiso   1.00
H55    H     0.24689   0.15916   0.15294   0.00000  Uiso   1.00
O56    O     0.26598   0.11888   0.10355   0.00000  Uiso   1.00
O57    O     0.05448   0.18292   0.45792   0.00000  Uiso   1.00
C58    C     0.05248   0.23087   0.44655   0.00000  Uiso   1.00
H59    H     0.07621   0.24007   0.42165   0.00000  Uiso   1.00
H60    H     0.05642   0.25338   0.47663   0.00000  Uiso   1.00
C61    C     0.01103   0.24143   0.42597   0.00000  Uiso   1.00
H62    H     0.32020   0.23621   0.45117   0.00000  Uiso   1.00
H63    H     0.01006   0.27831   0.41438   0.00000  Uiso   1.00
H64    H     0.00526   0.21797   0.39707   0.00000  Uiso   1.00
O65    O     0.27885   0.18292   0.04208   0.00000  Uiso   1.00
C66    C     0.28085   0.23087   0.05345   0.00000  Uiso   1.00
H67    H     0.25713   0.24007   0.07834   0.00000  Uiso   1.00
H68    H     0.27692   0.25338   0.02337   0.00000  Uiso   1.00
C69    C     0.32231   0.24142   0.07403   0.00000  Uiso   1.00
H70    H     0.01314   0.23621   0.04883   0.00000  Uiso   1.00
H71    H     0.32328   0.27831   0.08561   0.00000  Uiso   1.00
H72    H     0.32807   0.21797   0.10293   0.00000  Uiso   1.00
O73    O     0.04080   0.08177   0.24365   0.00000  Uiso   1.00
C74    C     0.03926   0.06744   0.19851   0.00000  Uiso   1.00
H75    H     0.06504   0.08342   0.18007   0.00000  Uiso   1.00
H76    H     0.01018   0.07701   0.18121   0.00000  Uiso   1.00
C77    C     0.04304   0.01457   0.19648   0.00000  Uiso   1.00
H78    H     0.01732   0.33185   0.21450   0.00000  Uiso   1.00
H79    H     0.04270   0.00254   0.16127   0.00000  Uiso   1.00
H80    H     0.07154   0.00301   0.21288   0.00000  Uiso   1.00
O81    O     0.29255   0.25159   0.24035   0.00000  Uiso   1.00
C82    C     0.29078   0.26003   0.19390   0.00000  Uiso   1.00
H83    H     0.27558   0.23071   0.17591   0.00000  Uiso   1.00
H84    H     0.32190   0.26470   0.18009   0.00000  Uiso   1.00
C85    C     0.26617   0.30412   0.18474   0.00000  Uiso   1.00
H86    H     0.26561   0.31140   0.14836   0.00000  Uiso   1.00
H87    H     0.23449   0.29923   0.19631   0.00000  Uiso   1.00
H88    H     0.27971   0.00123   0.20230   0.00000  Uiso   1.00
O89    O     0.29253   0.08177   0.25635   0.00000  Uiso   1.00
C90    C     0.29407   0.06744   0.30149   0.00000  Uiso   1.00
H91    H     0.26829   0.08342   0.31993   0.00000  Uiso   1.00
H92    H     0.32315   0.07701   0.31879   0.00000  Uiso   1.00
C93    C     0.29029   0.01458   0.30353   0.00000  Uiso   1.00
H94    H     0.31601   0.33184   0.28552   0.00000  Uiso   1.00
H95    H     0.29061   0.00255   0.33873   0.00000  Uiso   1.00
H96    H     0.26179   0.00302   0.28712   0.00000  Uiso   1.00
O97    O     0.04078   0.25159   0.25965   0.00000  Uiso   1.00
C98    C     0.04256   0.26003   0.30610   0.00000  Uiso   1.00
H99    H     0.05776   0.23071   0.32409   0.00000  Uiso   1.00
H100   H     0.01144   0.26469   0.31992   0.00000  Uiso   1.00
C101   C     0.06717   0.30412   0.31526   0.00000  Uiso   1.00
H102   H     0.05362   0.00123   0.29771   0.00000  Uiso   1.00
H103   H     0.06775   0.31138   0.35163   0.00000  Uiso   1.00
H104   H     0.09884   0.29924   0.30366   0.00000  Uiso   1.00
C105   C     0.42070   0.16669   0.25008   0.00000  Uiso   1.00
C106   C     0.57930   0.16669   0.24992   0.00000  Uiso   1.00
C107   C     0.42659   0.17415   0.02464   0.00000  Uiso   1.00
C108   C     0.57341   0.17415   0.47535   0.00000  Uiso   1.00
C109   C     0.35443   0.12430   0.24762   0.00000  Uiso   1.00
C110   C     0.64559   0.20936   0.24706   0.00000  Uiso   1.00
C111   C     0.64557   0.12430   0.25238   0.00000  Uiso   1.00
C112   C     0.35441   0.20936   0.25294   0.00000  Uiso   1.00
C113   C     0.62392   0.16677   0.24970   0.00000  Uiso   1.00
C114   C     0.37608   0.16677   0.25031   0.00000  Uiso   1.00
C115   C     0.48503   0.02477   0.21438   0.00000  Uiso   1.00
C116   C     0.51526   0.30857   0.28549   0.00000  Uiso   1.00
C117   C     0.51497   0.02477   0.28562   0.00000  Uiso   1.00
C118   C     0.48474   0.30857   0.21451   0.00000  Uiso   1.00
C119   C     0.50010   0.16666   0.16454   0.00000  Uiso   1.00
C120   C     0.49990   0.16666   0.33545   0.00000  Uiso   1.00
C121   C     0.53539   0.17165   0.40646   0.00000  Uiso   1.00
C122   C     0.46461   0.17165   0.09354   0.00000  Uiso   1.00
C123   C     0.49860   0.16683   0.38362   0.00000  Uiso   1.00
C124   C     0.50140   0.16683   0.11638   0.00000  Uiso   1.00
C125   C     0.46146   0.16201   0.40647   0.00000  Uiso   1.00
C126   C     0.53854   0.16201   0.09353   0.00000  Uiso   1.00
C127   C     0.46138   0.16795   0.45344   0.00000  Uiso   1.00
C128   C     0.53862   0.16795   0.04656   0.00000  Uiso   1.00
C129   C     0.49937   0.16943   0.47653   0.00000  Uiso   1.00
C130   C     0.50063   0.16943   0.02347   0.00000  Uiso   1.00
C131   C     0.53621   0.17111   0.45273   0.00000  Uiso   1.00
C132   C     0.46379   0.17111   0.04727   0.00000  Uiso   1.00
C133   C     0.42503   0.17430   0.47819   0.00000  Uiso   1.00
C134   C     0.57497   0.17430   0.02181   0.00000  Uiso   1.00
Cu135  Cu    0.50000   0.21355   0.25000   0.00000  Uiso   1.00
Cu136  Cu    0.50000   0.11978   0.25000   0.00000  Uiso   1.00
H137   H     0.56358   0.17461   0.38792   0.00000  Uiso   1.00
H138   H     0.43642   0.17461   0.11208   0.00000  Uiso   1.00
H139   H     0.39845   0.17736   0.04307   0.00000  Uiso   1.00
H140   H     0.60155   0.17736   0.45693   0.00000  Uiso   1.00
H141   H     0.47269   0.04323   0.18589   0.00000  Uiso   1.00
H142   H     0.52785   0.29010   0.31386   0.00000  Uiso   1.00
H143   H     0.52731   0.04323   0.31411   0.00000  Uiso   1.00
H144   H     0.47215   0.29010   0.18614   0.00000  Uiso   1.00
N145   N     0.50000   0.28402   0.25000   0.00000  Uiso   1.00
N146   N     0.50000   0.04931   0.25000   0.00000  Uiso   1.00
O147   O     0.43988   0.20625   0.24999   0.00000  Uiso   1.00
O148   O     0.56012   0.12709   0.25000   0.00000  Uiso   1.00
O149   O     0.56012   0.20625   0.25000   0.00000  Uiso   1.00
O150   O     0.43988   0.12709   0.24999   0.00000  Uiso   1.00
O151   O     0.49999   0.20627   0.18513   0.00000  Uiso   1.00
O152   O     0.50001   0.12707   0.31487   0.00000  Uiso   1.00
O153   O     0.50001   0.20627   0.31487   0.00000  Uiso   1.00
O154   O     0.49999   0.12707   0.18513   0.00000  Uiso   1.00
C155   C     0.42458   0.14717   0.38094   0.00000  Uiso   1.00
H156   H     0.41977   0.15916   0.34706   0.00000  Uiso   1.00
O157   O     0.40068   0.11888   0.39645   0.00000  Uiso   1.00
C158   C     0.57542   0.14718   0.11906   0.00000  Uiso   1.00
H159   H     0.58023   0.15916   0.15294   0.00000  Uiso   1.00
O160   O     0.59932   0.11888   0.10355   0.00000  Uiso   1.00
O161   O     0.38781   0.18292   0.45792   0.00000  Uiso   1.00
C162   C     0.38581   0.23087   0.44655   0.00000  Uiso   1.00
H163   H     0.40954   0.24007   0.42165   0.00000  Uiso   1.00
H164   H     0.38975   0.25338   0.47663   0.00000  Uiso   1.00
C165   C     0.34436   0.24143   0.42597   0.00000  Uiso   1.00
H166   H     0.65353   0.23621   0.45117   0.00000  Uiso   1.00
H167   H     0.34339   0.27831   0.41438   0.00000  Uiso   1.00
H168   H     0.33859   0.21797   0.39707   0.00000  Uiso   1.00
O169   O     0.61219   0.18292   0.04208   0.00000  Uiso   1.00
C170   C     0.61419   0.23087   0.05345   0.00000  Uiso   1.00
H171   H     0.59046   0.24007   0.07834   0.00000  Uiso   1.00
H172   H     0.61025   0.25338   0.02337   0.00000  Uiso   1.00
C173   C     0.65564   0.24142   0.07403   0.00000  Uiso   1.00
H174   H     0.34647   0.23621   0.04883   0.00000  Uiso   1.00
H175   H     0.65661   0.27831   0.08561   0.00000  Uiso   1.00
H176   H     0.66141   0.21797   0.10293   0.00000  Uiso   1.00
O177   O     0.37413   0.08177   0.24365   0.00000  Uiso   1.00
C178   C     0.37260   0.06744   0.19851   0.00000  Uiso   1.00
H179   H     0.39838   0.08342   0.18007   0.00000  Uiso   1.00
H180   H     0.34351   0.07701   0.18121   0.00000  Uiso   1.00
C181   C     0.37637   0.01457   0.19648   0.00000  Uiso   1.00
H182   H     0.35065   0.33185   0.21450   0.00000  Uiso   1.00
H183   H     0.37603   0.00254   0.16127   0.00000  Uiso   1.00
H184   H     0.40487   0.00301   0.21288   0.00000  Uiso   1.00
O185   O     0.62588   0.25159   0.24035   0.00000  Uiso   1.00
C186   C     0.62411   0.26003   0.19390   0.00000  Uiso   1.00
H187   H     0.60891   0.23071   0.17591   0.00000  Uiso   1.00
H188   H     0.65523   0.26470   0.18009   0.00000  Uiso   1.00
C189   C     0.59950   0.30412   0.18474   0.00000  Uiso   1.00
H190   H     0.59894   0.31140   0.14836   0.00000  Uiso   1.00
H191   H     0.56782   0.29923   0.19631   0.00000  Uiso   1.00
H192   H     0.61304   0.00123   0.20230   0.00000  Uiso   1.00
O193   O     0.62587   0.08177   0.25635   0.00000  Uiso   1.00
C194   C     0.62740   0.06744   0.30149   0.00000  Uiso   1.00
H195   H     0.60162   0.08342   0.31993   0.00000  Uiso   1.00
H196   H     0.65648   0.07701   0.31879   0.00000  Uiso   1.00
C197   C     0.62362   0.01458   0.30353   0.00000  Uiso   1.00
H198   H     0.64934   0.33184   0.28552   0.00000  Uiso   1.00
H199   H     0.62394   0.00255   0.33873   0.00000  Uiso   1.00
H200   H     0.59513   0.00302   0.28712   0.00000  Uiso   1.00
O201   O     0.37412   0.25159   0.25965   0.00000  Uiso   1.00
C202   C     0.37590   0.26003   0.30610   0.00000  Uiso   1.00
H203   H     0.39109   0.23071   0.32409   0.00000  Uiso   1.00
H204   H     0.34477   0.26469   0.31992   0.00000  Uiso   1.00
C205   C     0.40050   0.30412   0.31526   0.00000  Uiso   1.00
H206   H     0.38695   0.00123   0.29771   0.00000  Uiso   1.00
H207   H     0.40108   0.31138   0.35163   0.00000  Uiso   1.00
H208   H     0.43217   0.29924   0.30366   0.00000  Uiso   1.00
C209   C     0.75404   0.16669   0.25008   0.00000  Uiso   1.00
C210   C     0.91263   0.16669   0.24992   0.00000  Uiso   1.00
C211   C     0.75992   0.17415   0.02464   0.00000  Uiso   1.00
C212   C     0.90675   0.17415   0.47535   0.00000  Uiso   1.00
C213   C     0.68776   0.12430   0.24762   0.00000  Uiso   1.00
C214   C     0.97892   0.20936   0.24706   0.00000  Uiso   1.00
C215   C     0.97891   0.12430   0.25238   0.00000  Uiso   1.00
C216   C     0.68775   0.20936   0.25294   0.00000  Uiso   1.00
C217   C     0.95726   0.16677   0.24970   0.00000  Uiso   1.00
C218   C     0.70941   0.16677   0.25031   0.00000  Uiso   1.00
C219   C     0.81836   0.02477   0.21438   0.00000  Uiso   1.00
C220   C     0.84859   0.30857   0.28549   0.00000  Uiso   1.00
C221   C     0.84831   0.02477   0.28562   0.00000  Uiso   1.00
C222   C     0.81808   0.30857   0.21451   0.00000  Uiso   1.00
C223   C     0.83343   0.16666   0.16454   0.00000  Uiso   1.00
C224   C     0.83323   0.16666   0.33545   0.00000  Uiso   1.00
C225   C     0.86872   0.17165   0.40646   0.00000  Uiso   1.00
C226   C     0.79794   0.17165   0.09354   0.00000  Uiso   1.00
C227   C     0.83193   0.16683   0.38362   0.00000  Uiso   1.00
C228   C     0.83473   0.16683   0.11638   0.00000  Uiso   1.00
C229   C     0.79479   0.16201   0.40647   0.00000  Uiso   1.00
C230   C     0.87187   0.16201   0.09353   0.00000  Uiso   1.00
C231   C     0.79471   0.16795   0.45344   0.00000  Uiso   1.00
C232   C     0.87195   0.16795   0.04656   0.00000  Uiso   1.00
C233   C     0.83271   0.16943   0.47653   0.00000  Uiso   1.00
C234   C     0.83396   0.16943   0.02347   0.00000  Uiso   1.00
C235   C     0.86954   0.17111   0.45273   0.00000  Uiso   1.00
C236   C     0.79713   0.17111   0.04727   0.00000  Uiso   1.00
C237   C     0.75837   0.17430   0.47819   0.00000  Uiso   1.00
C238   C     0.90830   0.17430   0.02181   0.00000  Uiso   1.00
Cu239  Cu    0.83333   0.21355   0.25000   0.00000  Uiso   1.00
Cu240  Cu    0.83333   0.11978   0.25000   0.00000  Uiso   1.00
H241   H     0.89691   0.17461   0.38792   0.00000  Uiso   1.00
H242   H     0.76975   0.17461   0.11208   0.00000  Uiso   1.00
H243   H     0.73179   0.17736   0.04307   0.00000  Uiso   1.00
H244   H     0.93488   0.17736   0.45693   0.00000  Uiso   1.00
H245   H     0.80602   0.04323   0.18589   0.00000  Uiso   1.00
H246   H     0.86118   0.29010   0.31386   0.00000  Uiso   1.00
H247   H     0.86065   0.04323   0.31411   0.00000  Uiso   1.00
H248   H     0.80549   0.29010   0.18614   0.00000  Uiso   1.00
N249   N     0.83333   0.28402   0.25000   0.00000  Uiso   1.00
N250   N     0.83333   0.04931   0.25000   0.00000  Uiso   1.00
O251   O     0.77321   0.20625   0.24999   0.00000  Uiso   1.00
O252   O     0.89345   0.12709   0.25000   0.00000  Uiso   1.00
O253   O     0.89345   0.20625   0.25000   0.00000  Uiso   1.00
O254   O     0.77321   0.12709   0.24999   0.00000  Uiso   1.00
O255   O     0.83332   0.20627   0.18513   0.00000  Uiso   1.00
O256   O     0.83334   0.12707   0.31487   0.00000  Uiso   1.00
O257   O     0.83334   0.20627   0.31487   0.00000  Uiso   1.00
O258   O     0.83332   0.12707   0.18513   0.00000  Uiso   1.00
C259   C     0.75791   0.14717   0.38094   0.00000  Uiso   1.00
H260   H     0.75311   0.15916   0.34706   0.00000  Uiso   1.00
O261   O     0.73402   0.11888   0.39645   0.00000  Uiso   1.00
C262   C     0.90875   0.14718   0.11906   0.00000  Uiso   1.00
H263   H     0.91356   0.15916   0.15294   0.00000  Uiso   1.00
O264   O     0.93265   0.11888   0.10355   0.00000  Uiso   1.00
O265   O     0.72114   0.18292   0.45792   0.00000  Uiso   1.00
C266   C     0.71915   0.23087   0.44655   0.00000  Uiso   1.00
H267   H     0.74287   0.24007   0.42165   0.00000  Uiso   1.00
H268   H     0.72308   0.25338   0.47663   0.00000  Uiso   1.00
C269   C     0.67769   0.24143   0.42597   0.00000  Uiso   1.00
H270   H     0.98686   0.23621   0.45117   0.00000  Uiso   1.00
H271   H     0.67673   0.27831   0.41438   0.00000  Uiso   1.00
H272   H     0.67193   0.21797   0.39707   0.00000  Uiso   1.00
O273   O     0.94552   0.18292   0.04208   0.00000  Uiso   1.00
C274   C     0.94752   0.23087   0.05345   0.00000  Uiso   1.00
H275   H     0.92380   0.24007   0.07834   0.00000  Uiso   1.00
H276   H     0.94358   0.25338   0.02337   0.00000  Uiso   1.00
C277   C     0.98898   0.24142   0.07403   0.00000  Uiso   1.00
H278   H     0.67980   0.23621   0.04883   0.00000  Uiso   1.00
H279   H     0.98994   0.27831   0.08561   0.00000  Uiso   1.00
H280   H     0.99474   0.21797   0.10293   0.00000  Uiso   1.00
O281   O     0.70747   0.08177   0.24365   0.00000  Uiso   1.00
C282   C     0.70593   0.06744   0.19851   0.00000  Uiso   1.00
H283   H     0.73171   0.08342   0.18007   0.00000  Uiso   1.00
H284   H     0.67685   0.07701   0.18121   0.00000  Uiso   1.00
C285   C     0.70970   0.01457   0.19648   0.00000  Uiso   1.00
H286   H     0.68399   0.33185   0.21450   0.00000  Uiso   1.00
H287   H     0.70937   0.00254   0.16127   0.00000  Uiso   1.00
H288   H     0.73820   0.00301   0.21288   0.00000  Uiso   1.00
O289   O     0.95922   0.25159   0.24035   0.00000  Uiso   1.00
C290   C     0.95744   0.26003   0.19390   0.00000  Uiso   1.00
H291   H     0.94225   0.23071   0.17591   0.00000  Uiso   1.00
H292   H     0.98857   0.26470   0.18009   0.00000  Uiso   1.00
C293   C     0.93283   0.30412   0.18474   0.00000  Uiso   1.00
H294   H     0.93228   0.31140   0.14836   0.00000  Uiso   1.00
H295   H     0.90116   0.29923   0.19631   0.00000  Uiso   1.00
H296   H     0.94637   0.00123   0.20230   0.00000  Uiso   1.00
O297   O     0.95920   0.08177   0.25635   0.00000  Uiso   1.00
C298   C     0.96073   0.06744   0.30149   0.00000  Uiso   1.00
H299   H     0.93496   0.08342   0.31993   0.00000  Uiso   1.00
H300   H     0.98982   0.07701   0.31879   0.00000  Uiso   1.00
C301   C     0.95696   0.01458   0.30353   0.00000  Uiso   1.00
H302   H     0.98268   0.33184   0.28552   0.00000  Uiso   1.00
H303   H     0.95728   0.00255   0.33873   0.00000  Uiso   1.00
H304   H     0.92846   0.00302   0.28712   0.00000  Uiso   1.00
O305   O     0.70745   0.25159   0.25965   0.00000  Uiso   1.00
C306   C     0.70923   0.26003   0.30610   0.00000  Uiso   1.00
H307   H     0.72443   0.23071   0.32409   0.00000  Uiso   1.00
H308   H     0.67811   0.26469   0.31992   0.00000  Uiso   1.00
C309   C     0.73384   0.30412   0.31526   0.00000  Uiso   1.00
H310   H     0.72028   0.00123   0.29771   0.00000  Uiso   1.00
H311   H     0.73441   0.31138   0.35163   0.00000  Uiso   1.00
H312   H     0.76551   0.29924   0.30366   0.00000  Uiso   1.00
C313   C     0.08737   0.50002   0.25008   0.00000  Uiso   1.00
C314   C     0.24596   0.50002   0.24992   0.00000  Uiso   1.00
C315   C     0.09325   0.50748   0.02464   0.00000  Uiso   1.00
C316   C     0.24008   0.50748   0.47535   0.00000  Uiso   1.00
C317   C     0.02109   0.45763   0.24762   0.00000  Uiso   1.00
C318   C     0.31225   0.54269   0.24706   0.00000  Uiso   1.00
C319   C     0.31224   0.45763   0.25238   0.00000  Uiso   1.00
C320   C     0.02108   0.54269   0.25294   0.00000  Uiso   1.00
C321   C     0.29059   0.50011   0.24970   0.00000  Uiso   1.00
C322   C     0.04274   0.50011   0.25031   0.00000  Uiso   1.00
C323   C     0.15169   0.35810   0.21438   0.00000  Uiso   1.00
C324   C     0.18192   0.64190   0.28549   0.00000  Uiso   1.00
C325   C     0.18164   0.35810   0.28562   0.00000  Uiso   1.00
C326   C     0.15141   0.64190   0.21451   0.00000  Uiso   1.00
C327   C     0.16677   0.49999   0.16454   0.00000  Uiso   1.00
C328   C     0.16657   0.49999   0.33545   0.00000  Uiso   1.00
C329   C     0.20206   0.50498   0.40646   0.00000  Uiso   1.00
C330   C     0.13128   0.50498   0.09354   0.00000  Uiso   1.00
C331   C     0.16527   0.50017   0.38362   0.00000  Uiso   1.00
C332   C     0.16807   0.50017   0.11638   0.00000  Uiso   1.00
C333   C     0.12813   0.49534   0.40647   0.00000  Uiso   1.00
C334   C     0.20520   0.49534   0.09353   0.00000  Uiso   1.00
C335   C     0.12805   0.50129   0.45344   0.00000  Uiso   1.00
C336   C     0.20529   0.50129   0.04656   0.00000  Uiso   1.00
C337   C     0.16604   0.50276   0.47653   0.00000  Uiso   1.00
C338   C     0.16729   0.50276   0.02347   0.00000  Uiso   1.00
C339   C     0.20287   0.50444   0.45273   0.00000  Uiso   1.00
C340   C     0.13046   0.50444   0.04727   0.00000  Uiso   1.00
C341   C     0.09170   0.50764   0.47819   0.00000  Uiso   1.00
C342   C     0.24163   0.50764   0.02181   0.00000  Uiso   1.00
Cu343  Cu    0.16667   0.54689   0.25000   0.00000  Uiso   1.00
Cu344  Cu    0.16667   0.45311   0.25000   0.00000  Uiso   1.00
H345   H     0.23024   0.50794   0.38792   0.00000  Uiso   1.00
H346   H     0.10309   0.50794   0.11208   0.00000  Uiso   1.00
H347   H     0.06512   0.51069   0.04307   0.00000  Uiso   1.00
H348   H     0.26821   0.51069   0.45693   0.00000  Uiso   1.00
H349   H     0.13935   0.37656   0.18589   0.00000  Uiso   1.00
H350   H     0.19451   0.62344   0.31386   0.00000  Uiso   1.00
H351   H     0.19398   0.37656   0.31411   0.00000  Uiso   1.00
H352   H     0.13882   0.62344   0.18614   0.00000  Uiso   1.00
N353   N     0.16667   0.61736   0.25000   0.00000  Uiso   1.00
N354   N     0.16667   0.38264   0.25000   0.00000  Uiso   1.00
O355   O     0.10655   0.53958   0.24999   0.00000  Uiso   1.00
O356   O     0.22679   0.46042   0.25000   0.00000  Uiso   1.00
O357   O     0.22679   0.53958   0.25000   0.00000  Uiso   1.00
O358   O     0.10655   0.46042   0.24999   0.00000  Uiso   1.00
O359   O     0.16666   0.53960   0.18513   0.00000  Uiso   1.00
O360   O     0.16668   0.46040   0.31487   0.00000  Uiso   1.00
O361   O     0.16668   0.53960   0.31487   0.00000  Uiso   1.00
O362   O     0.16666   0.46040   0.18513   0.00000  Uiso   1.00
C363   C     0.09125   0.48051   0.38094   0.00000  Uiso   1.00
H364   H     0.08644   0.49249   0.34706   0.00000  Uiso   1.00
O365   O     0.06735   0.45221   0.39645   0.00000  Uiso   1.00
C366   C     0.24209   0.48051   0.11906   0.00000  Uiso   1.00
H367   H     0.24689   0.49249   0.15294   0.00000  Uiso   1.00
O368   O     0.26598   0.45221   0.10355   0.00000  Uiso   1.00
O369   O     0.05448   0.51626   0.45792   0.00000  Uiso   1.00
C370   C     0.05248   0.56420   0.44655   0.00000  Uiso   1.00
H371   H     0.07621   0.57340   0.42165   0.00000  Uiso   1.00
H372   H     0.05642   0.58671   0.47663   0.00000  Uiso   1.00
C373   C     0.01103   0.57476   0.42597   0.00000  Uiso   1.00
H374   H     0.32020   0.56955   0.45117   0.00000  Uiso   1.00
H375   H     0.01006   0.61165   0.41438   0.00000  Uiso   1.00
H376   H     0.00526   0.55130   0.39707   0.00000  Uiso   1.00
O377   O     0.27885   0.51626   0.04208   0.00000  Uiso   1.00
C378   C     0.28085   0.56420   0.05345   0.00000  Uiso   1.00
H379   H     0.25713   0.57340   0.07834   0.00000  Uiso   1.00
H380   H     0.27692   0.58671   0.02337   0.00000  Uiso   1.00
C381   C     0.32231   0.57476   0.07403   0.00000  Uiso   1.00
H382   H     0.01314   0.56954   0.04883   0.00000  Uiso   1.00
H383   H     0.32328   0.61165   0.08561   0.00000  Uiso   1.00
H384   H     0.32807   0.55130   0.10293   0.00000  Uiso   1.00
O385   O     0.04080   0.41510   0.24365   0.00000  Uiso   1.00
C386   C     0.03926   0.40078   0.19851   0.00000  Uiso   1.00
H387   H     0.06504   0.41675   0.18007   0.00000  Uiso   1.00
H388   H     0.01018   0.41034   0.18121   0.00000  Uiso   1.00
C389   C     0.04304   0.34791   0.19648   0.00000  Uiso   1.00
H390   H     0.01732   0.66518   0.21450   0.00000  Uiso   1.00
H391   H     0.04270   0.33587   0.16127   0.00000  Uiso   1.00
H392   H     0.07154   0.33635   0.21288   0.00000  Uiso   1.00
O393   O     0.29255   0.58492   0.24035   0.00000  Uiso   1.00
C394   C     0.29078   0.59336   0.19390   0.00000  Uiso   1.00
H395   H     0.27558   0.56405   0.17591   0.00000  Uiso   1.00
H396   H     0.32190   0.59803   0.18009   0.00000  Uiso   1.00
C397   C     0.26617   0.63746   0.18474   0.00000  Uiso   1.00
H398   H     0.26561   0.64473   0.14836   0.00000  Uiso   1.00
H399   H     0.23449   0.63257   0.19631   0.00000  Uiso   1.00
H400   H     0.27971   0.33456   0.20230   0.00000  Uiso   1.00
O401   O     0.29253   0.41510   0.25635   0.00000  Uiso   1.00
C402   C     0.29407   0.40078   0.30149   0.00000  Uiso   1.00
H403   H     0.26829   0.41676   0.31993   0.00000  Uiso   1.00
H404   H     0.32315   0.41034   0.31879   0.00000  Uiso   1.00
C405   C     0.29029   0.34791   0.30353   0.00000  Uiso   1.00
H406   H     0.31601   0.66518   0.28552   0.00000  Uiso   1.00
H407   H     0.29061   0.33588   0.33873   0.00000  Uiso   1.00
H408   H     0.26179   0.33635   0.28712   0.00000  Uiso   1.00
O409   O     0.04078   0.58492   0.25965   0.00000  Uiso   1.00
C410   C     0.04256   0.59336   0.30610   0.00000  Uiso   1.00
H411   H     0.05776   0.56405   0.32409   0.00000  Uiso   1.00
H412   H     0.01144   0.59803   0.31992   0.00000  Uiso   1.00
C413   C     0.06717   0.63745   0.31526   0.00000  Uiso   1.00
H414   H     0.05362   0.33457   0.29771   0.00000  Uiso   1.00
H415   H     0.06775   0.64472   0.35163   0.00000  Uiso   1.00
H416   H     0.09884   0.63257   0.30366   0.00000  Uiso   1.00
C417   C     0.42070   0.50002   0.25008   0.00000  Uiso   1.00
C418   C     0.57930   0.50002   0.24992   0.00000  Uiso   1.00
C419   C     0.42659   0.50748   0.02464   0.00000  Uiso   1.00
C420   C     0.57341   0.50748   0.47535   0.00000  Uiso   1.00
C421   C     0.35443   0.45763   0.24762   0.00000  Uiso   1.00
C422   C     0.64559   0.54269   0.24706   0.00000  Uiso   1.00
C423   C     0.64557   0.45763   0.25238   0.00000  Uiso   1.00
C424   C     0.35441   0.54269   0.25294   0.00000  Uiso   1.00
C425   C     0.62392   0.50011   0.24970   0.00000  Uiso   1.00
C426   C     0.37608   0.50011   0.25031   0.00000  Uiso   1.00
C427   C     0.48503   0.35810   0.21438   0.00000  Uiso   1.00
C428   C     0.51526   0.64190   0.28549   0.00000  Uiso   1.00
C429   C     0.51497   0.35810   0.28562   0.00000  Uiso   1.00
C430   C     0.48474   0.64190   0.21451   0.00000  Uiso   1.00
C431   C     0.50010   0.49999   0.16454   0.00000  Uiso   1.00
C432   C     0.49990   0.49999   0.33545   0.00000  Uiso   1.00
C433   C     0.53539   0.50498   0.40646   0.00000  Uiso   1.00
C434   C     0.46461   0.50498   0.09354   0.00000  Uiso   1.00
C435   C     0.49860   0.50017   0.38362   0.00000  Uiso   1.00
C436   C     0.50140   0.50017   0.11638   0.00000  Uiso   1.00
C437   C     0.46146   0.49534   0.40647   0.00000  Uiso   1.00
C438   C     0.53854   0.49534   0.09353   0.00000  Uiso   1.00
C439   C     0.46138   0.50129   0.45344   0.00000  Uiso   1.00
C440   C     0.53862   0.50129   0.04656   0.00000  Uiso   1.00
C441   C     0.49937   0.50276   0.47653   0.00000  Uiso   1.00
C442   C     0.50063   0.50276   0.02347   0.00000  Uiso   1.00
C443   C     0.53621   0.50444   0.45273   0.00000  Uiso   1.00
C444   C     0.46379   0.50444   0.04727   0.00000  Uiso   1.00
C445   C     0.42503   0.50764   0.47819   0.00000  Uiso   1.00
C446   C     0.57497   0.50764   0.02181   0.00000  Uiso   1.00
Cu447  Cu    0.50000   0.54689   0.25000   0.00000  Uiso   1.00
Cu448  Cu    0.50000   0.45311   0.25000   0.00000  Uiso   1.00
H449   H     0.56358   0.50794   0.38792   0.00000  Uiso   1.00
H450   H     0.43642   0.50794   0.11208   0.00000  Uiso   1.00
H451   H     0.39845   0.51069   0.04307   0.00000  Uiso   1.00
H452   H     0.60155   0.51069   0.45693   0.00000  Uiso   1.00
H453   H     0.47269   0.37656   0.18589   0.00000  Uiso   1.00
H454   H     0.52785   0.62344   0.31386   0.00000  Uiso   1.00
H455   H     0.52731   0.37656   0.31411   0.00000  Uiso   1.00
H456   H     0.47215   0.62344   0.18614   0.00000  Uiso   1.00
N457   N     0.50000   0.61736   0.25000   0.00000  Uiso   1.00
N458   N     0.50000   0.38264   0.25000   0.00000  Uiso   1.00
O459   O     0.43988   0.53958   0.24999   0.00000  Uiso   1.00
O460   O     0.56012   0.46042   0.25000   0.00000  Uiso   1.00
O461   O     0.56012   0.53958   0.25000   0.00000  Uiso   1.00
O462   O     0.43988   0.46042   0.24999   0.00000  Uiso   1.00
O463   O     0.49999   0.53960   0.18513   0.00000  Uiso   1.00
O464   O     0.50001   0.46040   0.31487   0.00000  Uiso   1.00
O465   O     0.50001   0.53960   0.31487   0.00000  Uiso   1.00
O466   O     0.49999   0.46040   0.18513   0.00000  Uiso   1.00
C467   C     0.42458   0.48051   0.38094   0.00000  Uiso   1.00
H468   H     0.41977   0.49249   0.34706   0.00000  Uiso   1.00
O469   O     0.40068   0.45221   0.39645   0.00000  Uiso   1.00
C470   C     0.57542   0.48051   0.11906   0.00000  Uiso   1.00
H471   H     0.58023   0.49249   0.15294   0.00000  Uiso   1.00
O472   O     0.59932   0.45221   0.10355   0.00000  Uiso   1.00
O473   O     0.38781   0.51626   0.45792   0.00000  Uiso   1.00
C474   C     0.38581   0.56420   0.44655   0.00000  Uiso   1.00
H475   H     0.40954   0.57340   0.42165   0.00000  Uiso   1.00
H476   H     0.38975   0.58671   0.47663   0.00000  Uiso   1.00
C477   C     0.34436   0.57476   0.42597   0.00000  Uiso   1.00
H478   H     0.65353   0.56955   0.45117   0.00000  Uiso   1.00
H479   H     0.34339   0.61165   0.41438   0.00000  Uiso   1.00
H480   H     0.33859   0.55130   0.39707   0.00000  Uiso   1.00
O481   O     0.61219   0.51626   0.04208   0.00000  Uiso   1.00
C482   C     0.61419   0.56420   0.05345   0.00000  Uiso   1.00
H483   H     0.59046   0.57340   0.07834   0.00000  Uiso   1.00
H484   H     0.61025   0.58671   0.02337   0.00000  Uiso   1.00
C485   C     0.65564   0.57476   0.07403   0.00000  Uiso   1.00
H486   H     0.34647   0.56954   0.04883   0.00000  Uiso   1.00
H487   H     0.65661   0.61165   0.08561   0.00000  Uiso   1.00
H488   H     0.66141   0.55130   0.10293   0.00000  Uiso   1.00
O489   O     0.37413   0.41510   0.24365   0.00000  Uiso   1.00
C490   C     0.37260   0.40078   0.19851   0.00000  Uiso   1.00
H491   H     0.39838   0.41675   0.18007   0.00000  Uiso   1.00
H492   H     0.34351   0.41034   0.18121   0.00000  Uiso   1.00
C493   C     0.37637   0.34791   0.19648   0.00000  Uiso   1.00
H494   H     0.35065   0.66518   0.21450   0.00000  Uiso   1.00
H495   H     0.37603   0.33587   0.16127   0.00000  Uiso   1.00
H496   H     0.40487   0.33635   0.21288   0.00000  Uiso   1.00
O497   O     0.62588   0.58492   0.24035   0.00000  Uiso   1.00
C498   C     0.62411   0.59336   0.19390   0.00000  Uiso   1.00
H499   H     0.60891   0.56405   0.17591   0.00000  Uiso   1.00
H500   H     0.65523   0.59803   0.18009   0.00000  Uiso   1.00
C501   C     0.59950   0.63746   0.18474   0.00000  Uiso   1.00
H502   H     0.59894   0.64473   0.14836   0.00000  Uiso   1.00
H503   H     0.56782   0.63257   0.19631   0.00000  Uiso   1.00
H504   H     0.61304   0.33456   0.20230   0.00000  Uiso   1.00
O505   O     0.62587   0.41510   0.25635   0.00000  Uiso   1.00
C506   C     0.62740   0.40078   0.30149   0.00000  Uiso   1.00
H507   H     0.60162   0.41676   0.31993   0.00000  Uiso   1.00
H508   H     0.65648   0.41034   0.31879   0.00000  Uiso   1.00
C509   C     0.62362   0.34791   0.30353   0.00000  Uiso   1.00
H510   H     0.64934   0.66518   0.28552   0.00000  Uiso   1.00
H511   H     0.62394   0.33588   0.33873   0.00000  Uiso   1.00
H512   H     0.59513   0.33635   0.28712   0.00000  Uiso   1.00
O513   O     0.37412   0.58492   0.25965   0.00000  Uiso   1.00
C514   C     0.37590   0.59336   0.30610   0.00000  Uiso   1.00
H515   H     0.39109   0.56405   0.32409   0.00000  Uiso   1.00
H516   H     0.34477   0.59803   0.31992   0.00000  Uiso   1.00
C517   C     0.40050   0.63745   0.31526   0.00000  Uiso   1.00
H518   H     0.38695   0.33457   0.29771   0.00000  Uiso   1.00
H519   H     0.40108   0.64472   0.35163   0.00000  Uiso   1.00
H520   H     0.43217   0.63257   0.30366   0.00000  Uiso   1.00
C521   C     0.75404   0.50002   0.25008   0.00000  Uiso   1.00
C522   C     0.91263   0.50002   0.24992   0.00000  Uiso   1.00
C523   C     0.75992   0.50748   0.02464   0.00000  Uiso   1.00
C524   C     0.90675   0.50748   0.47535   0.00000  Uiso   1.00
C525   C     0.68776   0.45763   0.24762   0.00000  Uiso   1.00
C526   C     0.97892   0.54269   0.24706   0.00000  Uiso   1.00
C527   C     0.97891   0.45763   0.25238   0.00000  Uiso   1.00
C528   C     0.68775   0.54269   0.25294   0.00000  Uiso   1.00
C529   C     0.95726   0.50011   0.24970   0.00000  Uiso   1.00
C530   C     0.70941   0.50011   0.25031   0.00000  Uiso   1.00
C531   C     0.81836   0.35810   0.21438   0.00000  Uiso   1.00
C532   C     0.84859   0.64190   0.28549   0.00000  Uiso   1.00
C533   C     0.84831   0.35810   0.28562   0.00000  Uiso   1.00
C534   C     0.81808   0.64190   0.21451   0.00000  Uiso   1.00
C535   C     0.83343   0.49999   0.16454   0.00000  Uiso   1.00
C536   C     0.83323   0.49999   0.33545   0.00000  Uiso   1.00
C537   C     0.86872   0.50498   0.40646   0.00000  Uiso   1.00
C538   C     0.79794   0.50498   0.09354   0.00000  Uiso   1.00
C539   C     0.83193   0.50017   0.38362   0.00000  Uiso   1.00
C540   C     0.83473   0.50017   0.11638   0.00000  Uiso   1.00
C541   C     0.79479   0.49534   0.40647   0.00000  Uiso   1.00
C542   C     0.87187   0.49534   0.09353   0.00000  Uiso   1.00
C543   C     0.79471   0.50129   0.45344   0.00000  Uiso   1.00
C544   C     0.87195   0.50129   0.04656   0.00000  Uiso   1.00
C545   C     0.83271   0.50276   0.47653   0.00000  Uiso   1.00
C546   C     0.83396   0.50276   0.02347   0.00000  Uiso   1.00
C547   C     0.86954   0.50444   0.45273   0.00000  Uiso   1.00
C548   C     0.79713   0.50444   0.04727   0.00000  Uiso   1.00
C549   C     0.75837   0.50764   0.47819   0.00000  Uiso   1.00
C550   C     0.90830   0.50764   0.02181   0.00000  Uiso   1.00
Cu551  Cu    0.83333   0.54689   0.25000   0.00000  Uiso   1.00
Cu552  Cu    0.83333   0.45311   0.25000   0.00000  Uiso   1.00
H553   H     0.89691   0.50794   0.38792   0.00000  Uiso   1.00
H554   H     0.76975   0.50794   0.11208   0.00000  Uiso   1.00
H555   H     0.73179   0.51069   0.04307   0.00000  Uiso   1.00
H556   H     0.93488   0.51069   0.45693   0.00000  Uiso   1.00
H557   H     0.80602   0.37656   0.18589   0.00000  Uiso   1.00
H558   H     0.86118   0.62344   0.31386   0.00000  Uiso   1.00
H559   H     0.86065   0.37656   0.31411   0.00000  Uiso   1.00
H560   H     0.80549   0.62344   0.18614   0.00000  Uiso   1.00
N561   N     0.83333   0.61736   0.25000   0.00000  Uiso   1.00
N562   N     0.83333   0.38264   0.25000   0.00000  Uiso   1.00
O563   O     0.77321   0.53958   0.24999   0.00000  Uiso   1.00
O564   O     0.89345   0.46042   0.25000   0.00000  Uiso   1.00
O565   O     0.89345   0.53958   0.25000   0.00000  Uiso   1.00
O566   O     0.77321   0.46042   0.24999   0.00000  Uiso   1.00
O567   O     0.83332   0.53960   0.18513   0.00000  Uiso   1.00
O568   O     0.83334   0.46040   0.31487   0.00000  Uiso   1.00
O569   O     0.83334   0.53960   0.31487   0.00000  Uiso   1.00
O570   O     0.83332   0.46040   0.18513   0.00000  Uiso   1.00
C571   C     0.75791   0.48051   0.38094   0.00000  Uiso   1.00
H572   H     0.75311   0.49249   0.34706   0.00000  Uiso   1.00
O573   O     0.73402   0.45221   0.39645   0.00000  Uiso   1.00
C574   C     0.90875   0.48051   0.11906   0.00000  Uiso   1.00
H575   H     0.91356   0.49249   0.15294   0.00000  Uiso   1.00
O576   O     0.93265   0.45221   0.10355   0.00000  Uiso   1.00
O577   O     0.72114   0.51626   0.45792   0.00000  Uiso   1.00
C578   C     0.71915   0.56420   0.44655   0.00000  Uiso   1.00
H579   H     0.74287   0.57340   0.42165   0.00000  Uiso   1.00
H580   H     0.72308   0.58671   0.47663   0.00000  Uiso   1.00
C581   C     0.67769   0.57476   0.42597   0.00000  Uiso   1.00
H582   H     0.98686   0.56955   0.45117   0.00000  Uiso   1.00
H583   H     0.67673   0.61165   0.41438   0.00000  Uiso   1.00
H584   H     0.67193   0.55130   0.39707   0.00000  Uiso   1.00
O585   O     0.94552   0.51626   0.04208   0.00000  Uiso   1.00
C586   C     0.94752   0.56420   0.05345   0.00000  Uiso   1.00
H587   H     0.92380   0.57340   0.07834   0.00000  Uiso   1.00
H588   H     0.94358   0.58671   0.02337   0.00000  Uiso   1.00
C589   C     0.98898   0.57476   0.07403   0.00000  Uiso   1.00
H590   H     0.67980   0.56954   0.04883   0.00000  Uiso   1.00
H591   H     0.98994   0.61165   0.08561   0.00000  Uiso   1.00
H592   H     0.99474   0.55130   0.10293   0.00000  Uiso   1.00
O593   O     0.70747   0.41510   0.24365   0.00000  Uiso   1.00
C594   C     0.70593   0.40078   0.19851   0.00000  Uiso   1.00
H595   H     0.73171   0.41675   0.18007   0.00000  Uiso   1.00
H596   H     0.67685   0.41034   0.18121   0.00000  Uiso   1.00
C597   C     0.70970   0.34791   0.19648   0.00000  Uiso   1.00
H598   H     0.68399   0.66518   0.21450   0.00000  Uiso   1.00
H599   H     0.70937   0.33587   0.16127   0.00000  Uiso   1.00
H600   H     0.73820   0.33635   0.21288   0.00000  Uiso   1.00
O601   O     0.95922   0.58492   0.24035   0.00000  Uiso   1.00
C602   C     0.95744   0.59336   0.19390   0.00000  Uiso   1.00
H603   H     0.94225   0.56405   0.17591   0.00000  Uiso   1.00
H604   H     0.98857   0.59803   0.18009   0.00000  Uiso   1.00
C605   C     0.93283   0.63746   0.18474   0.00000  Uiso   1.00
H606   H     0.93228   0.64473   0.14836   0.00000  Uiso   1.00
H607   H     0.90116   0.63257   0.19631   0.00000  Uiso   1.00
H608   H     0.94637   0.33456   0.20230   0.00000  Uiso   1.00
O609   O     0.95920   0.41510   0.25635   0.00000  Uiso   1.00
C610   C     0.96073   0.40078   0.30149   0.00000  Uiso   1.00
H611   H     0.93496   0.41676   0.31993   0.00000  Uiso   1.00
H612   H     0.98982   0.41034   0.31879   0.00000  Uiso   1.00
C613   C     0.95696   0.34791   0.30353   0.00000  Uiso   1.00
H614   H     0.98268   0.66518   0.28552   0.00000  Uiso   1.00
H615   H     0.95728   0.33588   0.33873   0.00000  Uiso   1.00
H616   H     0.92846   0.33635   0.28712   0.00000  Uiso   1.00
O617   O     0.70745   0.58492   0.25965   0.00000  Uiso   1.00
C618   C     0.70923   0.59336   0.30610   0.00000  Uiso   1.00
H619   H     0.72443   0.56405   0.32409   0.00000  Uiso   1.00
H620   H     0.67811   0.59803   0.31992   0.00000  Uiso   1.00
C621   C     0.73384   0.63745   0.31526   0.00000  Uiso   1.00
H622   H     0.72028   0.33457   0.29771   0.00000  Uiso   1.00
H623   H     0.73441   0.64472   0.35163   0.00000  Uiso   1.00
H624   H     0.76551   0.63257   0.30366   0.00000  Uiso   1.00
C625   C     0.08737   0.83335   0.25008   0.00000  Uiso   1.00
C626   C     0.24596   0.83335   0.24992   0.00000  Uiso   1.00
C627   C     0.09325   0.84081   0.02464   0.00000  Uiso   1.00
C628   C     0.24008   0.84081   0.47535   0.00000  Uiso   1.00
C629   C     0.02109   0.79097   0.24762   0.00000  Uiso   1.00
C630   C     0.31225   0.87603   0.24706   0.00000  Uiso   1.00
C631   C     0.31224   0.79097   0.25238   0.00000  Uiso   1.00
C632   C     0.02108   0.87603   0.25294   0.00000  Uiso   1.00
C633   C     0.29059   0.83344   0.24970   0.00000  Uiso   1.00
C634   C     0.04274   0.83344   0.25031   0.00000  Uiso   1.00
C635   C     0.15169   0.69143   0.21438   0.00000  Uiso   1.00
C636   C     0.18192   0.97523   0.28549   0.00000  Uiso   1.00
C637   C     0.18164   0.69143   0.28562   0.00000  Uiso   1.00
C638   C     0.15141   0.97523   0.21451   0.00000  Uiso   1.00
C639   C     0.16677   0.83332   0.16454   0.00000  Uiso   1.00
C640   C     0.16657   0.83332   0.33545   0.00000  Uiso   1.00
C641   C     0.20206   0.83831   0.40646   0.00000  Uiso   1.00
C642   C     0.13128   0.83831   0.09354   0.00000  Uiso   1.00
C643   C     0.16527   0.83350   0.38362   0.00000  Uiso   1.00
C644   C     0.16807   0.83350   0.11638   0.00000  Uiso   1.00
C645   C     0.12813   0.82867   0.40647   0.00000  Uiso   1.00
C646   C     0.20520   0.82867   0.09353   0.00000  Uiso   1.00
C647   C     0.12805   0.83462   0.45344   0.00000  Uiso   1.00
C648   C     0.20529   0.83462   0.04656   0.00000  Uiso   1.00
C649   C     0.16604   0.83610   0.47653   0.00000  Uiso   1.00
C650   C     0.16729   0.83610   0.02347   0.00000  Uiso   1.00
C651   C     0.20287   0.83778   0.45273   0.00000  Uiso   1.00
C652   C     0.13046   0.83778   0.04727   0.00000  Uiso   1.00
C653   C     0.09170   0.84097   0.47819   0.00000  Uiso   1.00
C654   C     0.24163   0.84097   0.02181   0.00000  Uiso   1.00
Cu655  Cu    0.16667   0.88022   0.25000   0.00000  Uiso   1.00
Cu656  Cu    0.16667   0.78645   0.25000   0.00000  Uiso   1.00
H657   H     0.23024   0.84127   0.38792   0.00000  Uiso   1.00
H658   H     0.10309   0.84127   0.11208   0.00000  Uiso   1.00
H659   H     0.06512   0.84402   0.04307   0.00000  Uiso   1.00
H660   H     0.26821   0.84402   0.45693   0.00000  Uiso   1.00
H661   H     0.13935   0.70989   0.18589   0.00000  Uiso   1.00
H662   H     0.19451   0.95677   0.31386   0.00000  Uiso   1.00
H663   H     0.19398   0.70989   0.31411   0.00000  Uiso   1.00
H664   H     0.13882   0.95677   0.18614   0.00000  Uiso   1.00
N665   N     0.16667   0.95069   0.25000   0.00000  Uiso   1.00
N666   N     0.16667   0.71598   0.25000   0.00000  Uiso   1.00
O667   O     0.10655   0.87291   0.24999   0.00000  Uiso   1.00
O668   O     0.22679   0.79375   0.25000   0.00000  Uiso   1.00
O669   O     0.22679   0.87291   0.25000   0.00000  Uiso   1.00
O670   O     0.10655   0.79375   0.24999   0.00000  Uiso   1.00
O671   O     0.16666   0.87293   0.18513   0.00000  Uiso   1.00
O672   O     0.16668   0.79373   0.31487   0.00000  Uiso   1.00
O673   O     0.16668   0.87293   0.31487   0.00000  Uiso   1.00
O674   O     0.16666   0.79373   0.18513   0.00000  Uiso   1.00
C675   C     0.09125   0.81384   0.38094   0.00000  Uiso   1.00
H676   H     0.08644   0.82582   0.34706   0.00000  Uiso   1.00
O677   O     0.06735   0.78555   0.39645   0.00000  Uiso   1.00
C678   C     0.24209   0.81384   0.11906   0.00000  Uiso   1.00
H679   H     0.24689   0.82583   0.15294   0.00000  Uiso   1.00
O680   O     0.26598   0.78555   0.10355   0.00000  Uiso   1.00
O681   O     0.05448   0.84959   0.45792   0.00000  Uiso   1.00
C682   C     0.05248   0.89754   0.44655   0.00000  Uiso   1.00
H683   H     0.07621   0.90673   0.42165   0.00000  Uiso   1.00
H684   H     0.05642   0.92005   0.47663   0.00000  Uiso   1.00
C685   C     0.01103   0.90809   0.42597   0.00000  Uiso   1.00
H686   H     0.32020   0.90288   0.45117   0.00000  Uiso   1.00
H687   H     0.01006   0.94498   0.41438   0.00000  Uiso   1.00
H688   H     0.00526   0.88464   0.39707   0.00000  Uiso   1.00
O689   O     0.27885   0.84959   0.04208   0.00000  Uiso   1.00
C690   C     0.28085   0.89754   0.05345   0.00000  Uiso   1.00
H691   H     0.25713   0.90673   0.07834   0.00000  Uiso   1.00
H692   H     0.27692   0.92004   0.02337   0.00000  Uiso   1.00
C693   C     0.32231   0.90809   0.07403   0.00000  Uiso   1.00
H694   H     0.01314   0.90288   0.04883   0.00000  Uiso   1.00
H695   H     0.32328   0.94498   0.08561   0.00000  Uiso   1.00
H696   H     0.32807   0.88464   0.10293   0.00000  Uiso   1.00
O697   O     0.04080   0.74844   0.24365   0.00000  Uiso   1.00
C698   C     0.03926   0.73411   0.19851   0.00000  Uiso   1.00
H699   H     0.06504   0.75009   0.18007   0.00000  Uiso   1.00
H700   H     0.01018   0.74368   0.18121   0.00000  Uiso   1.00
C701   C     0.04304   0.68124   0.19648   0.00000  Uiso   1.00
H702   H     0.01732   0.99851   0.21450   0.00000  Uiso   1.00
H703   H     0.04270   0.66921   0.16127   0.00000  Uiso   1.00
H704   H     0.07154   0.66968   0.21288   0.00000  Uiso   1.00
O705   O     0.29255   0.91825   0.24035   0.00000  Uiso   1.00
C706   C     0.29078   0.92670   0.19390   0.00000  Uiso   1.00
H707   H     0.27558   0.89738   0.17591   0.00000  Uiso   1.00
H708   H     0.32190   0.93136   0.18009   0.00000  Uiso   1.00
C709   C     0.26617   0.97079   0.18474   0.00000  Uiso   1.00
H710   H     0.26561   0.97806   0.14836   0.00000  Uiso   1.00
H711   H     0.23449   0.96590   0.19631   0.00000  Uiso   1.00
H712   H     0.27971   0.66790   0.20230   0.00000  Uiso   1.00
O713   O     0.29253   0.74844   0.25635   0.00000  Uiso   1.00
C714   C     0.29407   0.73411   0.30149   0.00000  Uiso   1.00
H715   H     0.26829   0.75009   0.31993   0.00000  Uiso   1.00
H716   H     0.32315   0.74368   0.31879   0.00000  Uiso   1.00
C717   C     0.29029   0.68124   0.30353   0.00000  Uiso   1.00
H718   H     0.31601   0.99851   0.28552   0.00000  Uiso   1.00
H719   H     0.29061   0.66921   0.33873   0.00000  Uiso   1.00
H720   H     0.26179   0.66968   0.28712   0.00000  Uiso   1.00
O721   O     0.04078   0.91826   0.25965   0.00000  Uiso   1.00
C722   C     0.04256   0.92670   0.30610   0.00000  Uiso   1.00
H723   H     0.05776   0.89738   0.32409   0.00000  Uiso   1.00
H724   H     0.01144   0.93136   0.31992   0.00000  Uiso   1.00
C725   C     0.06717   0.97079   0.31526   0.00000  Uiso   1.00
H726   H     0.05362   0.66790   0.29771   0.00000  Uiso   1.00
H727   H     0.06775   0.97805   0.35163   0.00000  Uiso   1.00
H728   H     0.09884   0.96591   0.30366   0.00000  Uiso   1.00
C729   C     0.42070   0.83335   0.25008   0.00000  Uiso   1.00
C730   C     0.57930   0.83335   0.24992   0.00000  Uiso   1.00
C731   C     0.42659   0.84081   0.02464   0.00000  Uiso   1.00
C732   C     0.57341   0.84081   0.47535   0.00000  Uiso   1.00
C733   C     0.35443   0.79097   0.24762   0.00000  Uiso   1.00
C734   C     0.64559   0.87603   0.24706   0.00000  Uiso   1.00
C735   C     0.64557   0.79097   0.25238   0.00000  Uiso   1.00
C736   C     0.35441   0.87603   0.25294   0.00000  Uiso   1.00
C737   C     0.62392   0.83344   0.24970   0.00000  Uiso   1.00
C738   C     0.37608   0.83344   0.25031   0.00000  Uiso   1.00
C739   C     0.48503   0.69143   0.21438   0.00000  Uiso   1.00
C740   C     0.51526   0.97523   0.28549   0.00000  Uiso   1.00
C741   C     0.51497   0.69143   0.28562   0.00000  Uiso   1.00
C742   C     0.48474   0.97523   0.21451   0.00000  Uiso   1.00
C743   C     0.50010   0.83332   0.16454   0.00000  Uiso   1.00
C744   C     0.49990   0.83332   0.33545   0.00000  Uiso   1.00
C745   C     0.53539   0.83831   0.40646   0.00000  Uiso   1.00
C746   C     0.46461   0.83831   0.09354   0.00000  Uiso   1.00
C747   C     0.49860   0.83350   0.38362   0.00000  Uiso   1.00
C748   C     0.50140   0.83350   0.11638   0.00000  Uiso   1.00
C749   C     0.46146   0.82867   0.40647   0.00000  Uiso   1.00
C750   C     0.53854   0.82867   0.09353   0.00000  Uiso   1.00
C751   C     0.46138   0.83462   0.45344   0.00000  Uiso   1.00
C752   C     0.53862   0.83462   0.04656   0.00000  Uiso   1.00
C753   C     0.49937   0.83610   0.47653   0.00000  Uiso   1.00
C754   C     0.50063   0.83610   0.02347   0.00000  Uiso   1.00
C755   C     0.53621   0.83778   0.45273   0.00000  Uiso   1.00
C756   C     0.46379   0.83778   0.04727   0.00000  Uiso   1.00
C757   C     0.42503   0.84097   0.47819   0.00000  Uiso   1.00
C758   C     0.57497   0.84097   0.02181   0.00000  Uiso   1.00
Cu759  Cu    0.50000   0.88022   0.25000   0.00000  Uiso   1.00
Cu760  Cu    0.50000   0.78645   0.25000   0.00000  Uiso   1.00
H761   H     0.56358   0.84127   0.38792   0.00000  Uiso   1.00
H762   H     0.43642   0.84127   0.11208   0.00000  Uiso   1.00
H763   H     0.39845   0.84402   0.04307   0.00000  Uiso   1.00
H764   H     0.60155   0.84402   0.45693   0.00000  Uiso   1.00
H765   H     0.47269   0.70989   0.18589   0.00000  Uiso   1.00
H766   H     0.52785   0.95677   0.31386   0.00000  Uiso   1.00
H767   H     0.52731   0.70989   0.31411   0.00000  Uiso   1.00
H768   H     0.47215   0.95677   0.18614   0.00000  Uiso   1.00
N769   N     0.50000   0.95069   0.25000   0.00000  Uiso   1.00
N770   N     0.50000   0.71598   0.25000   0.00000  Uiso   1.00
O771   O     0.43988   0.87291   0.24999   0.00000  Uiso   1.00
O772   O     0.56012   0.79375   0.25000   0.00000  Uiso   1.00
O773   O     0.56012   0.87291   0.25000   0.00000  Uiso   1.00
O774   O     0.43988   0.79375   0.24999   0.00000  Uiso   1.00
O775   O     0.49999   0.87293   0.18513   0.00000  Uiso   1.00
O776   O     0.50001   0.79373   0.31487   0.00000  Uiso   1.00
O777   O     0.50001   0.87293   0.31487   0.00000  Uiso   1.00
O778   O     0.49999   0.79373   0.18513   0.00000  Uiso   1.00
C779   C     0.42458   0.81384   0.38094   0.00000  Uiso   1.00
H780   H     0.41977   0.82582   0.34706   0.00000  Uiso   1.00
O781   O     0.40068   0.78555   0.39645   0.00000  Uiso   1.00
C782   C     0.57542   0.81384   0.11906   0.00000  Uiso   1.00
H783   H     0.58023   0.82583   0.15294   0.00000  Uiso   1.00
O784   O     0.59932   0.78555   0.10355   0.00000  Uiso   1.00
O785   O     0.38781   0.84959   0.45792   0.00000  Uiso   1.00
C786   C     0.38581   0.89754   0.44655   0.00000  Uiso   1.00
H787   H     0.40954   0.90673   0.42165   0.00000  Uiso   1.00
H788   H     0.38975   0.92005   0.47663   0.00000  Uiso   1.00
C789   C     0.34436   0.90809   0.42597   0.00000  Uiso   1.00
H790   H     0.65353   0.90288   0.45117   0.00000  Uiso   1.00
H791   H     0.34339   0.94498   0.41438   0.00000  Uiso   1.00
H792   H     0.33859   0.88464   0.39707   0.00000  Uiso   1.00
O793   O     0.61219   0.84959   0.04208   0.00000  Uiso   1.00
C794   C     0.61419   0.89754   0.05345   0.00000  Uiso   1.00
H795   H     0.59046   0.90673   0.07834   0.00000  Uiso   1.00
H796   H     0.61025   0.92004   0.02337   0.00000  Uiso   1.00
C797   C     0.65564   0.90809   0.07403   0.00000  Uiso   1.00
H798   H     0.34647   0.90288   0.04883   0.00000  Uiso   1.00
H799   H     0.65661   0.94498   0.08561   0.00000  Uiso   1.00
H800   H     0.66141   0.88464   0.10293   0.00000  Uiso   1.00
O801   O     0.37413   0.74844   0.24365   0.00000  Uiso   1.00
C802   C     0.37260   0.73411   0.19851   0.00000  Uiso   1.00
H803   H     0.39838   0.75009   0.18007   0.00000  Uiso   1.00
H804   H     0.34351   0.74368   0.18121   0.00000  Uiso   1.00
C805   C     0.37637   0.68124   0.19648   0.00000  Uiso   1.00
H806   H     0.35065   0.99851   0.21450   0.00000  Uiso   1.00
H807   H     0.37603   0.66921   0.16127   0.00000  Uiso   1.00
H808   H     0.40487   0.66968   0.21288   0.00000  Uiso   1.00
O809   O     0.62588   0.91825   0.24035   0.00000  Uiso   1.00
C810   C     0.62411   0.92670   0.19390   0.00000  Uiso   1.00
H811   H     0.60891   0.89738   0.17591   0.00000  Uiso   1.00
H812   H     0.65523   0.93136   0.18009   0.00000  Uiso   1.00
C813   C     0.59950   0.97079   0.18474   0.00000  Uiso   1.00
H814   H     0.59894   0.97806   0.14836   0.00000  Uiso   1.00
H815   H     0.56782   0.96590   0.19631   0.00000  Uiso   1.00
H816   H     0.61304   0.66790   0.20230   0.00000  Uiso   1.00
O817   O     0.62587   0.74844   0.25635   0.00000  Uiso   1.00
C818   C     0.62740   0.73411   0.30149   0.00000  Uiso   1.00
H819   H     0.60162   0.75009   0.31993   0.00000  Uiso   1.00
H820   H     0.65648   0.74368   0.31879   0.00000  Uiso   1.00
C821   C     0.62362   0.68124   0.30353   0.00000  Uiso   1.00
H822   H     0.64934   0.99851   0.28552   0.00000  Uiso   1.00
H823   H     0.62394   0.66921   0.33873   0.00000  Uiso   1.00
H824   H     0.59513   0.66968   0.28712   0.00000  Uiso   1.00
O825   O     0.37412   0.91826   0.25965   0.00000  Uiso   1.00
C826   C     0.37590   0.92670   0.30610   0.00000  Uiso   1.00
H827   H     0.39109   0.89738   0.32409   0.00000  Uiso   1.00
H828   H     0.34477   0.93136   0.31992   0.00000  Uiso   1.00
C829   C     0.40050   0.97079   0.31526   0.00000  Uiso   1.00
H830   H     0.38695   0.66790   0.29771   0.00000  Uiso   1.00
H831   H     0.40108   0.97805   0.35163   0.00000  Uiso   1.00
H832   H     0.43217   0.96591   0.30366   0.00000  Uiso   1.00
C833   C     0.75404   0.83335   0.25008   0.00000  Uiso   1.00
C834   C     0.91263   0.83335   0.24992   0.00000  Uiso   1.00
C835   C     0.75992   0.84081   0.02464   0.00000  Uiso   1.00
C836   C     0.90675   0.84081   0.47535   0.00000  Uiso   1.00
C837   C     0.68776   0.79097   0.24762   0.00000  Uiso   1.00
C838   C     0.97892   0.87603   0.24706   0.00000  Uiso   1.00
C839   C     0.97891   0.79097   0.25238   0.00000  Uiso   1.00
C840   C     0.68775   0.87603   0.25294   0.00000  Uiso   1.00
C841   C     0.95726   0.83344   0.24970   0.00000  Uiso   1.00
C842   C     0.70941   0.83344   0.25031   0.00000  Uiso   1.00
C843   C     0.81836   0.69143   0.21438   0.00000  Uiso   1.00
C844   C     0.84859   0.97523   0.28549   0.00000  Uiso   1.00
C845   C     0.84831   0.69143   0.28562   0.00000  Uiso   1.00
C846   C     0.81808   0.97523   0.21451   0.00000  Uiso   1.00
C847   C     0.83343   0.83332   0.16454   0.00000  Uiso   1.00
C848   C     0.83323   0.83332   0.33545   0.00000  Uiso   1.00
C849   C     0.86872   0.83831   0.40646   0.00000  Uiso   1.00
C850   C     0.79794   0.83831   0.09354   0.00000  Uiso   1.00
C851   C     0.83193   0.83350   0.38362   0.00000  Uiso   1.00
C852   C     0.83473   0.83350   0.11638   0.00000  Uiso   1.00
C853   C     0.79479   0.82867   0.40647   0.00000  Uiso   1.00
C854   C     0.87187   0.82867   0.09353   0.00000  Uiso   1.00
C855   C     0.79471   0.83462   0.45344   0.00000  Uiso   1.00
C856   C     0.87195   0.83462   0.04656   0.00000  Uiso   1.00
C857   C     0.83271   0.83610   0.47653   0.00000  Uiso   1.00
C858   C     0.83396   0.83610   0.02347   0.00000  Uiso   1.00
C859   C     0.86954   0.83778   0.45273   0.00000  Uiso   1.00
C860   C     0.79713   0.83778   0.04727   0.00000  Uiso   1.00
C861   C     0.75837   0.84097   0.47819   0.00000  Uiso   1.00
C862   C     0.90830   0.84097   0.02181   0.00000  Uiso   1.00
Cu863  Cu    0.83333   0.88022   0.25000   0.00000  Uiso   1.00
Cu864  Cu    0.83333   0.78645   0.25000   0.00000  Uiso   1.00
H865   H     0.89691   0.84127   0.38792   0.00000  Uiso   1.00
H866   H     0.76975   0.84127   0.11208   0.00000  Uiso   1.00
H867   H     0.73179   0.84402   0.04307   0.00000  Uiso   1.00
H868   H     0.93488   0.84402   0.45693   0.00000  Uiso   1.00
H869   H     0.80602   0.70989   0.18589   0.00000  Uiso   1.00
H870   H     0.86118   0.95677   0.31386   0.00000  Uiso   1.00
H871   H     0.86065   0.70989   0.31411   0.00000  Uiso   1.00
H872   H     0.80549   0.95677   0.18614   0.00000  Uiso   1.00
N873   N     0.83333   0.95069   0.25000   0.00000  Uiso   1.00
N874   N     0.83333   0.71598   0.25000   0.00000  Uiso   1.00
O875   O     0.77321   0.87291   0.24999   0.00000  Uiso   1.00
O876   O     0.89345   0.79375   0.25000   0.00000  Uiso   1.00
O877   O     0.89345   0.87291   0.25000   0.00000  Uiso   1.00
O878   O     0.77321   0.79375   0.24999   0.00000  Uiso   1.00
O879   O     0.83332   0.87293   0.18513   0.00000  Uiso   1.00
O880   O     0.83334   0.79373   0.31487   0.00000  Uiso   1.00
O881   O     0.83334   0.87293   0.31487   0.00000  Uiso   1.00
O882   O     0.83332   0.79373   0.18513   0.00000  Uiso   1.00
C883   C     0.75791   0.81384   0.38094   0.00000  Uiso   1.00
H884   H     0.75311   0.82582   0.34706   0.00000  Uiso   1.00
O885   O     0.73402   0.78555   0.39645   0.00000  Uiso   1.00
C886   C     0.90875   0.81384   0.11906   0.00000  Uiso   1.00
H887   H     0.91356   0.82583   0.15294   0.00000  Uiso   1.00
O888   O     0.93265   0.78555   0.10355   0.00000  Uiso   1.00
O889   O     0.72114   0.84959   0.45792   0.00000  Uiso   1.00
C890   C     0.71915   0.89754   0.44655   0.00000  Uiso   1.00
H891   H     0.74287   0.90673   0.42165   0.00000  Uiso   1.00
H892   H     0.72308   0.92005   0.47663   0.00000  Uiso   1.00
C893   C     0.67769   0.90809   0.42597   0.00000  Uiso   1.00
H894   H     0.98686   0.90288   0.45117   0.00000  Uiso   1.00
H895   H     0.67673   0.94498   0.41438   0.00000  Uiso   1.00
H896   H     0.67193   0.88464   0.39707   0.00000  Uiso   1.00
O897   O     0.94552   0.84959   0.04208   0.00000  Uiso   1.00
C898   C     0.94752   0.89754   0.05345   0.00000  Uiso   1.00
H899   H     0.92380   0.90673   0.07834   0.00000  Uiso   1.00
H900   H     0.94358   0.92004   0.02337   0.00000  Uiso   1.00
C901   C     0.98898   0.90809   0.07403   0.00000  Uiso   1.00
H902   H     0.67980   0.90288   0.04883   0.00000  Uiso   1.00
H903   H     0.98994   0.94498   0.08561   0.00000  Uiso   1.00
H904   H     0.99474   0.88464   0.10293   0.00000  Uiso   1.00
O905   O     0.70747   0.74844   0.24365   0.00000  Uiso   1.00
C906   C     0.70593   0.73411   0.19851   0.00000  Uiso   1.00
H907   H     0.73171   0.75009   0.18007   0.00000  Uiso   1.00
H908   H     0.67685   0.74368   0.18121   0.00000  Uiso   1.00
C909   C     0.70970   0.68124   0.19648   0.00000  Uiso   1.00
H910   H     0.68399   0.99851   0.21450   0.00000  Uiso   1.00
H911   H     0.70937   0.66921   0.16127   0.00000  Uiso   1.00
H912   H     0.73820   0.66968   0.21288   0.00000  Uiso   1.00
O913   O     0.95922   0.91825   0.24035   0.00000  Uiso   1.00
C914   C     0.95744   0.92670   0.19390   0.00000  Uiso   1.00
H915   H     0.94225   0.89738   0.17591   0.00000  Uiso   1.00
H916   H     0.98857   0.93136   0.18009   0.00000  Uiso   1.00
C917   C     0.93283   0.97079   0.18474   0.00000  Uiso   1.00
H918   H     0.93228   0.97806   0.14836   0.00000  Uiso   1.00
H919   H     0.90116   0.96590   0.19631   0.00000  Uiso   1.00
H920   H     0.94637   0.66790   0.20230   0.00000  Uiso   1.00
O921   O     0.95920   0.74844   0.25635   0.00000  Uiso   1.00
C922   C     0.96073   0.73411   0.30149   0.00000  Uiso   1.00
H923   H     0.93496   0.75009   0.31993   0.00000  Uiso   1.00
H924   H     0.98982   0.74368   0.31879   0.00000  Uiso   1.00
C925   C     0.95696   0.68124   0.30353   0.00000  Uiso   1.00
H926   H     0.98268   0.99851   0.28552   0.00000  Uiso   1.00
H927   H     0.95728   0.66921   0.33873   0.00000  Uiso   1.00
H928   H     0.92846   0.66968   0.28712   0.00000  Uiso   1.00
O929   O     0.70745   0.91826   0.25965   0.00000  Uiso   1.00
C930   C     0.70923   0.92670   0.30610   0.00000  Uiso   1.00
H931   H     0.72443   0.89738   0.32409   0.00000  Uiso   1.00
H932   H     0.67811   0.93136   0.31992   0.00000  Uiso   1.00
C933   C     0.73384   0.97079   0.31526   0.00000  Uiso   1.00
H934   H     0.72028   0.66790   0.29771   0.00000  Uiso   1.00
H935   H     0.73441   0.97805   0.35163   0.00000  Uiso   1.00
H936   H     0.76551   0.96591   0.30366   0.00000  Uiso   1.00
C937   C     0.08737   0.16669   0.75008   0.00000  Uiso   1.00
C938   C     0.24596   0.16669   0.74992   0.00000  Uiso   1.00
C939   C     0.09325   0.17415   0.52464   0.00000  Uiso   1.00
C940   C     0.24008   0.17415   0.97535   0.00000  Uiso   1.00
C941   C     0.02109   0.12430   0.74762   0.00000  Uiso   1.00
C942   C     0.31225   0.20936   0.74706   0.00000  Uiso   1.00
C943   C     0.31224   0.12430   0.75238   0.00000  Uiso   1.00
C944   C     0.02108   0.20936   0.75294   0.00000  Uiso   1.00
C945   C     0.29059   0.16677   0.74970   0.00000  Uiso   1.00
C946   C     0.04274   0.16677   0.75031   0.00000  Uiso   1.00
C947   C     0.15169   0.02477   0.71438   0.00000  Uiso   1.00
C948   C     0.18192   0.30857   0.78549   0.00000  Uiso   1.00
C949   C     0.18164   0.02477   0.78562   0.00000  Uiso   1.00
C950   C     0.15141   0.30857   0.71451   0.00000  Uiso   1.00
C951   C     0.16677   0.16666   0.66454   0.00000  Uiso   1.00
C952   C     0.16657   0.16666   0.83545   0.00000  Uiso   1.00
C953   C     0.20206   0.17165   0.90646   0.00000  Uiso   1.00
C954   C     0.13128   0.17165   0.59354   0.00000  Uiso   1.00
C955   C     0.16527   0.16683   0.88362   0.00000  Uiso   1.00
C956   C     0.16807   0.16683   0.61638   0.00000  Uiso   1.00
C957   C     0.12813   0.16201   0.90647   0.00000  Uiso   1.00
C958   C     0.20520   0.16201   0.59353   0.00000  Uiso   1.00
C959   C     0.12805   0.16795   0.95344   0.00000  Uiso   1.00
C960   C     0.20529   0.16795   0.54656   0.00000  Uiso   1.00
C961   C     0.16604   0.16943   0.97653   0.00000  Uiso   1.00
C962   C     0.16729   0.16943   0.52347   0.00000  Uiso   1.00
C963   C     0.20287   0.17111   0.95273   0.00000  Uiso   1.00
C964   C     0.13046   0.17111   0.54727   0.00000  Uiso   1.00
C965   C     0.09170   0.17430   0.97819   0.00000  Uiso   1.00
C966   C     0.24163   0.17430   0.52181   0.00000  Uiso   1.00
Cu967  Cu    0.16667   0.21355   0.75000   0.00000  Uiso   1.00
Cu968  Cu    0.16667   0.11978   0.75000   0.00000  Uiso   1.00
H969   H     0.23024   0.17461   0.88792   0.00000  Uiso   1.00
H970   H     0.10309   0.17461   0.61208   0.00000  Uiso   1.00
H971   H     0.06512   0.17736   0.54307   0.00000  Uiso   1.00
H972   H     0.26821   0.17736   0.95693   0.00000  Uiso   1.00
H973   H     0.13935   0.04323   0.68589   0.00000  Uiso   1.00
H974   H     0.19451   0.29010   0.81386   0.00000  Uiso   1.00
H975   H     0.19398   0.04323   0.81411   0.00000  Uiso   1.00
H976   H     0.13882   0.29010   0.68614   0.00000  Uiso   1.00
N977   N     0.16667   0.28402   0.75000   0.00000  Uiso   1.00
N978   N     0.16667   0.04931   0.75000   0.00000  Uiso   1.00
O979   O     0.10655   0.20625   0.74999   0.00000  Uiso   1.00
O980   O     0.22679   0.12709   0.75000   0.00000  Uiso   1.00
O981   O     0.22679   0.20625   0.75000   0.00000  Uiso   1.00
O982   O     0.10655   0.12709   0.74999   0.00000  Uiso   1.00
O983   O     0.16666   0.20627   0.68513   0.00000  Uiso   1.00
O984   O     0.16668   0.12707   0.81487   0.00000  Uiso   1.00
O985   O     0.16668   0.20627   0.81487   0.00000  Uiso   1.00
O986   O     0.16666   0.12707   0.68513   0.00000  Uiso   1.00
C987   C     0.09125   0.14717   0.88094   0.00000  Uiso   1.00
H988   H     0.08644   0.15916   0.84706   0.00000  Uiso   1.00
O989   O     0.06735   0.11888   0.89645   0.00000  Uiso   1.00
C990   C     0.24209   0.14718   0.61906   0.00000  Uiso   1.00
H991   H     0.24689   0.15916   0.65294   0.00000  Uiso   1.00
O992   O     0.26598   0.11888   0.60355   0.00000  Uiso   1.00
O993   O     0.05448   0.18292   0.95792   0.00000  Uiso   1.00
C994   C     0.05248   0.23087   0.94655   0.00000  Uiso   1.00
H995   H     0.07621   0.24007   0.92165   0.00000  Uiso   1.00
H996   H     0.05642   0.25338   0.97663   0.00000  Uiso   1.00
C997   C     0.01103   0.24143   0.92597   0.00000  Uiso   1.00
H998   H     0.32020   0.23621   0.95117   0.00000  Uiso   1.00
H999   H     0.01006   0.27831   0.91438   0.00000  Uiso   1.00
H1000  H     0.00526   0.21797   0.89707   0.00000  Uiso   1.00
O1001  O     0.27885   0.18292   0.54208   0.00000  Uiso   1.00
C1002  C     0.28085   0.23087   0.55345   0.00000  Uiso   1.00
H1003  H     0.25713   0.24007   0.57834   0.00000  Uiso   1.00
H1004  H     0.27692   0.25338   0.52337   0.00000  Uiso   1.00
C1005  C     0.32231   0.24142   0.57403   0.00000  Uiso   1.00
H1006  H     0.01314   0.23621   0.54883   0.00000  Uiso   1.00
H1007  H     0.32328   0.27831   0.58561   0.00000  Uiso   1.00
H1008  H     0.32807   0.21797   0.60293   0.00000  Uiso   1.00
O1009  O     0.04080   0.08177   0.74365   0.00000  Uiso   1.00
C1010  C     0.03926   0.06744   0.69851   0.00000  Uiso   1.00
H1011  H     0.06504   0.08342   0.68007   0.00000  Uiso   1.00
H1012  H     0.01018   0.07701   0.68121   0.00000  Uiso   1.00
C1013  C     0.04304   0.01457   0.69648   0.00000  Uiso   1.00
H1014  H     0.01732   0.33185   0.71450   0.00000  Uiso   1.00
H1015  H     0.04270   0.00254   0.66127   0.00000  Uiso   1.00
H1016  H     0.07154   0.00301   0.71288   0.00000  Uiso   1.00
O1017  O     0.29255   0.25159   0.74035   0.00000  Uiso   1.00
C1018  C     0.29078   0.26003   0.69390   0.00000  Uiso   1.00
H1019  H     0.27558   0.23071   0.67591   0.00000  Uiso   1.00
H1020  H     0.32190   0.26470   0.68009   0.00000  Uiso   1.00
C1021  C     0.26617   0.30412   0.68474   0.00000  Uiso   1.00
H1022  H     0.26561   0.31140   0.64836   0.00000  Uiso   1.00
H1023  H     0.23449   0.29923   0.69631   0.00000  Uiso   1.00
H1024  H     0.27971   0.00123   0.70230   0.00000  Uiso   1.00
O1025  O     0.29253   0.08177   0.75635   0.00000  Uiso   1.00
C1026  C     0.29407   0.06744   0.80149   0.00000  Uiso   1.00
H1027  H     0.26829   0.08342   0.81993   0.00000  Uiso   1.00
H1028  H     0.32315   0.07701   0.81879   0.00000  Uiso   1.00
C1029  C     0.29029   0.01458   0.80353   0.00000  Uiso   1.00
H1030  H     0.31601   0.33184   0.78552   0.00000  Uiso   1.00
H1031  H     0.29061   0.00255   0.83873   0.00000  Uiso   1.00
H1032  H     0.26179   0.00302   0.78712   0.00000  Uiso   1.00
O1033  O     0.04078   0.25159   0.75965   0.00000  Uiso   1.00
C1034  C     0.04256   0.26003   0.80610   0.00000  Uiso   1.00
H1035  H     0.05776   0.23071   0.82409   0.00000  Uiso   1.00
H1036  H     0.01144   0.26469   0.81992   0.00000  Uiso   1.00
C1037  C     0.06717   0.30412   0.81526   0.00000  Uiso   1.00
H1038  H     0.05362   0.00123   0.79771   0.00000  Uiso   1.00
H1039  H     0.06775   0.31138   0.85163   0.00000  Uiso   1.00
H1040  H     0.09884   0.29924   0.80366   0.00000  Uiso   1.00
C1041  C     0.42070   0.16669   0.75008   0.00000  Uiso   1.00
C1042  C     0.57930   0.16669   0.74992   0.00000  Uiso   1.00
C1043  C     0.42659   0.17415   0.52464   0.00000  Uiso   1.00
C1044  C     0.57341   0.17415   0.97535   0.00000  Uiso   1.00
C1045  C     0.35443   0.12430   0.74762   0.00000  Uiso   1.00
C1046  C     0.64559   0.20936   0.74706   0.00000  Uiso   1.00
C1047  C     0.64557   0.12430   0.75238   0.00000  Uiso   1.00
C1048  C     0.35441   0.20936   0.75294   0.00000  Uiso   1.00
C1049  C     0.62392   0.16677   0.74970   0.00000  Uiso   1.00
C1050  C     0.37608   0.16677   0.75031   0.00000  Uiso   1.00
C1051  C     0.48503   0.02477   0.71438   0.00000  Uiso   1.00
C1052  C     0.51526   0.30857   0.78549   0.00000  Uiso   1.00
C1053  C     0.51497   0.02477   0.78562   0.00000  Uiso   1.00
C1054  C     0.48474   0.30857   0.71451   0.00000  Uiso   1.00
C1055  C     0.50010   0.16666   0.66454   0.00000  Uiso   1.00
C1056  C     0.49990   0.16666   0.83545   0.00000  Uiso   1.00
C1057  C     0.53539   0.17165   0.90646   0.00000  Uiso   1.00
C1058  C     0.46461   0.17165   0.59354   0.00000  Uiso   1.00
C1059  C     0.49860   0.16683   0.88362   0.00000  Uiso   1.00
C1060  C     0.50140   0.16683   0.61638   0.00000  Uiso   1.00
C1061  C     0.46146   0.16201   0.90647   0.00000  Uiso   1.00
C1062  C     0.53854   0.16201   0.59353   0.00000  Uiso   1.00
C1063  C     0.46138   0.16795   0.95344   0.00000  Uiso   1.00
C1064  C     0.53862   0.16795   0.54656   0.00000  Uiso   1.00
C1065  C     0.49937   0.16943   0.97653   0.00000  Uiso   1.00
C1066  C     0.50063   0.16943   0.52347   0.00000  Uiso   1.00
C1067  C     0.53621   0.17111   0.95273   0.00000  Uiso   1.00
C1068  C     0.46379   0.17111   0.54727   0.00000  Uiso   1.00
C1069  C     0.42503   0.17430   0.97819   0.00000  Uiso   1.00
C1070  C     0.57497   0.17430   0.52181   0.00000  Uiso   1.00
Cu1071 Cu    0.50000   0.21355   0.75000   0.00000  Uiso   1.00
Cu1072 Cu    0.50000   0.11978   0.75000   0.00000  Uiso   1.00
H1073  H     0.56358   0.17461   0.88792   0.00000  Uiso   1.00
H1074  H     0.43642   0.17461   0.61208   0.00000  Uiso   1.00
H1075  H     0.39845   0.17736   0.54307   0.00000  Uiso   1.00
H1076  H     0.60155   0.17736   0.95693   0.00000  Uiso   1.00
H1077  H     0.47269   0.04323   0.68589   0.00000  Uiso   1.00
H1078  H     0.52785   0.29010   0.81386   0.00000  Uiso   1.00
H1079  H     0.52731   0.04323   0.81411   0.00000  Uiso   1.00
H1080  H     0.47215   0.29010   0.68614   0.00000  Uiso   1.00
N1081  N     0.50000   0.28402   0.75000   0.00000  Uiso   1.00
N1082  N     0.50000   0.04931   0.75000   0.00000  Uiso   1.00
O1083  O     0.43988   0.20625   0.74999   0.00000  Uiso   1.00
O1084  O     0.56012   0.12709   0.75000   0.00000  Uiso   1.00
O1085  O     0.56012   0.20625   0.75000   0.00000  Uiso   1.00
O1086  O     0.43988   0.12709   0.74999   0.00000  Uiso   1.00
O1087  O     0.49999   0.20627   0.68513   0.00000  Uiso   1.00
O1088  O     0.50001   0.12707   0.81487   0.00000  Uiso   1.00
O1089  O     0.50001   0.20627   0.81487   0.00000  Uiso   1.00
O1090  O     0.49999   0.12707   0.68513   0.00000  Uiso   1.00
C1091  C     0.42458   0.14717   0.88094   0.00000  Uiso   1.00
H1092  H     0.41977   0.15916   0.84706   0.00000  Uiso   1.00
O1093  O     0.40068   0.11888   0.89645   0.00000  Uiso   1.00
C1094  C     0.57542   0.14718   0.61906   0.00000  Uiso   1.00
H1095  H     0.58023   0.15916   0.65294   0.00000  Uiso   1.00
O1096  O     0.59932   0.11888   0.60355   0.00000  Uiso   1.00
O1097  O     0.38781   0.18292   0.95792   0.00000  Uiso   1.00
C1098  C     0.38581   0.23087   0.94655   0.00000  Uiso   1.00
H1099  H     0.40954   0.24007   0.92165   0.00000  Uiso   1.00
H1100  H     0.38975   0.25338   0.97663   0.00000  Uiso   1.00
C1101  C     0.34436   0.24143   0.92597   0.00000  Uiso   1.00
H1102  H     0.65353   0.23621   0.95117   0.00000  Uiso   1.00
H1103  H     0.34339   0.27831   0.91438   0.00000  Uiso   1.00
H1104  H     0.33859   0.21797   0.89707   0.00000  Uiso   1.00
O1105  O     0.61219   0.18292   0.54208   0.00000  Uiso   1.00
C1106  C     0.61419   0.23087   0.55345   0.00000  Uiso   1.00
H1107  H     0.59046   0.24007   0.57834   0.00000  Uiso   1.00
H1108  H     0.61025   0.25338   0.52337   0.00000  Uiso   1.00
C1109  C     0.65564   0.24142   0.57403   0.00000  Uiso   1.00
H1110  H     0.34647   0.23621   0.54883   0.00000  Uiso   1.00
H1111  H     0.65661   0.27831   0.58561   0.00000  Uiso   1.00
H1112  H     0.66141   0.21797   0.60293   0.00000  Uiso   1.00
O1113  O     0.37413   0.08177   0.74365   0.00000  Uiso   1.00
C1114  C     0.37260   0.06744   0.69851   0.00000  Uiso   1.00
H1115  H     0.39838   0.08342   0.68007   0.00000  Uiso   1.00
H1116  H     0.34351   0.07701   0.68121   0.00000  Uiso   1.00
C1117  C     0.37637   0.01457   0.69648   0.00000  Uiso   1.00
H1118  H     0.35065   0.33185   0.71450   0.00000  Uiso   1.00
H1119  H     0.37603   0.00254   0.66127   0.00000  Uiso   1.00
H1120  H     0.40487   0.00301   0.71288   0.00000  Uiso   1.00
O1121  O     0.62588   0.25159   0.74035   0.00000  Uiso   1.00
C1122  C     0.62411   0.26003   0.69390   0.00000  Uiso   1.00
H1123  H     0.60891   0.23071   0.67591   0.00000  Uiso   1.00
H1124  H     0.65523   0.26470   0.68009   0.00000  Uiso   1.00
C1125  C     0.59950   0.30412   0.68474   0.00000  Uiso   1.00
H1126  H     0.59894   0.31140   0.64836   0.00000  Uiso   1.00
H1127  H     0.56782   0.29923   0.69631   0.00000  Uiso   1.00
H1128  H     0.61304   0.00123   0.70230   0.00000  Uiso   1.00
O1129  O     0.62587   0.08177   0.75635   0.00000  Uiso   1.00
C1130  C     0.62740   0.06744   0.80149   0.00000  Uiso   1.00
H1131  H     0.60162   0.08342   0.81993   0.00000  Uiso   1.00
H1132  H     0.65648   0.07701   0.81879   0.00000  Uiso   1.00
C1133  C     0.62362   0.01458   0.80353   0.00000  Uiso   1.00
H1134  H     0.64934   0.33184   0.78552   0.00000  Uiso   1.00
H1135  H     0.62394   0.00255   0.83873   0.00000  Uiso   1.00
H1136  H     0.59513   0.00302   0.78712   0.00000  Uiso   1.00
O1137  O     0.37412   0.25159   0.75965   0.00000  Uiso   1.00
C1138  C     0.37590   0.26003   0.80610   0.00000  Uiso   1.00
H1139  H     0.39109   0.23071   0.82409   0.00000  Uiso   1.00
H1140  H     0.34477   0.26469   0.81992   0.00000  Uiso   1.00
C1141  C     0.40050   0.30412   0.81526   0.00000  Uiso   1.00
H1142  H     0.38695   0.00123   0.79771   0.00000  Uiso   1.00
H1143  H     0.40108   0.31138   0.85163   0.00000  Uiso   1.00
H1144  H     0.43217   0.29924   0.80366   0.00000  Uiso   1.00
C1145  C     0.75404   0.16669   0.75008   0.00000  Uiso   1.00
C1146  C     0.91263   0.16669   0.74992   0.00000  Uiso   1.00
C1147  C     0.75992   0.17415   0.52464   0.00000  Uiso   1.00
C1148  C     0.90675   0.17415   0.97535   0.00000  Uiso   1.00
C1149  C     0.68776   0.12430   0.74762   0.00000  Uiso   1.00
C1150  C     0.97892   0.20936   0.74706   0.00000  Uiso   1.00
C1151  C     0.97891   0.12430   0.75238   0.00000  Uiso   1.00
C1152  C     0.68775   0.20936   0.75294   0.00000  Uiso   1.00
C1153  C     0.95726   0.16677   0.74970   0.00000  Uiso   1.00
C1154  C     0.70941   0.16677   0.75031   0.00000  Uiso   1.00
C1155  C     0.81836   0.02477   0.71438   0.00000  Uiso   1.00
C1156  C     0.84859   0.30857   0.78549   0.00000  Uiso   1.00
C1157  C     0.84831   0.02477   0.78562   0.00000  Uiso   1.00
C1158  C     0.81808   0.30857   0.71451   0.00000  Uiso   1.00
C1159  C     0.83343   0.16666   0.66454   0.00000  Uiso   1.00
C1160  C     0.83323   0.16666   0.83545   0.00000  Uiso   1.00
C1161  C     0.86872   0.17165   0.90646   0.00000  Uiso   1.00
C1162  C     0.79794   0.17165   0.59354   0.00000  Uiso   1.00
C1163  C     0.83193   0.16683   0.88362   0.00000  Uiso   1.00
C1164  C     0.83473   0.16683   0.61638   0.00000  Uiso   1.00
C1165  C     0.79479   0.16201   0.90647   0.00000  Uiso   1.00
C1166  C     0.87187   0.16201   0.59353   0.00000  Uiso   1.00
C1167  C     0.79471   0.16795   0.95344   0.00000  Uiso   1.00
C1168  C     0.87195   0.16795   0.54656   0.00000  Uiso   1.00
C1169  C     0.83271   0.16943   0.97653   0.00000  Uiso   1.00
C1170  C     0.83396   0.16943   0.52347   0.00000  Uiso   1.00
C1171  C     0.86954   0.17111   0.95273   0.00000  Uiso   1.00
C1172  C     0.79713   0.17111   0.54727   0.00000  Uiso   1.00
C1173  C     0.75837   0.17430   0.97819   0.00000  Uiso   1.00
C1174  C     0.90830   0.17430   0.52181   0.00000  Uiso   1.00
Cu1175 Cu    0.83333   0.21355   0.75000   0.00000  Uiso   1.00
Cu1176 Cu    0.83333   0.11978   0.75000   0.00000  Uiso   1.00
H1177  H     0.89691   0.17461   0.88792   0.00000  Uiso   1.00
H1178  H     0.76975   0.17461   0.61208   0.00000  Uiso   1.00
H1179  H     0.73179   0.17736   0.54307   0.00000  Uiso   1.00
H1180  H     0.93488   0.17736   0.95693   0.00000  Uiso   1.00
H1181  H     0.80602   0.04323   0.68589   0.00000  Uiso   1.00
H1182  H     0.86118   0.29010   0.81386   0.00000  Uiso   1.00
H1183  H     0.86065   0.04323   0.81411   0.00000  Uiso   1.00
H1184  H     0.80549   0.29010   0.68614   0.00000  Uiso   1.00
N1185  N     0.83333   0.28402   0.75000   0.00000  Uiso   1.00
N1186  N     0.83333   0.04931   0.75000   0.00000  Uiso   1.00
O1187  O     0.77321   0.20625   0.74999   0.00000  Uiso   1.00
O1188  O     0.89345   0.12709   0.75000   0.00000  Uiso   1.00
O1189  O     0.89345   0.20625   0.75000   0.00000  Uiso   1.00
O1190  O     0.77321   0.12709   0.74999   0.00000  Uiso   1.00
O1191  O     0.83332   0.20627   0.68513   0.00000  Uiso   1.00
O1192  O     0.83334   0.12707   0.81487   0.00000  Uiso   1.00
O1193  O     0.83334   0.20627   0.81487   0.00000  Uiso   1.00
O1194  O     0.83332   0.12707   0.68513   0.00000  Uiso   1.00
C1195  C     0.75791   0.14717   0.88094   0.00000  Uiso   1.00
H1196  H     0.75311   0.15916   0.84706   0.00000  Uiso   1.00
O1197  O     0.73402   0.11888   0.89645   0.00000  Uiso   1.00
C1198  C     0.90875   0.14718   0.61906   0.00000  Uiso   1.00
H1199  H     0.91356   0.15916   0.65294   0.00000  Uiso   1.00
O1200  O     0.93265   0.11888   0.60355   0.00000  Uiso   1.00
O1201  O     0.72114   0.18292   0.95792   0.00000  Uiso   1.00
C1202  C     0.71915   0.23087   0.94655   0.00000  Uiso   1.00
H1203  H     0.74287   0.24007   0.92165   0.00000  Uiso   1.00
H1204  H     0.72308   0.25338   0.97663   0.00000  Uiso   1.00
C1205  C     0.67769   0.24143   0.92597   0.00000  Uiso   1.00
H1206  H     0.98686   0.23621   0.95117   0.00000  Uiso   1.00
H1207  H     0.67673   0.27831   0.91438   0.00000  Uiso   1.00
H1208  H     0.67193   0.21797   0.89707   0.00000  Uiso   1.00
O1209  O     0.94552   0.18292   0.54208   0.00000  Uiso   1.00
C1210  C     0.94752   0.23087   0.55345   0.00000  Uiso   1.00
H1211  H     0.92380   0.24007   0.57834   0.00000  Uiso   1.00
H1212  H     0.94358   0.25338   0.52337   0.00000  Uiso   1.00
C1213  C     0.98898   0.24142   0.57403   0.00000  Uiso   1.00
H1214  H     0.67980   0.23621   0.54883   0.00000  Uiso   1.00
H1215  H     0.98994   0.27831   0.58561   0.00000  Uiso   1.00
H1216  H     0.99474   0.21797   0.60293   0.00000  Uiso   1.00
O1217  O     0.70747   0.08177   0.74365   0.00000  Uiso   1.00
C1218  C     0.70593   0.06744   0.69851   0.00000  Uiso   1.00
H1219  H     0.73171   0.08342   0.68007   0.00000  Uiso   1.00
H1220  H     0.67685   0.07701   0.68121   0.00000  Uiso   1.00
C1221  C     0.70970   0.01457   0.69648   0.00000  Uiso   1.00
H1222  H     0.68399   0.33185   0.71450   0.00000  Uiso   1.00
H1223  H     0.70937   0.00254   0.66127   0.00000  Uiso   1.00
H1224  H     0.73820   0.00301   0.71288   0.00000  Uiso   1.00
O1225  O     0.95922   0.25159   0.74035   0.00000  Uiso   1.00
C1226  C     0.95744   0.26003   0.69390   0.00000  Uiso   1.00
H1227  H     0.94225   0.23071   0.67591   0.00000  Uiso   1.00
H1228  H     0.98857   0.26470   0.68009   0.00000  Uiso   1.00
C1229  C     0.93283   0.30412   0.68474   0.00000  Uiso   1.00
H1230  H     0.93228   0.31140   0.64836   0.00000  Uiso   1.00
H1231  H     0.90116   0.29923   0.69631   0.00000  Uiso   1.00
H1232  H     0.94637   0.00123   0.70230   0.00000  Uiso   1.00
O1233  O     0.95920   0.08177   0.75635   0.00000  Uiso   1.00
C1234  C     0.96073   0.06744   0.80149   0.00000  Uiso   1.00
H1235  H     0.93496   0.08342   0.81993   0.00000  Uiso   1.00
H1236  H     0.98982   0.07701   0.81879   0.00000  Uiso   1.00
C1237  C     0.95696   0.01458   0.80353   0.00000  Uiso   1.00
H1238  H     0.98268   0.33184   0.78552   0.00000  Uiso   1.00
H1239  H     0.95728   0.00255   0.83873   0.00000  Uiso   1.00
H1240  H     0.92846   0.00302   0.78712   0.00000  Uiso   1.00
O1241  O     0.70745   0.25159   0.75965   0.00000  Uiso   1.00
C1242  C     0.70923   0.26003   0.80610   0.00000  Uiso   1.00
H1243  H     0.72443   0.23071   0.82409   0.00000  Uiso   1.00
H1244  H     0.67811   0.26469   0.81992   0.00000  Uiso   1.00
C1245  C     0.73384   0.30412   0.81526   0.00000  Uiso   1.00
H1246  H     0.72028   0.00123   0.79771   0.00000  Uiso   1.00
H1247  H     0.73441   0.31138   0.85163   0.00000  Uiso   1.00
H1248  H     0.76551   0.29924   0.80366   0.00000  Uiso   1.00
C1249  C     0.08737   0.50002   0.75008   0.00000  Uiso   1.00
C1250  C     0.24596   0.50002   0.74992   0.00000  Uiso   1.00
C1251  C     0.09325   0.50748   0.52464   0.00000  Uiso   1.00
C1252  C     0.24008   0.50748   0.97535   0.00000  Uiso   1.00
C1253  C     0.02109   0.45763   0.74762   0.00000  Uiso   1.00
C1254  C     0.31225   0.54269   0.74706   0.00000  Uiso   1.00
C1255  C     0.31224   0.45763   0.75238   0.00000  Uiso   1.00
C1256  C     0.02108   0.54269   0.75294   0.00000  Uiso   1.00
C1257  C     0.29059   0.50011   0.74970   0.00000  Uiso   1.00
C1258  C     0.04274   0.50011   0.75031   0.00000  Uiso   1.00
C1259  C     0.15169   0.35810   0.71438   0.00000  Uiso   1.00
C1260  C     0.18192   0.64190   0.78549   0.00000  Uiso   1.00
C1261  C     0.18164   0.35810   0.78562   0.00000  Uiso   1.00
C1262  C     0.15141   0.64190   0.71451   0.00000  Uiso   1.00
C1263  C     0.16677   0.49999   0.66454   0.00000  Uiso   1.00
C1264  C     0.16657   0.49999   0.83545   0.00000  Uiso   1.00
C1265  C     0.20206   0.50498   0.90646   0.00000  Uiso   1.00
C1266  C     0.13128   0.50498   0.59354   0.00000  Uiso   1.00
C1267  C     0.16527   0.50017   0.88362   0.00000  Uiso   1.00
C1268  C     0.16807   0.50017   0.61638   0.00000  Uiso   1.00
C1269  C     0.12813   0.49534   0.90647   0.00000  Uiso   1.00
C1270  C     0.20520   0.49534   0.59353   0.00000  Uiso   1.00
C1271  C     0.12805   0.50129   0.95344   0.00000  Uiso   1.00
C1272  C     0.20529   0.50129   0.54656   0.00000  Uiso   1.00
C1273  C     0.16604   0.50276   0.97653   0.00000  Uiso   1.00
C1274  C     0.16729   0.50276   0.52347   0.00000  Uiso   1.00
C1275  C     0.20287   0.50444   0.95273   0.00000  Uiso   1.00
C1276  C     0.13046   0.50444   0.54727   0.00000  Uiso   1.00
C1277  C     0.09170   0.50764   0.97819   0.00000  Uiso   1.00
C1278  C     0.24163   0.50764   0.52181   0.00000  Uiso   1.00
Cu1279 Cu    0.16667   0.54689   0.75000   0.00000  Uiso   1.00
Cu1280 Cu    0.16667   0.45311   0.75000   0.00000  Uiso   1.00
H1281  H     0.23024   0.50794   0.88792   0.00000  Uiso   1.00
H1282  H     0.10309   0.50794   0.61208   0.00000  Uiso   1.00
H1283  H     0.06512   0.51069   0.54307   0.00000  Uiso   1.00
H1284  H     0.26821   0.51069   0.95693   0.00000  Uiso   1.00
H1285  H     0.13935   0.37656   0.68589   0.00000  Uiso   1.00
H1286  H     0.19451   0.62344   0.81386   0.00000  Uiso   1.00
H1287  H     0.19398   0.37656   0.81411   0.00000  Uiso   1.00
H1288  H     0.13882   0.62344   0.68614   0.00000  Uiso   1.00
N1289  N     0.16667   0.61736   0.75000   0.00000  Uiso   1.00
N1290  N     0.16667   0.38264   0.75000   0.00000  Uiso   1.00
O1291  O     0.10655   0.53958   0.74999   0.00000  Uiso   1.00
O1292  O     0.22679   0.46042   0.75000   0.00000  Uiso   1.00
O1293  O     0.22679   0.53958   0.75000   0.00000  Uiso   1.00
O1294  O     0.10655   0.46042   0.74999   0.00000  Uiso   1.00
O1295  O     0.16666   0.53960   0.68513   0.00000  Uiso   1.00
O1296  O     0.16668   0.46040   0.81487   0.00000  Uiso   1.00
O1297  O     0.16668   0.53960   0.81487   0.00000  Uiso   1.00
O1298  O     0.16666   0.46040   0.68513   0.00000  Uiso   1.00
C1299  C     0.09125   0.48051   0.88094   0.00000  Uiso   1.00
H1300  H     0.08644   0.49249   0.84706   0.00000  Uiso   1.00
O1301  O     0.06735   0.45221   0.89645   0.00000  Uiso   1.00
C1302  C     0.24209   0.48051   0.61906   0.00000  Uiso   1.00
H1303  H     0.24689   0.49249   0.65294   0.00000  Uiso   1.00
O1304  O     0.26598   0.45221   0.60355   0.00000  Uiso   1.00
O1305  O     0.05448   0.51626   0.95792   0.00000  Uiso   1.00
C1306  C     0.05248   0.56420   0.94655   0.00000  Uiso   1.00
H1307  H     0.07621   0.57340   0.92165   0.00000  Uiso   1.00
H1308  H     0.05642   0.58671   0.97663   0.00000  Uiso   1.00
C1309  C     0.01103   0.57476   0.92597   0.00000  Uiso   1.00
H1310  H     0.32020   0.56955   0.95117   0.00000  Uiso   1.00
H1311  H     0.01006   0.61165   0.91438   0.00000  Uiso   1.00
H1312  H     0.00526   0.55130   0.89707   0.00000  Uiso   1.00
O1313  O     0.27885   0.51626   0.54208   0.00000  Uiso   1.00
C1314  C     0.28085   0.56420   0.55345   0.00000  Uiso   1.00
H1315  H     0.25713   0.57340   0.57834   0.00000  Uiso   1.00
H1316  H     0.27692   0.58671   0.52337   0.00000  Uiso   1.00
C1317  C     0.32231   0.57476   0.57403   0.00000  Uiso   1.00
H1318  H     0.01314   0.56954   0.54883   0.00000  Uiso   1.00
H1319  H     0.32328   0.61165   0.58561   0.00000  Uiso   1.00
H1320  H     0.32807   0.55130   0.60293   0.00000  Uiso   1.00
O1321  O     0.04080   0.41510   0.74365   0.00000  Uiso   1.00
C1322  C     0.03926   0.40078   0.69851   0.00000  Uiso   1.00
H1323  H     0.06504   0.41675   0.68007   0.00000  Uiso   1.00
H1324  H     0.01018   0.41034   0.68121   0.00000  Uiso   1.00
C1325  C     0.04304   0.34791   0.69648   0.00000  Uiso   1.00
H1326  H     0.01732   0.66518   0.71450   0.00000  Uiso   1.00
H1327  H     0.04270   0.33587   0.66127   0.00000  Uiso   1.00
H1328  H     0.07154   0.33635   0.71288   0.00000  Uiso   1.00
O1329  O     0.29255   0.58492   0.74035   0.00000  Uiso   1.00
C1330  C     0.29078   0.59336   0.69390   0.00000  Uiso   1.00
H1331  H     0.27558   0.56405   0.67591   0.00000  Uiso   1.00
H1332  H     0.32190   0.59803   0.68009   0.00000  Uiso   1.00
C1333  C     0.26617   0.63746   0.68474   0.00000  Uiso   1.00
H1334  H     0.26561   0.64473   0.64836   0.00000  Uiso   1.00
H1335  H     0.23449   0.63257   0.69631   0.00000  Uiso   1.00
H1336  H     0.27971   0.33456   0.70230   0.00000  Uiso   1.00
O1337  O     0.29253   0.41510   0.75635   0.00000  Uiso   1.00
C1338  C     0.29407   0.40078   0.80149   0.00000  Uiso   1.00
H1339  H     0.26829   0.41676   0.81993   0.00000  Uiso   1.00
H1340  H     0.32315   0.41034   0.81879   0.00000  Uiso   1.00
C1341  C     0.29029   0.34791   0.80353   0.00000  Uiso   1.00
H1342  H     0.31601   0.66518   0.78552   0.00000  Uiso   1.00
H1343  H     0.29061   0.33588   0.83873   0.00000  Uiso   1.00
H1344  H     0.26179   0.33635   0.78712   0.00000  Uiso   1.00
O1345  O     0.04078   0.58492   0.75965   0.00000  Uiso   1.00
C1346  C     0.04256   0.59336   0.80610   0.00000  Uiso   1.00
H1347  H     0.05776   0.56405   0.82409   0.00000  Uiso   1.00
H1348  H     0.01144   0.59803   0.81992   0.00000  Uiso   1.00
C1349  C     0.06717   0.63745   0.81526   0.00000  Uiso   1.00
H1350  H     0.05362   0.33457   0.79771   0.00000  Uiso   1.00
H1351  H     0.06775   0.64472   0.85163   0.00000  Uiso   1.00
H1352  H     0.09884   0.63257   0.80366   0.00000  Uiso   1.00
C1353  C     0.42070   0.50002   0.75008   0.00000  Uiso   1.00
C1354  C     0.57930   0.50002   0.74992   0.00000  Uiso   1.00
C1355  C     0.42659   0.50748   0.52464   0.00000  Uiso   1.00
C1356  C     0.57341   0.50748   0.97535   0.00000  Uiso   1.00
C1357  C     0.35443   0.45763   0.74762   0.00000  Uiso   1.00
C1358  C     0.64559   0.54269   0.74706   0.00000  Uiso   1.00
C1359  C     0.64557   0.45763   0.75238   0.00000  Uiso   1.00
C1360  C     0.35441   0.54269   0.75294   0.00000  Uiso   1.00
C1361  C     0.62392   0.50011   0.74970   0.00000  Uiso   1.00
C1362  C     0.37608   0.50011   0.75031   0.00000  Uiso   1.00
C1363  C     0.48503   0.35810   0.71438   0.00000  Uiso   1.00
C1364  C     0.51526   0.64190   0.78549   0.00000  Uiso   1.00
C1365  C     0.51497   0.35810   0.78562   0.00000  Uiso   1.00
C1366  C     0.48474   0.64190   0.71451   0.00000  Uiso   1.00
C1367  C     0.50010   0.49999   0.66454   0.00000  Uiso   1.00
C1368  C     0.49990   0.49999   0.83545   0.00000  Uiso   1.00
C1369  C     0.53539   0.50498   0.90646   0.00000  Uiso   1.00
C1370  C     0.46461   0.50498   0.59354   0.00000  Uiso   1.00
C1371  C     0.49860   0.50017   0.88362   0.00000  Uiso   1.00
C1372  C     0.50140   0.50017   0.61638   0.00000  Uiso   1.00
C1373  C     0.46146   0.49534   0.90647   0.00000  Uiso   1.00
C1374  C     0.53854   0.49534   0.59353   0.00000  Uiso   1.00
C1375  C     0.46138   0.50129   0.95344   0.00000  Uiso   1.00
C1376  C     0.53862   0.50129   0.54656   0.00000  Uiso   1.00
C1377  C     0.49937   0.50276   0.97653   0.00000  Uiso   1.00
C1378  C     0.50063   0.50276   0.52347   0.00000  Uiso   1.00
C1379  C     0.53621   0.50444   0.95273   0.00000  Uiso   1.00
C1380  C     0.46379   0.50444   0.54727   0.00000  Uiso   1.00
C1381  C     0.42503   0.50764   0.97819   0.00000  Uiso   1.00
C1382  C     0.57497   0.50764   0.52181   0.00000  Uiso   1.00
Cu1383 Cu    0.50000   0.54689   0.75000   0.00000  Uiso   1.00
Cu1384 Cu    0.50000   0.45311   0.75000   0.00000  Uiso   1.00
H1385  H     0.56358   0.50794   0.88792   0.00000  Uiso   1.00
H1386  H     0.43642   0.50794   0.61208   0.00000  Uiso   1.00
H1387  H     0.39845   0.51069   0.54307   0.00000  Uiso   1.00
H1388  H     0.60155   0.51069   0.95693   0.00000  Uiso   1.00
H1389  H     0.47269   0.37656   0.68589   0.00000  Uiso   1.00
H1390  H     0.52785   0.62344   0.81386   0.00000  Uiso   1.00
H1391  H     0.52731   0.37656   0.81411   0.00000  Uiso   1.00
H1392  H     0.47215   0.62344   0.68614   0.00000  Uiso   1.00
N1393  N     0.50000   0.61736   0.75000   0.00000  Uiso   1.00
N1394  N     0.50000   0.38264   0.75000   0.00000  Uiso   1.00
O1395  O     0.43988   0.53958   0.74999   0.00000  Uiso   1.00
O1396  O     0.56012   0.46042   0.75000   0.00000  Uiso   1.00
O1397  O     0.56012   0.53958   0.75000   0.00000  Uiso   1.00
O1398  O     0.43988   0.46042   0.74999   0.00000  Uiso   1.00
O1399  O     0.49999   0.53960   0.68513   0.00000  Uiso   1.00
O1400  O     0.50001   0.46040   0.81487   0.00000  Uiso   1.00
O1401  O     0.50001   0.53960   0.81487   0.00000  Uiso   1.00
O1402  O     0.49999   0.46040   0.68513   0.00000  Uiso   1.00
C1403  C     0.42458   0.48051   0.88094   0.00000  Uiso   1.00
H1404  H     0.41977   0.49249   0.84706   0.00000  Uiso   1.00
O1405  O     0.40068   0.45221   0.89645   0.00000  Uiso   1.00
C1406  C     0.57542   0.48051   0.61906   0.00000  Uiso   1.00
H1407  H     0.58023   0.49249   0.65294   0.00000  Uiso   1.00
O1408  O     0.59932   0.45221   0.60355   0.00000  Uiso   1.00
O1409  O     0.38781   0.51626   0.95792   0.00000  Uiso   1.00
C1410  C     0.38581   0.56420   0.94655   0.00000  Uiso   1.00
H1411  H     0.40954   0.57340   0.92165   0.00000  Uiso   1.00
H1412  H     0.38975   0.58671   0.97663   0.00000  Uiso   1.00
C1413  C     0.34436   0.57476   0.92597   0.00000  Uiso   1.00
H1414  H     0.65353   0.56955   0.95117   0.00000  Uiso   1.00
H1415  H     0.34339   0.61165   0.91438   0.00000  Uiso   1.00
H1416  H     0.33859   0.55130   0.89707   0.00000  Uiso   1.00
O1417  O     0.61219   0.51626   0.54208   0.00000  Uiso   1.00
C1418  C     0.61419   0.56420   0.55345   0.00000  Uiso   1.00
H1419  H     0.59046   0.57340   0.57834   0.00000  Uiso   1.00
H1420  H     0.61025   0.58671   0.52337   0.00000  Uiso   1.00
C1421  C     0.65564   0.57476   0.57403   0.00000  Uiso   1.00
H1422  H     0.34647   0.56954   0.54883   0.00000  Uiso   1.00
H1423  H     0.65661   0.61165   0.58561   0.00000  Uiso   1.00
H1424  H     0.66141   0.55130   0.60293   0.00000  Uiso   1.00
O1425  O     0.37413   0.41510   0.74365   0.00000  Uiso   1.00
C1426  C     0.37260   0.40078   0.69851   0.00000  Uiso   1.00
H1427  H     0.39838   0.41675   0.68007   0.00000  Uiso   1.00
H1428  H     0.34351   0.41034   0.68121   0.00000  Uiso   1.00
C1429  C     0.37637   0.34791   0.69648   0.00000  Uiso   1.00
H1430  H     0.35065   0.66518   0.71450   0.00000  Uiso   1.00
H1431  H     0.37603   0.33587   0.66127   0.00000  Uiso   1.00
H1432  H     0.40487   0.33635   0.71288   0.00000  Uiso   1.00
O1433  O     0.62588   0.58492   0.74035   0.00000  Uiso   1.00
C1434  C     0.62411   0.59336   0.69390   0.00000  Uiso   1.00
H1435  H     0.60891   0.56405   0.67591   0.00000  Uiso   1.00
H1436  H     0.65523   0.59803   0.68009   0.00000  Uiso   1.00
C1437  C     0.59950   0.63746   0.68474   0.00000  Uiso   1.00
H1438  H     0.59894   0.64473   0.64836   0.00000  Uiso   1.00
H1439  H     0.56782   0.63257   0.69631   0.00000  Uiso   1.00
H1440  H     0.61304   0.33456   0.70230   0.00000  Uiso   1.00
O1441  O     0.62587   0.41510   0.75635   0.00000  Uiso   1.00
C1442  C     0.62740   0.40078   0.80149   0.00000  Uiso   1.00
H1443  H     0.60162   0.41676   0.81993   0.00000  Uiso   1.00
H1444  H     0.65648   0.41034   0.81879   0.00000  Uiso   1.00
C1445  C     0.62362   0.34791   0.80353   0.00000  Uiso   1.00
H1446  H     0.64934   0.66518   0.78552   0.00000  Uiso   1.00
H1447  H     0.62394   0.33588   0.83873   0.00000  Uiso   1.00
H1448  H     0.59513   0.33635   0.78712   0.00000  Uiso   1.00
O1449  O     0.37412   0.58492   0.75965   0.00000  Uiso   1.00
C1450  C     0.37590   0.59336   0.80610   0.00000  Uiso   1.00
H1451  H     0.39109   0.56405   0.82409   0.00000  Uiso   1.00
H1452  H     0.34477   0.59803   0.81992   0.00000  Uiso   1.00
C1453  C     0.40050   0.63745   0.81526   0.00000  Uiso   1.00
H1454  H     0.38695   0.33457   0.79771   0.00000  Uiso   1.00
H1455  H     0.40108   0.64472   0.85163   0.00000  Uiso   1.00
H1456  H     0.43217   0.63257   0.80366   0.00000  Uiso   1.00
C1457  C     0.75404   0.50002   0.75008   0.00000  Uiso   1.00
C1458  C     0.91263   0.50002   0.74992   0.00000  Uiso   1.00
C1459  C     0.75992   0.50748   0.52464   0.00000  Uiso   1.00
C1460  C     0.90675   0.50748   0.97535   0.00000  Uiso   1.00
C1461  C     0.68776   0.45763   0.74762   0.00000  Uiso   1.00
C1462  C     0.97892   0.54269   0.74706   0.00000  Uiso   1.00
C1463  C     0.97891   0.45763   0.75238   0.00000  Uiso   1.00
C1464  C     0.68775   0.54269   0.75294   0.00000  Uiso   1.00
C1465  C     0.95726   0.50011   0.74970   0.00000  Uiso   1.00
C1466  C     0.70941   0.50011   0.75031   0.00000  Uiso   1.00
C1467  C     0.81836   0.35810   0.71438   0.00000  Uiso   1.00
C1468  C     0.84859   0.64190   0.78549   0.00000  Uiso   1.00
C1469  C     0.84831   0.35810   0.78562   0.00000  Uiso   1.00
C1470  C     0.81808   0.64190   0.71451   0.00000  Uiso   1.00
C1471  C     0.83343   0.49999   0.66454   0.00000  Uiso   1.00
C1472  C     0.83323   0.49999   0.83545   0.00000  Uiso   1.00
C1473  C     0.86872   0.50498   0.90646   0.00000  Uiso   1.00
C1474  C     0.79794   0.50498   0.59354   0.00000  Uiso   1.00
C1475  C     0.83193   0.50017   0.88362   0.00000  Uiso   1.00
C1476  C     0.83473   0.50017   0.61638   0.00000  Uiso   1.00
C1477  C     0.79479   0.49534   0.90647   0.00000  Uiso   1.00
C1478  C     0.87187   0.49534   0.59353   0.00000  Uiso   1.00
C1479  C     0.79471   0.50129   0.95344   0.00000  Uiso   1.00
C1480  C     0.87195   0.50129   0.54656   0.00000  Uiso   1.00
C1481  C     0.83271   0.50276   0.97653   0.00000  Uiso   1.00
C1482  C     0.83396   0.50276   0.52347   0.00000  Uiso   1.00
C1483  C     0.86954   0.50444   0.95273   0.00000  Uiso   1.00
C1484  C     0.79713   0.50444   0.54727   0.00000  Uiso   1.00
C1485  C     0.75837   0.50764   0.97819   0.00000  Uiso   1.00
C1486  C     0.90830   0.50764   0.52181   0.00000  Uiso   1.00
Cu1487 Cu    0.83333   0.54689   0.75000   0.00000  Uiso   1.00
Cu1488 Cu    0.83333   0.45311   0.75000   0.00000  Uiso   1.00
H1489  H     0.89691   0.50794   0.88792   0.00000  Uiso   1.00
H1490  H     0.76975   0.50794   0.61208   0.00000  Uiso   1.00
H1491  H     0.73179   0.51069   0.54307   0.00000  Uiso   1.00
H1492  H     0.93488   0.51069   0.95693   0.00000  Uiso   1.00
H1493  H     0.80602   0.37656   0.68589   0.00000  Uiso   1.00
H1494  H     0.86118   0.62344   0.81386   0.00000  Uiso   1.00
H1495  H     0.86065   0.37656   0.81411   0.00000  Uiso   1.00
H1496  H     0.80549   0.62344   0.68614   0.00000  Uiso   1.00
N1497  N     0.83333   0.61736   0.75000   0.00000  Uiso   1.00
N1498  N     0.83333   0.38264   0.75000   0.00000  Uiso   1.00
O1499  O     0.77321   0.53958   0.74999   0.00000  Uiso   1.00
O1500  O     0.89345   0.46042   0.75000   0.00000  Uiso   1.00
O1501  O     0.89345   0.53958   0.75000   0.00000  Uiso   1.00
O1502  O     0.77321   0.46042   0.74999   0.00000  Uiso   1.00
O1503  O     0.83332   0.53960   0.68513   0.00000  Uiso   1.00
O1504  O     0.83334   0.46040   0.81487   0.00000  Uiso   1.00
O1505  O     0.83334   0.53960   0.81487   0.00000  Uiso   1.00
O1506  O     0.83332   0.46040   0.68513   0.00000  Uiso   1.00
C1507  C     0.75791   0.48051   0.88094   0.00000  Uiso   1.00
H1508  H     0.75311   0.49249   0.84706   0.00000  Uiso   1.00
O1509  O     0.73402   0.45221   0.89645   0.00000  Uiso   1.00
C1510  C     0.90875   0.48051   0.61906   0.00000  Uiso   1.00
H1511  H     0.91356   0.49249   0.65294   0.00000  Uiso   1.00
O1512  O     0.93265   0.45221   0.60355   0.00000  Uiso   1.00
O1513  O     0.72114   0.51626   0.95792   0.00000  Uiso   1.00
C1514  C     0.71915   0.56420   0.94655   0.00000  Uiso   1.00
H1515  H     0.74287   0.57340   0.92165   0.00000  Uiso   1.00
H1516  H     0.72308   0.58671   0.97663   0.00000  Uiso   1.00
C1517  C     0.67769   0.57476   0.92597   0.00000  Uiso   1.00
H1518  H     0.98686   0.56955   0.95117   0.00000  Uiso   1.00
H1519  H     0.67673   0.61165   0.91438   0.00000  Uiso   1.00
H1520  H     0.67193   0.55130   0.89707   0.00000  Uiso   1.00
O1521  O     0.94552   0.51626   0.54208   0.00000  Uiso   1.00
C1522  C     0.94752   0.56420   0.55345   0.00000  Uiso   1.00
H1523  H     0.92380   0.57340   0.57834   0.00000  Uiso   1.00
H1524  H     0.94358   0.58671   0.52337   0.00000  Uiso   1.00
C1525  C     0.98898   0.57476   0.57403   0.00000  Uiso   1.00
H1526  H     0.67980   0.56954   0.54883   0.00000  Uiso   1.00
H1527  H     0.98994   0.61165   0.58561   0.00000  Uiso   1.00
H1528  H     0.99474   0.55130   0.60293   0.00000  Uiso   1.00
O1529  O     0.70747   0.41510   0.74365   0.00000  Uiso   1.00
C1530  C     0.70593   0.40078   0.69851   0.00000  Uiso   1.00
H1531  H     0.73171   0.41675   0.68007   0.00000  Uiso   1.00
H1532  H     0.67685   0.41034   0.68121   0.00000  Uiso   1.00
C1533  C     0.70970   0.34791   0.69648   0.00000  Uiso   1.00
H1534  H     0.68399   0.66518   0.71450   0.00000  Uiso   1.00
H1535  H     0.70937   0.33587   0.66127   0.00000  Uiso   1.00
H1536  H     0.73820   0.33635   0.71288   0.00000  Uiso   1.00
O1537  O     0.95922   0.58492   0.74035   0.00000  Uiso   1.00
C1538  C     0.95744   0.59336   0.69390   0.00000  Uiso   1.00
H1539  H     0.94225   0.56405   0.67591   0.00000  Uiso   1.00
H1540  H     0.98857   0.59803   0.68009   0.00000  Uiso   1.00
C1541  C     0.93283   0.63746   0.68474   0.00000  Uiso   1.00
H1542  H     0.93228   0.64473   0.64836   0.00000  Uiso   1.00
H1543  H     0.90116   0.63257   0.69631   0.00000  Uiso   1.00
H1544  H     0.94637   0.33456   0.70230   0.00000  Uiso   1.00
O1545  O     0.95920   0.41510   0.75635   0.00000  Uiso   1.00
C1546  C     0.96073   0.40078   0.80149   0.00000  Uiso   1.00
H1547  H     0.93496   0.41676   0.81993   0.00000  Uiso   1.00
H1548  H     0.98982   0.41034   0.81879   0.00000  Uiso   1.00
C1549  C     0.95696   0.34791   0.80353   0.00000  Uiso   1.00
H1550  H     0.98268   0.66518   0.78552   0.00000  Uiso   1.00
H1551  H     0.95728   0.33588   0.83873   0.00000  Uiso   1.00
H1552  H     0.92846   0.33635   0.78712   0.00000  Uiso   1.00
O1553  O     0.70745   0.58492   0.75965   0.00000  Uiso   1.00
C1554  C     0.70923   0.59336   0.80610   0.00000  Uiso   1.00
H1555  H     0.72443   0.56405   0.82409   0.00000  Uiso   1.00
H1556  H     0.67811   0.59803   0.81992   0.00000  Uiso   1.00
C1557  C     0.73384   0.63745   0.81526   0.00000  Uiso   1.00
H1558  H     0.72028   0.33457   0.79771   0.00000  Uiso   1.00
H1559  H     0.73441   0.64472   0.85163   0.00000  Uiso   1.00
H1560  H     0.76551   0.63257   0.80366   0.00000  Uiso   1.00
C1561  C     0.08737   0.83335   0.75008   0.00000  Uiso   1.00
C1562  C     0.24596   0.83335   0.74992   0.00000  Uiso   1.00
C1563  C     0.09325   0.84081   0.52464   0.00000  Uiso   1.00
C1564  C     0.24008   0.84081   0.97535   0.00000  Uiso   1.00
C1565  C     0.02109   0.79097   0.74762   0.00000  Uiso   1.00
C1566  C     0.31225   0.87603   0.74706   0.00000  Uiso   1.00
C1567  C     0.31224   0.79097   0.75238   0.00000  Uiso   1.00
C1568  C     0.02108   0.87603   0.75294   0.00000  Uiso   1.00
C1569  C     0.29059   0.83344   0.74970   0.00000  Uiso   1.00
C1570  C     0.04274   0.83344   0.75031   0.00000  Uiso   1.00
C1571  C     0.15169   0.69143   0.71438   0.00000  Uiso   1.00
C1572  C     0.18192   0.97523   0.78549   0.00000  Uiso   1.00
C1573  C     0.18164   0.69143   0.78562   0.00000  Uiso   1.00
C1574  C     0.15141   0.97523   0.71451   0.00000  Uiso   1.00
C1575  C     0.16677   0.83332   0.66454   0.00000  Uiso   1.00
C1576  C     0.16657   0.83332   0.83545   0.00000  Uiso   1.00
C1577  C     0.20206   0.83831   0.90646   0.00000  Uiso   1.00
C1578  C     0.13128   0.83831   0.59354   0.00000  Uiso   1.00
C1579  C     0.16527   0.83350   0.88362   0.00000  Uiso   1.00
C1580  C     0.16807   0.83350   0.61638   0.00000  Uiso   1.00
C1581  C     0.12813   0.82867   0.90647   0.00000  Uiso   1.00
C1582  C     0.20520   0.82867   0.59353   0.00000  Uiso   1.00
C1583  C     0.12805   0.83462   0.95344   0.00000  Uiso   1.00
C1584  C     0.20529   0.83462   0.54656   0.00000  Uiso   1.00
C1585  C     0.16604   0.83610   0.97653   0.00000  Uiso   1.00
C1586  C     0.16729   0.83610   0.52347   0.00000  Uiso   1.00
C1587  C     0.20287   0.83778   0.95273   0.00000  Uiso   1.00
C1588  C     0.13046   0.83778   0.54727   0.00000  Uiso   1.00
C1589  C     0.09170   0.84097   0.97819   0.00000  Uiso   1.00
C1590  C     0.24163   0.84097   0.52181   0.00000  Uiso   1.00
Cu1591 Cu    0.16667   0.88022   0.75000   0.00000  Uiso   1.00
Cu1592 Cu    0.16667   0.78645   0.75000   0.00000  Uiso   1.00
H1593  H     0.23024   0.84127   0.88792   0.00000  Uiso   1.00
H1594  H     0.10309   0.84127   0.61208   0.00000  Uiso   1.00
H1595  H     0.06512   0.84402   0.54307   0.00000  Uiso   1.00
H1596  H     0.26821   0.84402   0.95693   0.00000  Uiso   1.00
H1597  H     0.13935   0.70989   0.68589   0.00000  Uiso   1.00
H1598  H     0.19451   0.95677   0.81386   0.00000  Uiso   1.00
H1599  H     0.19398   0.70989   0.81411   0.00000  Uiso   1.00
H1600  H     0.13882   0.95677   0.68614   0.00000  Uiso   1.00
N1601  N     0.16667   0.95069   0.75000   0.00000  Uiso   1.00
N1602  N     0.16667   0.71598   0.75000   0.00000  Uiso   1.00
O1603  O     0.10655   0.87291   0.74999   0.00000  Uiso   1.00
O1604  O     0.22679   0.79375   0.75000   0.00000  Uiso   1.00
O1605  O     0.22679   0.87291   0.75000   0.00000  Uiso   1.00
O1606  O     0.10655   0.79375   0.74999   0.00000  Uiso   1.00
O1607  O     0.16666   0.87293   0.68513   0.00000  Uiso   1.00
O1608  O     0.16668   0.79373   0.81487   0.00000  Uiso   1.00
O1609  O     0.16668   0.87293   0.81487   0.00000  Uiso   1.00
O1610  O     0.16666   0.79373   0.68513   0.00000  Uiso   1.00
C1611  C     0.09125   0.81384   0.88094   0.00000  Uiso   1.00
H1612  H     0.08644   0.82582   0.84706   0.00000  Uiso   1.00
O1613  O     0.06735   0.78555   0.89645   0.00000  Uiso   1.00
C1614  C     0.24209   0.81384   0.61906   0.00000  Uiso   1.00
H1615  H     0.24689   0.82583   0.65294   0.00000  Uiso   1.00
O1616  O     0.26598   0.78555   0.60355   0.00000  Uiso   1.00
O1617  O     0.05448   0.84959   0.95792   0.00000  Uiso   1.00
C1618  C     0.05248   0.89754   0.94655   0.00000  Uiso   1.00
H1619  H     0.07621   0.90673   0.92165   0.00000  Uiso   1.00
H1620  H     0.05642   0.92005   0.97663   0.00000  Uiso   1.00
C1621  C     0.01103   0.90809   0.92597   0.00000  Uiso   1.00
H1622  H     0.32020   0.90288   0.95117   0.00000  Uiso   1.00
H1623  H     0.01006   0.94498   0.91438   0.00000  Uiso   1.00
H1624  H     0.00526   0.88464   0.89707   0.00000  Uiso   1.00
O1625  O     0.27885   0.84959   0.54208   0.00000  Uiso   1.00
C1626  C     0.28085   0.89754   0.55345   0.00000  Uiso   1.00
H1627  H     0.25713   0.90673   0.57834   0.00000  Uiso   1.00
H1628  H     0.27692   0.92004   0.52337   0.00000  Uiso   1.00
C1629  C     0.32231   0.90809   0.57403   0.00000  Uiso   1.00
H1630  H     0.01314   0.90288   0.54883   0.00000  Uiso   1.00
H1631  H     0.32328   0.94498   0.58561   0.00000  Uiso   1.00
H1632  H     0.32807   0.88464   0.60293   0.00000  Uiso   1.00
O1633  O     0.04080   0.74844   0.74365   0.00000  Uiso   1.00
C1634  C     0.03926   0.73411   0.69851   0.00000  Uiso   1.00
H1635  H     0.06504   0.75009   0.68007   0.00000  Uiso   1.00
H1636  H     0.01018   0.74368   0.68121   0.00000  Uiso   1.00
C1637  C     0.04304   0.68124   0.69648   0.00000  Uiso   1.00
H1638  H     0.01732   0.99851   0.71450   0.00000  Uiso   1.00
H1639  H     0.04270   0.66921   0.66127   0.00000  Uiso   1.00
H1640  H     0.07154   0.66968   0.71288   0.00000  Uiso   1.00
O1641  O     0.29255   0.91825   0.74035   0.00000  Uiso   1.00
C1642  C     0.29078   0.92670   0.69390   0.00000  Uiso   1.00
H1643  H     0.27558   0.89738   0.67591   0.00000  Uiso   1.00
H1644  H     0.32190   0.93136   0.68009   0.00000  Uiso   1.00
C1645  C     0.26617   0.97079   0.68474   0.00000  Uiso   1.00
H1646  H     0.26561   0.97806   0.64836   0.00000  Uiso   1.00
H1647  H     0.23449   0.96590   0.69631   0.00000  Uiso   1.00
H1648  H     0.27971   0.66790   0.70230   0.00000  Uiso   1.00
O1649  O     0.29253   0.74844   0.75635   0.00000  Uiso   1.00
C1650  C     0.29407   0.73411   0.80149   0.00000  Uiso   1.00
H1651  H     0.26829   0.75009   0.81993   0.00000  Uiso   1.00
H1652  H     0.32315   0.74368   0.81879   0.00000  Uiso   1.00
C1653  C     0.29029   0.68124   0.80353   0.00000  Uiso   1.00
H1654  H     0.31601   0.99851   0.78552   0.00000  Uiso   1.00
H1655  H     0.29061   0.66921   0.83873   0.00000  Uiso   1.00
H1656  H     0.26179   0.66968   0.78712   0.00000  Uiso   1.00
O1657  O     0.04078   0.91826   0.75965   0.00000  Uiso   1.00
C1658  C     0.04256   0.92670   0.80610   0.00000  Uiso   1.00
H1659  H     0.05776   0.89738   0.82409   0.00000  Uiso   1.00
H1660  H     0.01144   0.93136   0.81992   0.00000  Uiso   1.00
C1661  C     0.06717   0.97079   0.81526   0.00000  Uiso   1.00
H1662  H     0.05362   0.66790   0.79771   0.00000  Uiso   1.00
H1663  H     0.06775   0.97805   0.85163   0.00000  Uiso   1.00
H1664  H     0.09884   0.96591   0.80366   0.00000  Uiso   1.00
C1665  C     0.42070   0.83335   0.75008   0.00000  Uiso   1.00
C1666  C     0.57930   0.83335   0.74992   0.00000  Uiso   1.00
C1667  C     0.42659   0.84081   0.52464   0.00000  Uiso   1.00
C1668  C     0.57341   0.84081   0.97535   0.00000  Uiso   1.00
C1669  C     0.35443   0.79097   0.74762   0.00000  Uiso   1.00
C1670  C     0.64559   0.87603   0.74706   0.00000  Uiso   1.00
C1671  C     0.64557   0.79097   0.75238   0.00000  Uiso   1.00
C1672  C     0.35441   0.87603   0.75294   0.00000  Uiso   1.00
C1673  C     0.62392   0.83344   0.74970   0.00000  Uiso   1.00
C1674  C     0.37608   0.83344   0.75031   0.00000  Uiso   1.00
C1675  C     0.48503   0.69143   0.71438   0.00000  Uiso   1.00
C1676  C     0.51526   0.97523   0.78549   0.00000  Uiso   1.00
C1677  C     0.51497   0.69143   0.78562   0.00000  Uiso   1.00
C1678  C     0.48474   0.97523   0.71451   0.00000  Uiso   1.00
C1679  C     0.50010   0.83332   0.66454   0.00000  Uiso   1.00
C1680  C     0.49990   0.83332   0.83545   0.00000  Uiso   1.00
C1681  C     0.53539   0.83831   0.90646   0.00000  Uiso   1.00
C1682  C     0.46461   0.83831   0.59354   0.00000  Uiso   1.00
C1683  C     0.49860   0.83350   0.88362   0.00000  Uiso   1.00
C1684  C     0.50140   0.83350   0.61638   0.00000  Uiso   1.00
C1685  C     0.46146   0.82867   0.90647   0.00000  Uiso   1.00
C1686  C     0.53854   0.82867   0.59353   0.00000  Uiso   1.00
C1687  C     0.46138   0.83462   0.95344   0.00000  Uiso   1.00
C1688  C     0.53862   0.83462   0.54656   0.00000  Uiso   1.00
C1689  C     0.49937   0.83610   0.97653   0.00000  Uiso   1.00
C1690  C     0.50063   0.83610   0.52347   0.00000  Uiso   1.00
C1691  C     0.53621   0.83778   0.95273   0.00000  Uiso   1.00
C1692  C     0.46379   0.83778   0.54727   0.00000  Uiso   1.00
C1693  C     0.42503   0.84097   0.97819   0.00000  Uiso   1.00
C1694  C     0.57497   0.84097   0.52181   0.00000  Uiso   1.00
Cu1695 Cu    0.50000   0.88022   0.75000   0.00000  Uiso   1.00
Cu1696 Cu    0.50000   0.78645   0.75000   0.00000  Uiso   1.00
H1697  H     0.56358   0.84127   0.88792   0.00000  Uiso   1.00
H1698  H     0.43642   0.84127   0.61208   0.00000  Uiso   1.00
H1699  H     0.39845   0.84402   0.54307   0.00000  Uiso   1.00
H1700  H     0.60155   0.84402   0.95693   0.00000  Uiso   1.00
H1701  H     0.47269   0.70989   0.68589   0.00000  Uiso   1.00
H1702  H     0.52785   0.95677   0.81386   0.00000  Uiso   1.00
H1703  H     0.52731   0.70989   0.81411   0.00000  Uiso   1.00
H1704  H     0.47215   0.95677   0.68614   0.00000  Uiso   1.00
N1705  N     0.50000   0.95069   0.75000   0.00000  Uiso   1.00
N1706  N     0.50000   0.71598   0.75000   0.00000  Uiso   1.00
O1707  O     0.43988   0.87291   0.74999   0.00000  Uiso   1.00
O1708  O     0.56012   0.79375   0.75000   0.00000  Uiso   1.00
O1709  O     0.56012   0.87291   0.75000   0.00000  Uiso   1.00
O1710  O     0.43988   0.79375   0.74999   0.00000  Uiso   1.00
O1711  O     0.49999   0.87293   0.68513   0.00000  Uiso   1.00
O1712  O     0.50001   0.79373   0.81487   0.00000  Uiso   1.00
O1713  O     0.50001   0.87293   0.81487   0.00000  Uiso   1.00
O1714  O     0.49999   0.79373   0.68513   0.00000  Uiso   1.00
C1715  C     0.42458   0.81384   0.88094   0.00000  Uiso   1.00
H1716  H     0.41977   0.82582   0.84706   0.00000  Uiso   1.00
O1717  O     0.40068   0.78555   0.89645   0.00000  Uiso   1.00
C1718  C     0.57542   0.81384   0.61906   0.00000  Uiso   1.00
H1719  H     0.58023   0.82583   0.65294   0.00000  Uiso   1.00
O1720  O     0.59932   0.78555   0.60355   0.00000  Uiso   1.00
O1721  O     0.38781   0.84959   0.95792   0.00000  Uiso   1.00
C1722  C     0.38581   0.89754   0.94655   0.00000  Uiso   1.00
H1723  H     0.40954   0.90673   0.92165   0.00000  Uiso   1.00
H1724  H     0.38975   0.92005   0.97663   0.00000  Uiso   1.00
C1725  C     0.34436   0.90809   0.92597   0.00000  Uiso   1.00
H1726  H     0.65353   0.90288   0.95117   0.00000  Uiso   1.00
H1727  H     0.34339   0.94498   0.91438   0.00000  Uiso   1.00
H1728  H     0.33859   0.88464   0.89707   0.00000  Uiso   1.00
O1729  O     0.61219   0.84959   0.54208   0.00000  Uiso   1.00
C1730  C     0.61419   0.89754   0.55345   0.00000  Uiso   1.00
H1731  H     0.59046   0.90673   0.57834   0.00000  Uiso   1.00
H1732  H     0.61025   0.92004   0.52337   0.00000  Uiso   1.00
C1733  C     0.65564   0.90809   0.57403   0.00000  Uiso   1.00
H1734  H     0.34647   0.90288   0.54883   0.00000  Uiso   1.00
H1735  H     0.65661   0.94498   0.58561   0.00000  Uiso   1.00
H1736  H     0.66141   0.88464   0.60293   0.00000  Uiso   1.00
O1737  O     0.37413   0.74844   0.74365   0.00000  Uiso   1.00
C1738  C     0.37260   0.73411   0.69851   0.00000  Uiso   1.00
H1739  H     0.39838   0.75009   0.68007   0.00000  Uiso   1.00
H1740  H     0.34351   0.74368   0.68121   0.00000  Uiso   1.00
C1741  C     0.37637   0.68124   0.69648   0.00000  Uiso   1.00
H1742  H     0.35065   0.99851   0.71450   0.00000  Uiso   1.00
H1743  H     0.37603   0.66921   0.66127   0.00000  Uiso   1.00
H1744  H     0.40487   0.66968   0.71288   0.00000  Uiso   1.00
O1745  O     0.62588   0.91825   0.74035   0.00000  Uiso   1.00
C1746  C     0.62411   0.92670   0.69390   0.00000  Uiso   1.00
H1747  H     0.60891   0.89738   0.67591   0.00000  Uiso   1.00
H1748  H     0.65523   0.93136   0.68009   0.00000  Uiso   1.00
C1749  C     0.59950   0.97079   0.68474   0.00000  Uiso   1.00
H1750  H     0.59894   0.97806   0.64836   0.00000  Uiso   1.00
H1751  H     0.56782   0.96590   0.69631   0.00000  Uiso   1.00
H1752  H     0.61304   0.66790   0.70230   0.00000  Uiso   1.00
O1753  O     0.62587   0.74844   0.75635   0.00000  Uiso   1.00
C1754  C     0.62740   0.73411   0.80149   0.00000  Uiso   1.00
H1755  H     0.60162   0.75009   0.81993   0.00000  Uiso   1.00
H1756  H     0.65648   0.74368   0.81879   0.00000  Uiso   1.00
C1757  C     0.62362   0.68124   0.80353   0.00000  Uiso   1.00
H1758  H     0.64934   0.99851   0.78552   0.00000  Uiso   1.00
H1759  H     0.62394   0.66921   0.83873   0.00000  Uiso   1.00
H1760  H     0.59513   0.66968   0.78712   0.00000  Uiso   1.00
O1761  O     0.37412   0.91826   0.75965   0.00000  Uiso   1.00
C1762  C     0.37590   0.92670   0.80610   0.00000  Uiso   1.00
H1763  H     0.39109   0.89738   0.82409   0.00000  Uiso   1.00
H1764  H     0.34477   0.93136   0.81992   0.00000  Uiso   1.00
C1765  C     0.40050   0.97079   0.81526   0.00000  Uiso   1.00
H1766  H     0.38695   0.66790   0.79771   0.00000  Uiso   1.00
H1767  H     0.40108   0.97805   0.85163   0.00000  Uiso   1.00
H1768  H     0.43217   0.96591   0.80366   0.00000  Uiso   1.00
C1769  C     0.75404   0.83335   0.75008   0.00000  Uiso   1.00
C1770  C     0.91263   0.83335   0.74992   0.00000  Uiso   1.00
C1771  C     0.75992   0.84081   0.52464   0.00000  Uiso   1.00
C1772  C     0.90675   0.84081   0.97535   0.00000  Uiso   1.00
C1773  C     0.68776   0.79097   0.74762   0.00000  Uiso   1.00
C1774  C     0.97892   0.87603   0.74706   0.00000  Uiso   1.00
C1775  C     0.97891   0.79097   0.75238   0.00000  Uiso   1.00
C1776  C     0.68775   0.87603   0.75294   0.00000  Uiso   1.00
C1777  C     0.95726   0.83344   0.74970   0.00000  Uiso   1.00
C1778  C     0.70941   0.83344   0.75031   0.00000  Uiso   1.00
C1779  C     0.81836   0.69143   0.71438   0.00000  Uiso   1.00
C1780  C     0.84859   0.97523   0.78549   0.00000  Uiso   1.00
C1781  C     0.84831   0.69143   0.78562   0.00000  Uiso   1.00
C1782  C     0.81808   0.97523   0.71451   0.00000  Uiso   1.00
C1783  C     0.83343   0.83332   0.66454   0.00000  Uiso   1.00
C1784  C     0.83323   0.83332   0.83545   0.00000  Uiso   1.00
C1785  C     0.86872   0.83831   0.90646   0.00000  Uiso   1.00
C1786  C     0.79794   0.83831   0.59354   0.00000  Uiso   1.00
C1787  C     0.83193   0.83350   0.88362   0.00000  Uiso   1.00
C1788  C     0.83473   0.83350   0.61638   0.00000  Uiso   1.00
C1789  C     0.79479   0.82867   0.90647   0.00000  Uiso   1.00
C1790  C     0.87187   0.82867   0.59353   0.00000  Uiso   1.00
C1791  C     0.79471   0.83462   0.95344   0.00000  Uiso   1.00
C1792  C     0.87195   0.83462   0.54656   0.00000  Uiso   1.00
C1793  C     0.83271   0.83610   0.97653   0.00000  Uiso   1.00
C1794  C     0.83396   0.83610   0.52347   0.00000  Uiso   1.00
C1795  C     0.86954   0.83778   0.95273   0.00000  Uiso   1.00
C1796  C     0.79713   0.83778   0.54727   0.00000  Uiso   1.00
C1797  C     0.75837   0.84097   0.97819   0.00000  Uiso   1.00
C1798  C     0.90830   0.84097   0.52181   0.00000  Uiso   1.00
Cu1799 Cu    0.83333   0.88022   0.75000   0.00000  Uiso   1.00
Cu1800 Cu    0.83333   0.78645   0.75000   0.00000  Uiso   1.00
H1801  H     0.89691   0.84127   0.88792   0.00000  Uiso   1.00
H1802  H     0.76975   0.84127   0.61208   0.00000  Uiso   1.00
H1803  H     0.73179   0.84402   0.54307   0.00000  Uiso   1.00
H1804  H     0.93488   0.84402   0.95693   0.00000  Uiso   1.00
H1805  H     0.80602   0.70989   0.68589   0.00000  Uiso   1.00
H1806  H     0.86118   0.95677   0.81386   0.00000  Uiso   1.00
H1807  H     0.86065   0.70989   0.81411   0.00000  Uiso   1.00
H1808  H     0.80549   0.95677   0.68614   0.00000  Uiso   1.00
N1809  N     0.83333   0.95069   0.75000   0.00000  Uiso   1.00
N1810  N     0.83333   0.71598   0.75000   0.00000  Uiso   1.00
O1811  O     0.77321   0.87291   0.74999   0.00000  Uiso   1.00
O1812  O     0.89345   0.79375   0.75000   0.00000  Uiso   1.00
O1813  O     0.89345   0.87291   0.75000   0.00000  Uiso   1.00
O1814  O     0.77321   0.79375   0.74999   0.00000  Uiso   1.00
O1815  O     0.83332   0.87293   0.68513   0.00000  Uiso   1.00
O1816  O     0.83334   0.79373   0.81487   0.00000  Uiso   1.00
O1817  O     0.83334   0.87293   0.81487   0.00000  Uiso   1.00
O1818  O     0.83332   0.79373   0.68513   0.00000  Uiso   1.00
C1819  C     0.75791   0.81384   0.88094   0.00000  Uiso   1.00
H1820  H     0.75311   0.82582   0.84706   0.00000  Uiso   1.00
O1821  O     0.73402   0.78555   0.89645   0.00000  Uiso   1.00
C1822  C     0.90875   0.81384   0.61906   0.00000  Uiso   1.00
H1823  H     0.91356   0.82583   0.65294   0.00000  Uiso   1.00
O1824  O     0.93265   0.78555   0.60355   0.00000  Uiso   1.00
O1825  O     0.72114   0.84959   0.95792   0.00000  Uiso   1.00
C1826  C     0.71915   0.89754   0.94655   0.00000  Uiso   1.00
H1827  H     0.74287   0.90673   0.92165   0.00000  Uiso   1.00
H1828  H     0.72308   0.92005   0.97663   0.00000  Uiso   1.00
C1829  C     0.67769   0.90809   0.92597   0.00000  Uiso   1.00
H1830  H     0.98686   0.90288   0.95117   0.00000  Uiso   1.00
H1831  H     0.67673   0.94498   0.91438   0.00000  Uiso   1.00
H1832  H     0.67193   0.88464   0.89707   0.00000  Uiso   1.00
O1833  O     0.94552   0.84959   0.54208   0.00000  Uiso   1.00
C1834  C     0.94752   0.89754   0.55345   0.00000  Uiso   1.00
H1835  H     0.92380   0.90673   0.57834   0.00000  Uiso   1.00
H1836  H     0.94358   0.92004   0.52337   0.00000  Uiso   1.00
C1837  C     0.98898   0.90809   0.57403   0.00000  Uiso   1.00
H1838  H     0.67980   0.90288   0.54883   0.00000  Uiso   1.00
H1839  H     0.98994   0.94498   0.58561   0.00000  Uiso   1.00
H1840  H     0.99474   0.88464   0.60293   0.00000  Uiso   1.00
O1841  O     0.70747   0.74844   0.74365   0.00000  Uiso   1.00
C1842  C     0.70593   0.73411   0.69851   0.00000  Uiso   1.00
H1843  H     0.73171   0.75009   0.68007   0.00000  Uiso   1.00
H1844  H     0.67685   0.74368   0.68121   0.00000  Uiso   1.00
C1845  C     0.70970   0.68124   0.69648   0.00000  Uiso   1.00
H1846  H     0.68399   0.99851   0.71450   0.00000  Uiso   1.00
H1847  H     0.70937   0.66921   0.66127   0.00000  Uiso   1.00
H1848  H     0.73820   0.66968   0.71288   0.00000  Uiso   1.00
O1849  O     0.95922   0.91825   0.74035   0.00000  Uiso   1.00
C1850  C     0.95744   0.92670   0.69390   0.00000  Uiso   1.00
H1851  H     0.94225   0.89738   0.67591   0.00000  Uiso   1.00
H1852  H     0.98857   0.93136   0.68009   0.00000  Uiso   1.00
C1853  C     0.93283   0.97079   0.68474   0.00000  Uiso   1.00
H1854  H     0.93228   0.97806   0.64836   0.00000  Uiso   1.00
H1855  H     0.90116   0.96590   0.69631   0.00000  Uiso   1.00
H1856  H     0.94637   0.66790   0.70230   0.00000  Uiso   1.00
O1857  O     0.95920   0.74844   0.75635   0.00000  Uiso   1.00
C1858  C     0.96073   0.73411   0.80149   0.00000  Uiso   1.00
H1859  H     0.93496   0.75009   0.81993   0.00000  Uiso   1.00
H1860  H     0.98982   0.74368   0.81879   0.00000  Uiso   1.00
C1861  C     0.95696   0.68124   0.80353   0.00000  Uiso   1.00
H1862  H     0.98268   0.99851   0.78552   0.00000  Uiso   1.00
H1863  H     0.95728   0.66921   0.83873   0.00000  Uiso   1.00
H1864  H     0.92846   0.66968   0.78712   0.00000  Uiso   1.00
O1865  O     0.70745   0.91826   0.75965   0.00000  Uiso   1.00
C1866  C     0.70923   0.92670   0.80610   0.00000  Uiso   1.00
H1867  H     0.72443   0.89738   0.82409   0.00000  Uiso   1.00
H1868  H     0.67811   0.93136   0.81992   0.00000  Uiso   1.00
C1869  C     0.73384   0.97079   0.81526   0.00000  Uiso   1.00
H1870  H     0.72028   0.66790   0.79771   0.00000  Uiso   1.00
H1871  H     0.73441   0.97805   0.85163   0.00000  Uiso   1.00
H1872  H     0.76551   0.96591   0.80366   0.00000  Uiso   1.00
loop_
_geom_bond_atom_site_label_1
_geom_bond_atom_site_label_2
_geom_bond_distance
_geom_bond_site_symmetry_2
_ccdc_geom_bond_type
C1     O46     1.295   .     A
C1     O43     1.294   .     A
C1     C10     1.465   .     S
C2     O44     1.295   .     A
C2     O45     1.294   .     A
C2     C9      1.465   .     S
C3     C28     1.396   .     A
C3     H35     1.083   .     S
C3     C965    1.394   1_554 S
C4     H36     1.083   .     S
C4     C27     1.396   .     A
C4     C966    1.394   .     S
C5     C10     1.409   .     A
C5     O73     1.383   .     S
C5     C215    1.393   1_455 S
C6     C9      1.412   .     A
C6     O81     1.383   .     S
C6     C112    1.394   .     S
C7     O89     1.383   .     S
C7     C9      1.409   .     A
C7     C109    1.393   .     S
C8     O97     1.383   .     S
C8     C10     1.412   .     A
C8     C214    1.394   1_455 S
C11    N42     1.367   .     A
C11    H37     1.081   .     S
C11    C638    1.416   1_545 S
C12    H38     1.081   .     S
C12    N41     1.367   .     A
C12    C325    1.416   .     S
C13    N42     1.366   .     A
C13    H39     1.081   .     S
C13    C636    1.416   1_545 S
C14    N41     1.367   .     A
C14    H40     1.081   .     S
C14    C323    1.416   .     S
C15    O47     1.290   .     A
C15    O50     1.289   .     A
C15    C20     1.445   .     S
C16    O48     1.289   .     A
C16    O49     1.290   .     A
C16    C19     1.445   .     S
C17    H33     1.086   .     S
C17    C27     1.388   .     A
C17    C19     1.391   .     A
C18    C28     1.388   .     A
C18    H34     1.086   .     S
C18    C20     1.391   .     A
C19    C21     1.409   .     A
C20    C22     1.409   .     A
C21    C23     1.419   .     A
C21    C51     1.489   .     S
C22    C54     1.489   .     S
C22    C24     1.419   .     A
C23    C29     1.421   .     A
C23    C25     1.423   .     A
C24    C26     1.423   .     A
C24    C30     1.421   .     A
C25    C27     1.409   .     A
C25    C962    1.408   .     S
C26    C28     1.409   .     A
C26    C961    1.408   1_554 S
C29    O57     1.383   .     S
C29    C939    1.394   .     S
C30    O65     1.383   .     S
C30    C940    1.394   1_554 S
Cu31   O43     1.984   .     S
Cu31   O47     1.957   .     S
Cu31   O49     1.957   .     S
Cu31   Cu32    2.680   .     S
Cu31   N41     2.014   .     S
Cu31   O45     1.984   .     S
Cu32   O48     1.957   .     S
Cu32   O44     1.984   .     S
Cu32   O50     1.957   .     S
Cu32   O46     1.984   .     S
Cu32   N42     2.014   .     S
C51    H52     1.083   .     S
C51    O53     1.221   .     D
C54    O56     1.221   .     D
C54    H55     1.083   .     S
O57    C58     1.414   .     S
C58    H60     1.115   .     S
C58    C61     1.520   .     S
C58    H59     1.114   .     S
C61    H64     1.111   .     S
C61    H63     1.111   .     S
C61    H270    1.109   1_455 S
H62    C165    1.109   .     S
O65    C66     1.414   .     S
C66    H68     1.115   .     S
C66    C69     1.520   .     S
C66    H67     1.114   .     S
C69    H71     1.111   .     S
C69    H72     1.111   .     S
C69    H174    1.109   .     S
H70    C277    1.109   1_455 S
O73    C74     1.415   .     S
C74    C77     1.518   .     S
C74    H75     1.112   .     S
C74    H76     1.117   .     S
C77    H80     1.104   .     S
C77    H79     1.110   .     S
C77    H702    1.105   1_545 S
H78    C389    1.105   .     S
O81    C82     1.415   .     S
C82    H84     1.113   .     S
C82    C85     1.521   .     S
C82    H83     1.113   .     S
C85    H87     1.107   .     S
C85    H86     1.110   .     S
C85    H400    1.109   .     S
H88    C709    1.109   1_545 S
O89    C90     1.415   .     S
C90    H91     1.112   .     S
C90    H92     1.117   .     S
C90    C93     1.518   .     S
C93    H96     1.104   .     S
C93    H95     1.110   .     S
C93    H718    1.105   1_545 S
H94    C405    1.105   .     S
O97    C98     1.415   .     S
C98    H99     1.113   .     S
C98    C101    1.521   .     S
C98    H100    1.113   .     S
C101   H103    1.110   .     S
C101   H104    1.107   .     S
C101   H414    1.109   .     S
H102   C725    1.109   1_545 S
C105   O150    1.295   .     A
C105   O147    1.294   .     A
C105   C114    1.465   .     S
C106   O148    1.295   .     A
C106   O149    1.294   .     A
C106   C113    1.465   .     S
C107   C132    1.396   .     A
C107   H139    1.083   .     S
C107   C1069   1.394   1_554 S
C108   H140    1.083   .     S
C108   C131    1.396   .     A
C108   C1070   1.394   .     S
C109   C114    1.409   .     A
C109   O177    1.383   .     S
C110   C113    1.412   .     A
C110   O185    1.383   .     S
C110   C216    1.394   .     S
C111   O193    1.383   .     S
C111   C113    1.409   .     A
C111   C213    1.393   .     S
C112   O201    1.383   .     S
C112   C114    1.412   .     A
C115   N146    1.367   .     A
C115   H141    1.081   .     S
C115   C742    1.416   1_545 S
C116   H142    1.081   .     S
C116   N145    1.367   .     A
C116   C429    1.416   .     S
C117   N146    1.366   .     A
C117   H143    1.081   .     S
C117   C740    1.416   1_545 S
C118   N145    1.367   .     A
C118   H144    1.081   .     S
C118   C427    1.416   .     S
C119   O151    1.290   .     A
C119   O154    1.289   .     A
C119   C124    1.445   .     S
C120   O152    1.289   .     A
C120   O153    1.290   .     A
C120   C123    1.445   .     S
C121   H137    1.086   .     S
C121   C131    1.388   .     A
C121   C123    1.391   .     A
C122   C132    1.388   .     A
C122   H138    1.086   .     S
C122   C124    1.391   .     A
C123   C125    1.409   .     A
C124   C126    1.409   .     A
C125   C127    1.419   .     A
C125   C155    1.489   .     S
C126   C158    1.489   .     S
C126   C128    1.419   .     A
C127   C133    1.421   .     A
C127   C129    1.423   .     A
C128   C130    1.423   .     A
C128   C134    1.421   .     A
C129   C131    1.409   .     A
C129   C1066   1.408   .     S
C130   C132    1.409   .     A
C130   C1065   1.408   1_554 S
C133   O161    1.383   .     S
C133   C1043   1.394   .     S
C134   O169    1.383   .     S
C134   C1044   1.394   1_554 S
Cu135  O147    1.984   .     S
Cu135  O151    1.957   .     S
Cu135  O153    1.957   .     S
Cu135  Cu136   2.680   .     S
Cu135  N145    2.014   .     S
Cu135  O149    1.984   .     S
Cu136  O152    1.957   .     S
Cu136  O148    1.984   .     S
Cu136  O154    1.957   .     S
Cu136  O150    1.984   .     S
Cu136  N146    2.014   .     S
C155   H156    1.083   .     S
C155   O157    1.221   .     D
C158   O160    1.221   .     D
C158   H159    1.083   .     S
O161   C162    1.414   .     S
C162   H164    1.115   .     S
C162   C165    1.520   .     S
C162   H163    1.114   .     S
C165   H168    1.111   .     S
C165   H167    1.111   .     S
H166   C269    1.109   .     S
O169   C170    1.414   .     S
C170   H172    1.115   .     S
C170   C173    1.520   .     S
C170   H171    1.114   .     S
C173   H175    1.111   .     S
C173   H176    1.111   .     S
C173   H278    1.109   .     S
O177   C178    1.415   .     S
C178   C181    1.518   .     S
C178   H179    1.112   .     S
C178   H180    1.117   .     S
C181   H184    1.104   .     S
C181   H183    1.110   .     S
C181   H806    1.105   1_545 S
H182   C493    1.105   .     S
O185   C186    1.415   .     S
C186   H188    1.113   .     S
C186   C189    1.521   .     S
C186   H187    1.113   .     S
C189   H191    1.107   .     S
C189   H190    1.110   .     S
C189   H504    1.109   .     S
H192   C813    1.109   1_545 S
O193   C194    1.415   .     S
C194   H195    1.112   .     S
C194   H196    1.117   .     S
C194   C197    1.518   .     S
C197   H200    1.104   .     S
C197   H199    1.110   .     S
C197   H822    1.105   1_545 S
H198   C509    1.105   .     S
O201   C202    1.415   .     S
C202   H203    1.113   .     S
C202   C205    1.521   .     S
C202   H204    1.113   .     S
C205   H207    1.110   .     S
C205   H208    1.107   .     S
C205   H518    1.109   .     S
H206   C829    1.109   1_545 S
C209   O254    1.295   .     A
C209   O251    1.294   .     A
C209   C218    1.465   .     S
C210   O252    1.295   .     A
C210   O253    1.294   .     A
C210   C217    1.465   .     S
C211   C236    1.396   .     A
C211   H243    1.083   .     S
C211   C1173   1.394   1_554 S
C212   H244    1.083   .     S
C212   C235    1.396   .     A
C212   C1174   1.394   .     S
C213   C218    1.409   .     A
C213   O281    1.383   .     S
C214   C217    1.412   .     A
C214   O289    1.383   .     S
C214   C8      1.394   1_655 S
C215   O297    1.383   .     S
C215   C217    1.409   .     A
C215   C5      1.393   1_655 S
C216   O305    1.383   .     S
C216   C218    1.412   .     A
C219   N250    1.367   .     A
C219   H245    1.081   .     S
C219   C846    1.416   1_545 S
C220   H246    1.081   .     S
C220   N249    1.367   .     A
C220   C533    1.416   .     S
C221   N250    1.366   .     A
C221   H247    1.081   .     S
C221   C844    1.416   1_545 S
C222   N249    1.367   .     A
C222   H248    1.081   .     S
C222   C531    1.416   .     S
C223   O255    1.290   .     A
C223   O258    1.289   .     A
C223   C228    1.445   .     S
C224   O256    1.289   .     A
C224   O257    1.290   .     A
C224   C227    1.445   .     S
C225   H241    1.086   .     S
C225   C235    1.388   .     A
C225   C227    1.391   .     A
C226   C236    1.388   .     A
C226   H242    1.086   .     S
C226   C228    1.391   .     A
C227   C229    1.409   .     A
C228   C230    1.409   .     A
C229   C231    1.419   .     A
C229   C259    1.489   .     S
C230   C262    1.489   .     S
C230   C232    1.419   .     A
C231   C237    1.421   .     A
C231   C233    1.423   .     A
C232   C234    1.423   .     A
C232   C238    1.421   .     A
C233   C235    1.409   .     A
C233   C1170   1.408   .     S
C234   C236    1.409   .     A
C234   C1169   1.408   1_554 S
C237   O265    1.383   .     S
C237   C1147   1.394   .     S
C238   O273    1.383   .     S
C238   C1148   1.394   1_554 S
Cu239  O251    1.984   .     S
Cu239  O255    1.957   .     S
Cu239  O257    1.957   .     S
Cu239  Cu240   2.680   .     S
Cu239  N249    2.014   .     S
Cu239  O253    1.984   .     S
Cu240  O256    1.957   .     S
Cu240  O252    1.984   .     S
Cu240  O258    1.957   .     S
Cu240  O254    1.984   .     S
Cu240  N250    2.014   .     S
C259   H260    1.083   .     S
C259   O261    1.221   .     D
C262   O264    1.221   .     D
C262   H263    1.083   .     S
O265   C266    1.414   .     S
C266   H268    1.115   .     S
C266   C269    1.520   .     S
C266   H267    1.114   .     S
C269   H272    1.111   .     S
C269   H271    1.111   .     S
H270   C61     1.109   1_655 S
O273   C274    1.414   .     S
C274   H276    1.115   .     S
C274   C277    1.520   .     S
C274   H275    1.114   .     S
C277   H279    1.111   .     S
C277   H280    1.111   .     S
C277   H70     1.109   1_655 S
O281   C282    1.415   .     S
C282   C285    1.518   .     S
C282   H283    1.112   .     S
C282   H284    1.117   .     S
C285   H288    1.104   .     S
C285   H287    1.110   .     S
C285   H910    1.105   1_545 S
H286   C597    1.105   .     S
O289   C290    1.415   .     S
C290   H292    1.113   .     S
C290   C293    1.521   .     S
C290   H291    1.113   .     S
C293   H295    1.107   .     S
C293   H294    1.110   .     S
C293   H608    1.109   .     S
H296   C917    1.109   1_545 S
O297   C298    1.415   .     S
C298   H299    1.112   .     S
C298   H300    1.117   .     S
C298   C301    1.518   .     S
C301   H304    1.104   .     S
C301   H303    1.110   .     S
C301   H926    1.105   1_545 S
H302   C613    1.105   .     S
O305   C306    1.415   .     S
C306   H307    1.113   .     S
C306   C309    1.521   .     S
C306   H308    1.113   .     S
C309   H311    1.110   .     S
C309   H312    1.107   .     S
C309   H622    1.109   .     S
H310   C933    1.109   1_545 S
C313   O358    1.295   .     A
C313   O355    1.294   .     A
C313   C322    1.465   .     S
C314   O356    1.295   .     A
C314   O357    1.294   .     A
C314   C321    1.465   .     S
C315   C340    1.396   .     A
C315   H347    1.083   .     S
C315   C1277   1.394   1_554 S
C316   H348    1.083   .     S
C316   C339    1.396   .     A
C316   C1278   1.394   .     S
C317   C322    1.409   .     A
C317   O385    1.383   .     S
C317   C527    1.393   1_455 S
C318   C321    1.412   .     A
C318   O393    1.383   .     S
C318   C424    1.394   .     S
C319   O401    1.383   .     S
C319   C321    1.409   .     A
C319   C421    1.393   .     S
C320   O409    1.383   .     S
C320   C322    1.412   .     A
C320   C526    1.394   1_455 S
C323   N354    1.367   .     A
C323   H349    1.081   .     S
C324   H350    1.081   .     S
C324   N353    1.367   .     A
C324   C637    1.416   .     S
C325   N354    1.366   .     A
C325   H351    1.081   .     S
C326   N353    1.367   .     A
C326   H352    1.081   .     S
C326   C635    1.416   .     S
C327   O359    1.290   .     A
C327   O362    1.289   .     A
C327   C332    1.445   .     S
C328   O360    1.289   .     A
C328   O361    1.290   .     A
C328   C331    1.445   .     S
C329   H345    1.086   .     S
C329   C339    1.388   .     A
C329   C331    1.391   .     A
C330   C340    1.388   .     A
C330   H346    1.086   .     S
C330   C332    1.391   .     A
C331   C333    1.409   .     A
C332   C334    1.409   .     A
C333   C335    1.419   .     A
C333   C363    1.489   .     S
C334   C366    1.489   .     S
C334   C336    1.419   .     A
C335   C341    1.421   .     A
C335   C337    1.423   .     A
C336   C338    1.423   .     A
C336   C342    1.421   .     A
C337   C339    1.409   .     A
C337   C1274   1.408   .     S
C338   C340    1.409   .     A
C338   C1273   1.408   1_554 S
C341   O369    1.383   .     S
C341   C1251   1.394   .     S
C342   O377    1.383   .     S
C342   C1252   1.394   1_554 S
Cu343  O355    1.984   .     S
Cu343  O359    1.957   .     S
Cu343  O361    1.957   .     S
Cu343  Cu344   2.680   .     S
Cu343  N353    2.014   .     S
Cu343  O357    1.984   .     S
Cu344  O360    1.957   .     S
Cu344  O356    1.984   .     S
Cu344  O362    1.957   .     S
Cu344  O358    1.984   .     S
Cu344  N354    2.014   .     S
C363   H364    1.083   .     S
C363   O365    1.221   .     D
C366   O368    1.221   .     D
C366   H367    1.083   .     S
O369   C370    1.414   .     S
C370   H372    1.115   .     S
C370   C373    1.520   .     S
C370   H371    1.114   .     S
C373   H376    1.111   .     S
C373   H375    1.111   .     S
C373   H582    1.109   1_455 S
H374   C477    1.109   .     S
O377   C378    1.414   .     S
C378   H380    1.115   .     S
C378   C381    1.520   .     S
C378   H379    1.114   .     S
C381   H383    1.111   .     S
C381   H384    1.111   .     S
C381   H486    1.109   .     S
H382   C589    1.109   1_455 S
O385   C386    1.415   .     S
C386   C389    1.518   .     S
C386   H387    1.112   .     S
C386   H388    1.117   .     S
C389   H392    1.104   .     S
C389   H391    1.110   .     S
H390   C701    1.105   .     S
O393   C394    1.415   .     S
C394   H396    1.113   .     S
C394   C397    1.521   .     S
C394   H395    1.113   .     S
C397   H399    1.107   .     S
C397   H398    1.110   .     S
C397   H712    1.109   .     S
O401   C402    1.415   .     S
C402   H403    1.112   .     S
C402   H404    1.117   .     S
C402   C405    1.518   .     S
C405   H408    1.104   .     S
C405   H407    1.110   .     S
H406   C717    1.105   .     S
O409   C410    1.415   .     S
C410   H411    1.113   .     S
C410   C413    1.521   .     S
C410   H412    1.113   .     S
C413   H415    1.110   .     S
C413   H416    1.107   .     S
C413   H726    1.109   .     S
C417   O462    1.295   .     A
C417   O459    1.294   .     A
C417   C426    1.465   .     S
C418   O460    1.295   .     A
C418   O461    1.294   .     A
C418   C425    1.465   .     S
C419   C444    1.396   .     A
C419   H451    1.083   .     S
C419   C1381   1.394   1_554 S
C420   H452    1.083   .     S
C420   C443    1.396   .     A
C420   C1382   1.394   .     S
C421   C426    1.409   .     A
C421   O489    1.383   .     S
C422   C425    1.412   .     A
C422   O497    1.383   .     S
C422   C528    1.394   .     S
C423   O505    1.383   .     S
C423   C425    1.409   .     A
C423   C525    1.393   .     S
C424   O513    1.383   .     S
C424   C426    1.412   .     A
C427   N458    1.367   .     A
C427   H453    1.081   .     S
C428   H454    1.081   .     S
C428   N457    1.367   .     A
C428   C741    1.416   .     S
C429   N458    1.366   .     A
C429   H455    1.081   .     S
C430   N457    1.367   .     A
C430   H456    1.081   .     S
C430   C739    1.416   .     S
C431   O463    1.290   .     A
C431   O466    1.289   .     A
C431   C436    1.445   .     S
C432   O464    1.289   .     A
C432   O465    1.290   .     A
C432   C435    1.445   .     S
C433   H449    1.086   .     S
C433   C443    1.388   .     A
C433   C435    1.391   .     A
C434   C444    1.388   .     A
C434   H450    1.086   .     S
C434   C436    1.391   .     A
C435   C437    1.409   .     A
C436   C438    1.409   .     A
C437   C439    1.419   .     A
C437   C467    1.489   .     S
C438   C470    1.489   .     S
C438   C440    1.419   .     A
C439   C445    1.421   .     A
C439   C441    1.423   .     A
C440   C442    1.423   .     A
C440   C446    1.421   .     A
C441   C443    1.409   .     A
C441   C1378   1.408   .     S
C442   C444    1.409   .     A
C442   C1377   1.408   1_554 S
C445   O473    1.383   .     S
C445   C1355   1.394   .     S
C446   O481    1.383   .     S
C446   C1356   1.394   1_554 S
Cu447  O459    1.984   .     S
Cu447  O463    1.957   .     S
Cu447  O465    1.957   .     S
Cu447  Cu448   2.680   .     S
Cu447  N457    2.014   .     S
Cu447  O461    1.984   .     S
Cu448  O464    1.957   .     S
Cu448  O460    1.984   .     S
Cu448  O466    1.957   .     S
Cu448  O462    1.984   .     S
Cu448  N458    2.014   .     S
C467   H468    1.083   .     S
C467   O469    1.221   .     D
C470   O472    1.221   .     D
C470   H471    1.083   .     S
O473   C474    1.414   .     S
C474   H476    1.115   .     S
C474   C477    1.520   .     S
C474   H475    1.114   .     S
C477   H480    1.111   .     S
C477   H479    1.111   .     S
H478   C581    1.109   .     S
O481   C482    1.414   .     S
C482   H484    1.115   .     S
C482   C485    1.520   .     S
C482   H483    1.114   .     S
C485   H487    1.111   .     S
C485   H488    1.111   .     S
C485   H590    1.109   .     S
O489   C490    1.415   .     S
C490   C493    1.518   .     S
C490   H491    1.112   .     S
C490   H492    1.117   .     S
C493   H496    1.104   .     S
C493   H495    1.110   .     S
H494   C805    1.105   .     S
O497   C498    1.415   .     S
C498   H500    1.113   .     S
C498   C501    1.521   .     S
C498   H499    1.113   .     S
C501   H503    1.107   .     S
C501   H502    1.110   .     S
C501   H816    1.109   .     S
O505   C506    1.415   .     S
C506   H507    1.112   .     S
C506   H508    1.117   .     S
C506   C509    1.518   .     S
C509   H512    1.104   .     S
C509   H511    1.110   .     S
H510   C821    1.105   .     S
O513   C514    1.415   .     S
C514   H515    1.113   .     S
C514   C517    1.521   .     S
C514   H516    1.113   .     S
C517   H519    1.110   .     S
C517   H520    1.107   .     S
C517   H830    1.109   .     S
C521   O566    1.295   .     A
C521   O563    1.294   .     A
C521   C530    1.465   .     S
C522   O564    1.295   .     A
C522   O565    1.294   .     A
C522   C529    1.465   .     S
C523   C548    1.396   .     A
C523   H555    1.083   .     S
C523   C1485   1.394   1_554 S
C524   H556    1.083   .     S
C524   C547    1.396   .     A
C524   C1486   1.394   .     S
C525   C530    1.409   .     A
C525   O593    1.383   .     S
C526   C529    1.412   .     A
C526   O601    1.383   .     S
C526   C320    1.394   1_655 S
C527   O609    1.383   .     S
C527   C529    1.409   .     A
C527   C317    1.393   1_655 S
C528   O617    1.383   .     S
C528   C530    1.412   .     A
C531   N562    1.367   .     A
C531   H557    1.081   .     S
C532   H558    1.081   .     S
C532   N561    1.367   .     A
C532   C845    1.416   .     S
C533   N562    1.366   .     A
C533   H559    1.081   .     S
C534   N561    1.367   .     A
C534   H560    1.081   .     S
C534   C843    1.416   .     S
C535   O567    1.290   .     A
C535   O570    1.289   .     A
C535   C540    1.445   .     S
C536   O568    1.289   .     A
C536   O569    1.290   .     A
C536   C539    1.445   .     S
C537   H553    1.086   .     S
C537   C547    1.388   .     A
C537   C539    1.391   .     A
C538   C548    1.388   .     A
C538   H554    1.086   .     S
C538   C540    1.391   .     A
C539   C541    1.409   .     A
C540   C542    1.409   .     A
C541   C543    1.419   .     A
C541   C571    1.489   .     S
C542   C574    1.489   .     S
C542   C544    1.419   .     A
C543   C549    1.421   .     A
C543   C545    1.423   .     A
C544   C546    1.423   .     A
C544   C550    1.421   .     A
C545   C547    1.409   .     A
C545   C1482   1.408   .     S
C546   C548    1.409   .     A
C546   C1481   1.408   1_554 S
C549   O577    1.383   .     S
C549   C1459   1.394   .     S
C550   O585    1.383   .     S
C550   C1460   1.394   1_554 S
Cu551  O563    1.984   .     S
Cu551  O567    1.957   .     S
Cu551  O569    1.957   .     S
Cu551  Cu552   2.680   .     S
Cu551  N561    2.014   .     S
Cu551  O565    1.984   .     S
Cu552  O568    1.957   .     S
Cu552  O564    1.984   .     S
Cu552  O570    1.957   .     S
Cu552  O566    1.984   .     S
Cu552  N562    2.014   .     S
C571   H572    1.083   .     S
C571   O573    1.221   .     D
C574   O576    1.221   .     D
C574   H575    1.083   .     S
O577   C578    1.414   .     S
C578   H580    1.115   .     S
C578   C581    1.520   .     S
C578   H579    1.114   .     S
C581   H584    1.111   .     S
C581   H583    1.111   .     S
H582   C373    1.109   1_655 S
O585   C586    1.414   .     S
C586   H588    1.115   .     S
C586   C589    1.520   .     S
C586   H587    1.114   .     S
C589   H591    1.111   .     S
C589   H592    1.111   .     S
C589   H382    1.109   1_655 S
O593   C594    1.415   .     S
C594   C597    1.518   .     S
C594   H595    1.112   .     S
C594   H596    1.117   .     S
C597   H600    1.104   .     S
C597   H599    1.110   .     S
H598   C909    1.105   .     S
O601   C602    1.415   .     S
C602   H604    1.113   .     S
C602   C605    1.521   .     S
C602   H603    1.113   .     S
C605   H607    1.107   .     S
C605   H606    1.110   .     S
C605   H920    1.109   .     S
O609   C610    1.415   .     S
C610   H611    1.112   .     S
C610   H612    1.117   .     S
C610   C613    1.518   .     S
C613   H616    1.104   .     S
C613   H615    1.110   .     S
H614   C925    1.105   .     S
O617   C618    1.415   .     S
C618   H619    1.113   .     S
C618   C621    1.521   .     S
C618   H620    1.113   .     S
C621   H623    1.110   .     S
C621   H624    1.107   .     S
C621   H934    1.109   .     S
C625   O670    1.295   .     A
C625   O667    1.294   .     A
C625   C634    1.465   .     S
C626   O668    1.295   .     A
C626   O669    1.294   .     A
C626   C633    1.465   .     S
C627   C652    1.396   .     A
C627   H659    1.083   .     S
C627   C1589   1.394   1_554 S
C628   H660    1.083   .     S
C628   C651    1.396   .     A
C628   C1590   1.394   .     S
C629   C634    1.409   .     A
C629   O697    1.383   .     S
C629   C839    1.393   1_455 S
C630   C633    1.412   .     A
C630   O705    1.383   .     S
C630   C736    1.394   .     S
C631   O713    1.383   .     S
C631   C633    1.409   .     A
C631   C733    1.393   .     S
C632   O721    1.383   .     S
C632   C634    1.412   .     A
C632   C838    1.394   1_455 S
C635   N666    1.367   .     A
C635   H661    1.081   .     S
C636   H662    1.081   .     S
C636   N665    1.367   .     A
C636   C13     1.416   1_565 S
C637   N666    1.366   .     A
C637   H663    1.081   .     S
C638   N665    1.367   .     A
C638   H664    1.081   .     S
C638   C11     1.416   1_565 S
C639   O671    1.290   .     A
C639   O674    1.289   .     A
C639   C644    1.445   .     S
C640   O672    1.289   .     A
C640   O673    1.290   .     A
C640   C643    1.445   .     S
C641   H657    1.086   .     S
C641   C651    1.388   .     A
C641   C643    1.391   .     A
C642   C652    1.388   .     A
C642   H658    1.086   .     S
C642   C644    1.391   .     A
C643   C645    1.409   .     A
C644   C646    1.409   .     A
C645   C647    1.419   .     A
C645   C675    1.489   .     S
C646   C678    1.489   .     S
C646   C648    1.419   .     A
C647   C653    1.421   .     A
C647   C649    1.423   .     A
C648   C650    1.423   .     A
C648   C654    1.421   .     A
C649   C651    1.409   .     A
C649   C1586   1.408   .     S
C650   C652    1.409   .     A
C650   C1585   1.408   1_554 S
C653   O681    1.383   .     S
C653   C1563   1.394   .     S
C654   O689    1.383   .     S
C654   C1564   1.394   1_554 S
Cu655  O667    1.984   .     S
Cu655  O671    1.957   .     S
Cu655  O673    1.957   .     S
Cu655  Cu656   2.680   .     S
Cu655  N665    2.014   .     S
Cu655  O669    1.984   .     S
Cu656  O672    1.957   .     S
Cu656  O668    1.984   .     S
Cu656  O674    1.957   .     S
Cu656  O670    1.984   .     S
Cu656  N666    2.014   .     S
C675   H676    1.083   .     S
C675   O677    1.221   .     D
C678   O680    1.221   .     D
C678   H679    1.083   .     S
O681   C682    1.414   .     S
C682   H684    1.115   .     S
C682   C685    1.520   .     S
C682   H683    1.114   .     S
C685   H688    1.111   .     S
C685   H687    1.111   .     S
C685   H894    1.109   1_455 S
H686   C789    1.109   .     S
O689   C690    1.414   .     S
C690   H692    1.115   .     S
C690   C693    1.520   .     S
C690   H691    1.114   .     S
C693   H695    1.111   .     S
C693   H696    1.111   .     S
C693   H798    1.109   .     S
H694   C901    1.109   1_455 S
O697   C698    1.415   .     S
C698   C701    1.518   .     S
C698   H699    1.112   .     S
C698   H700    1.117   .     S
C701   H704    1.104   .     S
C701   H703    1.110   .     S
H702   C77     1.105   1_565 S
O705   C706    1.415   .     S
C706   H708    1.113   .     S
C706   C709    1.521   .     S
C706   H707    1.113   .     S
C709   H711    1.107   .     S
C709   H710    1.110   .     S
C709   H88     1.109   1_565 S
O713   C714    1.415   .     S
C714   H715    1.112   .     S
C714   H716    1.117   .     S
C714   C717    1.518   .     S
C717   H720    1.104   .     S
C717   H719    1.110   .     S
H718   C93     1.105   1_565 S
O721   C722    1.415   .     S
C722   H723    1.113   .     S
C722   C725    1.521   .     S
C722   H724    1.113   .     S
C725   H727    1.110   .     S
C725   H728    1.107   .     S
C725   H102    1.109   1_565 S
C729   O774    1.295   .     A
C729   O771    1.294   .     A
C729   C738    1.465   .     S
C730   O772    1.295   .     A
C730   O773    1.294   .     A
C730   C737    1.465   .     S
C731   C756    1.396   .     A
C731   H763    1.083   .     S
C731   C1693   1.394   1_554 S
C732   H764    1.083   .     S
C732   C755    1.396   .     A
C732   C1694   1.394   .     S
C733   C738    1.409   .     A
C733   O801    1.383   .     S
C734   C737    1.412   .     A
C734   O809    1.383   .     S
C734   C840    1.394   .     S
C735   O817    1.383   .     S
C735   C737    1.409   .     A
C735   C837    1.393   .     S
C736   O825    1.383   .     S
C736   C738    1.412   .     A
C739   N770    1.367   .     A
C739   H765    1.081   .     S
C740   H766    1.081   .     S
C740   N769    1.367   .     A
C740   C117    1.416   1_565 S
C741   N770    1.366   .     A
C741   H767    1.081   .     S
C742   N769    1.367   .     A
C742   H768    1.081   .     S
C742   C115    1.416   1_565 S
C743   O775    1.290   .     A
C743   O778    1.289   .     A
C743   C748    1.445   .     S
C744   O776    1.289   .     A
C744   O777    1.290   .     A
C744   C747    1.445   .     S
C745   H761    1.086   .     S
C745   C755    1.388   .     A
C745   C747    1.391   .     A
C746   C756    1.388   .     A
C746   H762    1.086   .     S
C746   C748    1.391   .     A
C747   C749    1.409   .     A
C748   C750    1.409   .     A
C749   C751    1.419   .     A
C749   C779    1.489   .     S
C750   C782    1.489   .     S
C750   C752    1.419   .     A
C751   C757    1.421   .     A
C751   C753    1.423   .     A
C752   C754    1.423   .     A
C752   C758    1.421   .     A
C753   C755    1.409   .     A
C753   C1690   1.408   .     S
C754   C756    1.409   .     A
C754   C1689   1.408   1_554 S
C757   O785    1.383   .     S
C757   C1667   1.394   .     S
C758   O793    1.383   .     S
C758   C1668   1.394   1_554 S
Cu759  O771    1.984   .     S
Cu759  O775    1.957   .     S
Cu759  O777    1.957   .     S
Cu759  Cu760   2.680   .     S
Cu759  N769    2.014   .     S
Cu759  O773    1.984   .     S
Cu760  O776    1.957   .     S
Cu760  O772    1.984   .     S
Cu760  O778    1.957   .     S
Cu760  O774    1.984   .     S
Cu760  N770    2.014   .     S
C779   H780    1.083   .     S
C779   O781    1.221   .     D
C782   O784    1.221   .     D
C782   H783    1.083   .     S
O785   C786    1.414   .     S
C786   H788    1.115   .     S
C786   C789    1.520   .     S
C786   H787    1.114   .     S
C789   H792    1.111   .     S
C789   H791    1.111   .     S
H790   C893    1.109   .     S
O793   C794    1.414   .     S
C794   H796    1.115   .     S
C794   C797    1.520   .     S
C794   H795    1.114   .     S
C797   H799    1.111   .     S
C797   H800    1.111   .     S
C797   H902    1.109   .     S
O801   C802    1.415   .     S
C802   C805    1.518   .     S
C802   H803    1.112   .     S
C802   H804    1.117   .     S
C805   H808    1.104   .     S
C805   H807    1.110   .     S
H806   C181    1.105   1_565 S
O809   C810    1.415   .     S
C810   H812    1.113   .     S
C810   C813    1.521   .     S
C810   H811    1.113   .     S
C813   H815    1.107   .     S
C813   H814    1.110   .     S
C813   H192    1.109   1_565 S
O817   C818    1.415   .     S
C818   H819    1.112   .     S
C818   H820    1.117   .     S
C818   C821    1.518   .     S
C821   H824    1.104   .     S
C821   H823    1.110   .     S
H822   C197    1.105   1_565 S
O825   C826    1.415   .     S
C826   H827    1.113   .     S
C826   C829    1.521   .     S
C826   H828    1.113   .     S
C829   H831    1.110   .     S
C829   H832    1.107   .     S
C829   H206    1.109   1_565 S
C833   O878    1.295   .     A
C833   O875    1.294   .     A
C833   C842    1.465   .     S
C834   O876    1.295   .     A
C834   O877    1.294   .     A
C834   C841    1.465   .     S
C835   C860    1.396   .     A
C835   H867    1.083   .     S
C835   C1797   1.394   1_554 S
C836   H868    1.083   .     S
C836   C859    1.396   .     A
C836   C1798   1.394   .     S
C837   C842    1.409   .     A
C837   O905    1.383   .     S
C838   C841    1.412   .     A
C838   O913    1.383   .     S
C838   C632    1.394   1_655 S
C839   O921    1.383   .     S
C839   C841    1.409   .     A
C839   C629    1.393   1_655 S
C840   O929    1.383   .     S
C840   C842    1.412   .     A
C843   N874    1.367   .     A
C843   H869    1.081   .     S
C844   H870    1.081   .     S
C844   N873    1.367   .     A
C844   C221    1.416   1_565 S
C845   N874    1.366   .     A
C845   H871    1.081   .     S
C846   N873    1.367   .     A
C846   H872    1.081   .     S
C846   C219    1.416   1_565 S
C847   O879    1.290   .     A
C847   O882    1.289   .     A
C847   C852    1.445   .     S
C848   O880    1.289   .     A
C848   O881    1.290   .     A
C848   C851    1.445   .     S
C849   H865    1.086   .     S
C849   C859    1.388   .     A
C849   C851    1.391   .     A
C850   C860    1.388   .     A
C850   H866    1.086   .     S
C850   C852    1.391   .     A
C851   C853    1.409   .     A
C852   C854    1.409   .     A
C853   C855    1.419   .     A
C853   C883    1.489   .     S
C854   C886    1.489   .     S
C854   C856    1.419   .     A
C855   C861    1.421   .     A
C855   C857    1.423   .     A
C856   C858    1.423   .     A
C856   C862    1.421   .     A
C857   C859    1.409   .     A
C857   C1794   1.408   .     S
C858   C860    1.409   .     A
C858   C1793   1.408   1_554 S
C861   O889    1.383   .     S
C861   C1771   1.394   .     S
C862   O897    1.383   .     S
C862   C1772   1.394   1_554 S
Cu863  O875    1.984   .     S
Cu863  O879    1.957   .     S
Cu863  O881    1.957   .     S
Cu863  Cu864   2.680   .     S
Cu863  N873    2.014   .     S
Cu863  O877    1.984   .     S
Cu864  O880    1.957   .     S
Cu864  O876    1.984   .     S
Cu864  O882    1.957   .     S
Cu864  O878    1.984   .     S
Cu864  N874    2.014   .     S
C883   H884    1.083   .     S
C883   O885    1.221   .     D
C886   O888    1.221   .     D
C886   H887    1.083   .     S
O889   C890    1.414   .     S
C890   H892    1.115   .     S
C890   C893    1.520   .     S
C890   H891    1.114   .     S
C893   H896    1.111   .     S
C893   H895    1.111   .     S
H894   C685    1.109   1_655 S
O897   C898    1.414   .     S
C898   H900    1.115   .     S
C898   C901    1.520   .     S
C898   H899    1.114   .     S
C901   H903    1.111   .     S
C901   H904    1.111   .     S
C901   H694    1.109   1_655 S
O905   C906    1.415   .     S
C906   C909    1.518   .     S
C906   H907    1.112   .     S
C906   H908    1.117   .     S
C909   H912    1.104   .     S
C909   H911    1.110   .     S
H910   C285    1.105   1_565 S
O913   C914    1.415   .     S
C914   H916    1.113   .     S
C914   C917    1.521   .     S
C914   H915    1.113   .     S
C917   H919    1.107   .     S
C917   H918    1.110   .     S
C917   H296    1.109   1_565 S
O921   C922    1.415   .     S
C922   H923    1.112   .     S
C922   H924    1.117   .     S
C922   C925    1.518   .     S
C925   H928    1.104   .     S
C925   H927    1.110   .     S
H926   C301    1.105   1_565 S
O929   C930    1.415   .     S
C930   H931    1.113   .     S
C930   C933    1.521   .     S
C930   H932    1.113   .     S
C933   H935    1.110   .     S
C933   H936    1.107   .     S
C933   H310    1.109   1_565 S
C937   O982    1.295   .     A
C937   O979    1.294   .     A
C937   C946    1.465   .     S
C938   O980    1.295   .     A
C938   O981    1.294   .     A
C938   C945    1.465   .     S
C939   C964    1.396   .     A
C939   H971    1.083   .     S
C940   H972    1.083   .     S
C940   C963    1.396   .     A
C940   C30     1.394   1_556 S
C941   C946    1.409   .     A
C941   O1009   1.383   .     S
C941   C1151   1.393   1_455 S
C942   C945    1.412   .     A
C942   O1017   1.383   .     S
C942   C1048   1.394   .     S
C943   O1025   1.383   .     S
C943   C945    1.409   .     A
C943   C1045   1.393   .     S
C944   O1033   1.383   .     S
C944   C946    1.412   .     A
C944   C1150   1.394   1_455 S
C947   N978    1.367   .     A
C947   H973    1.081   .     S
C947   C1574   1.416   1_545 S
C948   H974    1.081   .     S
C948   N977    1.367   .     A
C948   C1261   1.416   .     S
C949   N978    1.366   .     A
C949   H975    1.081   .     S
C949   C1572   1.416   1_545 S
C950   N977    1.367   .     A
C950   H976    1.081   .     S
C950   C1259   1.416   .     S
C951   O983    1.290   .     A
C951   O986    1.289   .     A
C951   C956    1.445   .     S
C952   O984    1.289   .     A
C952   O985    1.290   .     A
C952   C955    1.445   .     S
C953   H969    1.086   .     S
C953   C963    1.388   .     A
C953   C955    1.391   .     A
C954   C964    1.388   .     A
C954   H970    1.086   .     S
C954   C956    1.391   .     A
C955   C957    1.409   .     A
C956   C958    1.409   .     A
C957   C959    1.419   .     A
C957   C987    1.489   .     S
C958   C990    1.489   .     S
C958   C960    1.419   .     A
C959   C965    1.421   .     A
C959   C961    1.423   .     A
C960   C962    1.423   .     A
C960   C966    1.421   .     A
C961   C963    1.409   .     A
C961   C26     1.408   1_556 S
C962   C964    1.409   .     A
C965   O993    1.383   .     S
C965   C3      1.394   1_556 S
C966   O1001   1.383   .     S
Cu967  O979    1.984   .     S
Cu967  O983    1.957   .     S
Cu967  O985    1.957   .     S
Cu967  Cu968   2.680   .     S
Cu967  N977    2.014   .     S
Cu967  O981    1.984   .     S
Cu968  O984    1.957   .     S
Cu968  O980    1.984   .     S
Cu968  O986    1.957   .     S
Cu968  O982    1.984   .     S
Cu968  N978    2.014   .     S
C987   H988    1.083   .     S
C987   O989    1.221   .     D
C990   O992    1.221   .     D
C990   H991    1.083   .     S
O993   C994    1.414   .     S
C994   H996    1.115   .     S
C994   C997    1.520   .     S
C994   H995    1.114   .     S
C997   H1000   1.111   .     S
C997   H999    1.111   .     S
C997   H1206   1.109   1_455 S
H998   C1101   1.109   .     S
O1001  C1002   1.414   .     S
C1002  H1004   1.115   .     S
C1002  C1005   1.520   .     S
C1002  H1003   1.114   .     S
C1005  H1007   1.111   .     S
C1005  H1008   1.111   .     S
C1005  H1110   1.109   .     S
H1006  C1213   1.109   1_455 S
O1009  C1010   1.415   .     S
C1010  C1013   1.518   .     S
C1010  H1011   1.112   .     S
C1010  H1012   1.117   .     S
C1013  H1016   1.104   .     S
C1013  H1015   1.110   .     S
C1013  H1638   1.105   1_545 S
H1014  C1325   1.105   .     S
O1017  C1018   1.415   .     S
C1018  H1020   1.113   .     S
C1018  C1021   1.521   .     S
C1018  H1019   1.113   .     S
C1021  H1023   1.107   .     S
C1021  H1022   1.110   .     S
C1021  H1336   1.109   .     S
H1024  C1645   1.109   1_545 S
O1025  C1026   1.415   .     S
C1026  H1027   1.112   .     S
C1026  H1028   1.117   .     S
C1026  C1029   1.518   .     S
C1029  H1032   1.104   .     S
C1029  H1031   1.110   .     S
C1029  H1654   1.105   1_545 S
H1030  C1341   1.105   .     S
O1033  C1034   1.415   .     S
C1034  H1035   1.113   .     S
C1034  C1037   1.521   .     S
C1034  H1036   1.113   .     S
C1037  H1039   1.110   .     S
C1037  H1040   1.107   .     S
C1037  H1350   1.109   .     S
H1038  C1661   1.109   1_545 S
C1041  O1086   1.295   .     A
C1041  O1083   1.294   .     A
C1041  C1050   1.465   .     S
C1042  O1084   1.295   .     A
C1042  O1085   1.294   .     A
C1042  C1049   1.465   .     S
C1043  C1068   1.396   .     A
C1043  H1075   1.083   .     S
C1044  H1076   1.083   .     S
C1044  C1067   1.396   .     A
C1044  C134    1.394   1_556 S
C1045  C1050   1.409   .     A
C1045  O1113   1.383   .     S
C1046  C1049   1.412   .     A
C1046  O1121   1.383   .     S
C1046  C1152   1.394   .     S
C1047  O1129   1.383   .     S
C1047  C1049   1.409   .     A
C1047  C1149   1.393   .     S
C1048  O1137   1.383   .     S
C1048  C1050   1.412   .     A
C1051  N1082   1.367   .     A
C1051  H1077   1.081   .     S
C1051  C1678   1.416   1_545 S
C1052  H1078   1.081   .     S
C1052  N1081   1.367   .     A
C1052  C1365   1.416   .     S
C1053  N1082   1.366   .     A
C1053  H1079   1.081   .     S
C1053  C1676   1.416   1_545 S
C1054  N1081   1.367   .     A
C1054  H1080   1.081   .     S
C1054  C1363   1.416   .     S
C1055  O1087   1.290   .     A
C1055  O1090   1.289   .     A
C1055  C1060   1.445   .     S
C1056  O1088   1.289   .     A
C1056  O1089   1.290   .     A
C1056  C1059   1.445   .     S
C1057  H1073   1.086   .     S
C1057  C1067   1.388   .     A
C1057  C1059   1.391   .     A
C1058  C1068   1.388   .     A
C1058  H1074   1.086   .     S
C1058  C1060   1.391   .     A
C1059  C1061   1.409   .     A
C1060  C1062   1.409   .     A
C1061  C1063   1.419   .     A
C1061  C1091   1.489   .     S
C1062  C1094   1.489   .     S
C1062  C1064   1.419   .     A
C1063  C1069   1.421   .     A
C1063  C1065   1.423   .     A
C1064  C1066   1.423   .     A
C1064  C1070   1.421   .     A
C1065  C1067   1.409   .     A
C1065  C130    1.408   1_556 S
C1066  C1068   1.409   .     A
C1069  O1097   1.383   .     S
C1069  C107    1.394   1_556 S
C1070  O1105   1.383   .     S
Cu1071 O1083   1.984   .     S
Cu1071 O1087   1.957   .     S
Cu1071 O1089   1.957   .     S
Cu1071 Cu1072  2.680   .     S
Cu1071 N1081   2.014   .     S
Cu1071 O1085   1.984   .     S
Cu1072 O1088   1.957   .     S
Cu1072 O1084   1.984   .     S
Cu1072 O1090   1.957   .     S
Cu1072 O1086   1.984   .     S
Cu1072 N1082   2.014   .     S
C1091  H1092   1.083   .     S
C1091  O1093   1.221   .     D
C1094  O1096   1.221   .     D
C1094  H1095   1.083   .     S
O1097  C1098   1.414   .     S
C1098  H1100   1.115   .     S
C1098  C1101   1.520   .     S
C1098  H1099   1.114   .     S
C1101  H1104   1.111   .     S
C1101  H1103   1.111   .     S
H1102  C1205   1.109   .     S
O1105  C1106   1.414   .     S
C1106  H1108   1.115   .     S
C1106  C1109   1.520   .     S
C1106  H1107   1.114   .     S
C1109  H1111   1.111   .     S
C1109  H1112   1.111   .     S
C1109  H1214   1.109   .     S
O1113  C1114   1.415   .     S
C1114  C1117   1.518   .     S
C1114  H1115   1.112   .     S
C1114  H1116   1.117   .     S
C1117  H1120   1.104   .     S
C1117  H1119   1.110   .     S
C1117  H1742   1.105   1_545 S
H1118  C1429   1.105   .     S
O1121  C1122   1.415   .     S
C1122  H1124   1.113   .     S
C1122  C1125   1.521   .     S
C1122  H1123   1.113   .     S
C1125  H1127   1.107   .     S
C1125  H1126   1.110   .     S
C1125  H1440   1.109   .     S
H1128  C1749   1.109   1_545 S
O1129  C1130   1.415   .     S
C1130  H1131   1.112   .     S
C1130  H1132   1.117   .     S
C1130  C1133   1.518   .     S
C1133  H1136   1.104   .     S
C1133  H1135   1.110   .     S
C1133  H1758   1.105   1_545 S
H1134  C1445   1.105   .     S
O1137  C1138   1.415   .     S
C1138  H1139   1.113   .     S
C1138  C1141   1.521   .     S
C1138  H1140   1.113   .     S
C1141  H1143   1.110   .     S
C1141  H1144   1.107   .     S
C1141  H1454   1.109   .     S
H1142  C1765   1.109   1_545 S
C1145  O1190   1.295   .     A
C1145  O1187   1.294   .     A
C1145  C1154   1.465   .     S
C1146  O1188   1.295   .     A
C1146  O1189   1.294   .     A
C1146  C1153   1.465   .     S
C1147  C1172   1.396   .     A
C1147  H1179   1.083   .     S
C1148  H1180   1.083   .     S
C1148  C1171   1.396   .     A
C1148  C238    1.394   1_556 S
C1149  C1154   1.409   .     A
C1149  O1217   1.383   .     S
C1150  C1153   1.412   .     A
C1150  O1225   1.383   .     S
C1150  C944    1.394   1_655 S
C1151  O1233   1.383   .     S
C1151  C1153   1.409   .     A
C1151  C941    1.393   1_655 S
C1152  O1241   1.383   .     S
C1152  C1154   1.412   .     A
C1155  N1186   1.367   .     A
C1155  H1181   1.081   .     S
C1155  C1782   1.416   1_545 S
C1156  H1182   1.081   .     S
C1156  N1185   1.367   .     A
C1156  C1469   1.416   .     S
C1157  N1186   1.366   .     A
C1157  H1183   1.081   .     S
C1157  C1780   1.416   1_545 S
C1158  N1185   1.367   .     A
C1158  H1184   1.081   .     S
C1158  C1467   1.416   .     S
C1159  O1191   1.290   .     A
C1159  O1194   1.289   .     A
C1159  C1164   1.445   .     S
C1160  O1192   1.289   .     A
C1160  O1193   1.290   .     A
C1160  C1163   1.445   .     S
C1161  H1177   1.086   .     S
C1161  C1171   1.388   .     A
C1161  C1163   1.391   .     A
C1162  C1172   1.388   .     A
C1162  H1178   1.086   .     S
C1162  C1164   1.391   .     A
C1163  C1165   1.409   .     A
C1164  C1166   1.409   .     A
C1165  C1167   1.419   .     A
C1165  C1195   1.489   .     S
C1166  C1198   1.489   .     S
C1166  C1168   1.419   .     A
C1167  C1173   1.421   .     A
C1167  C1169   1.423   .     A
C1168  C1170   1.423   .     A
C1168  C1174   1.421   .     A
C1169  C1171   1.409   .     A
C1169  C234    1.408   1_556 S
C1170  C1172   1.409   .     A
C1173  O1201   1.383   .     S
C1173  C211    1.394   1_556 S
C1174  O1209   1.383   .     S
Cu1175 O1187   1.984   .     S
Cu1175 O1191   1.957   .     S
Cu1175 O1193   1.957   .     S
Cu1175 Cu1176  2.680   .     S
Cu1175 N1185   2.014   .     S
Cu1175 O1189   1.984   .     S
Cu1176 O1192   1.957   .     S
Cu1176 O1188   1.984   .     S
Cu1176 O1194   1.957   .     S
Cu1176 O1190   1.984   .     S
Cu1176 N1186   2.014   .     S
C1195  H1196   1.083   .     S
C1195  O1197   1.221   .     D
C1198  O1200   1.221   .     D
C1198  H1199   1.083   .     S
O1201  C1202   1.414   .     S
C1202  H1204   1.115   .     S
C1202  C1205   1.520   .     S
C1202  H1203   1.114   .     S
C1205  H1208   1.111   .     S
C1205  H1207   1.111   .     S
H1206  C997    1.109   1_655 S
O1209  C1210   1.414   .     S
C1210  H1212   1.115   .     S
C1210  C1213   1.520   .     S
C1210  H1211   1.114   .     S
C1213  H1215   1.111   .     S
C1213  H1216   1.111   .     S
C1213  H1006   1.109   1_655 S
O1217  C1218   1.415   .     S
C1218  C1221   1.518   .     S
C1218  H1219   1.112   .     S
C1218  H1220   1.117   .     S
C1221  H1224   1.104   .     S
C1221  H1223   1.110   .     S
C1221  H1846   1.105   1_545 S
H1222  C1533   1.105   .     S
O1225  C1226   1.415   .     S
C1226  H1228   1.113   .     S
C1226  C1229   1.521   .     S
C1226  H1227   1.113   .     S
C1229  H1231   1.107   .     S
C1229  H1230   1.110   .     S
C1229  H1544   1.109   .     S
H1232  C1853   1.109   1_545 S
O1233  C1234   1.415   .     S
C1234  H1235   1.112   .     S
C1234  H1236   1.117   .     S
C1234  C1237   1.518   .     S
C1237  H1240   1.104   .     S
C1237  H1239   1.110   .     S
C1237  H1862   1.105   1_545 S
H1238  C1549   1.105   .     S
O1241  C1242   1.415   .     S
C1242  H1243   1.113   .     S
C1242  C1245   1.521   .     S
C1242  H1244   1.113   .     S
C1245  H1247   1.110   .     S
C1245  H1248   1.107   .     S
C1245  H1558   1.109   .     S
H1246  C1869   1.109   1_545 S
C1249  O1294   1.295   .     A
C1249  O1291   1.294   .     A
C1249  C1258   1.465   .     S
C1250  O1292   1.295   .     A
C1250  O1293   1.294   .     A
C1250  C1257   1.465   .     S
C1251  C1276   1.396   .     A
C1251  H1283   1.083   .     S
C1252  H1284   1.083   .     S
C1252  C1275   1.396   .     A
C1252  C342    1.394   1_556 S
C1253  C1258   1.409   .     A
C1253  O1321   1.383   .     S
C1253  C1463   1.393   1_455 S
C1254  C1257   1.412   .     A
C1254  O1329   1.383   .     S
C1254  C1360   1.394   .     S
C1255  O1337   1.383   .     S
C1255  C1257   1.409   .     A
C1255  C1357   1.393   .     S
C1256  O1345   1.383   .     S
C1256  C1258   1.412   .     A
C1256  C1462   1.394   1_455 S
C1259  N1290   1.367   .     A
C1259  H1285   1.081   .     S
C1260  H1286   1.081   .     S
C1260  N1289   1.367   .     A
C1260  C1573   1.416   .     S
C1261  N1290   1.366   .     A
C1261  H1287   1.081   .     S
C1262  N1289   1.367   .     A
C1262  H1288   1.081   .     S
C1262  C1571   1.416   .     S
C1263  O1295   1.290   .     A
C1263  O1298   1.289   .     A
C1263  C1268   1.445   .     S
C1264  O1296   1.289   .     A
C1264  O1297   1.290   .     A
C1264  C1267   1.445   .     S
C1265  H1281   1.086   .     S
C1265  C1275   1.388   .     A
C1265  C1267   1.391   .     A
C1266  C1276   1.388   .     A
C1266  H1282   1.086   .     S
C1266  C1268   1.391   .     A
C1267  C1269   1.409   .     A
C1268  C1270   1.409   .     A
C1269  C1271   1.419   .     A
C1269  C1299   1.489   .     S
C1270  C1302   1.489   .     S
C1270  C1272   1.419   .     A
C1271  C1277   1.421   .     A
C1271  C1273   1.423   .     A
C1272  C1274   1.423   .     A
C1272  C1278   1.421   .     A
C1273  C1275   1.409   .     A
C1273  C338    1.408   1_556 S
C1274  C1276   1.409   .     A
C1277  O1305   1.383   .     S
C1277  C315    1.394   1_556 S
C1278  O1313   1.383   .     S
Cu1279 O1291   1.984   .     S
Cu1279 O1295   1.957   .     S
Cu1279 O1297   1.957   .     S
Cu1279 Cu1280  2.680   .     S
Cu1279 N1289   2.014   .     S
Cu1279 O1293   1.984   .     S
Cu1280 O1296   1.957   .     S
Cu1280 O1292   1.984   .     S
Cu1280 O1298   1.957   .     S
Cu1280 O1294   1.984   .     S
Cu1280 N1290   2.014   .     S
C1299  H1300   1.083   .     S
C1299  O1301   1.221   .     D
C1302  O1304   1.221   .     D
C1302  H1303   1.083   .     S
O1305  C1306   1.414   .     S
C1306  H1308   1.115   .     S
C1306  C1309   1.520   .     S
C1306  H1307   1.114   .     S
C1309  H1312   1.111   .     S
C1309  H1311   1.111   .     S
C1309  H1518   1.109   1_455 S
H1310  C1413   1.109   .     S
O1313  C1314   1.414   .     S
C1314  H1316   1.115   .     S
C1314  C1317   1.520   .     S
C1314  H1315   1.114   .     S
C1317  H1319   1.111   .     S
C1317  H1320   1.111   .     S
C1317  H1422   1.109   .     S
H1318  C1525   1.109   1_455 S
O1321  C1322   1.415   .     S
C1322  C1325   1.518   .     S
C1322  H1323   1.112   .     S
C1322  H1324   1.117   .     S
C1325  H1328   1.104   .     S
C1325  H1327   1.110   .     S
H1326  C1637   1.105   .     S
O1329  C1330   1.415   .     S
C1330  H1332   1.113   .     S
C1330  C1333   1.521   .     S
C1330  H1331   1.113   .     S
C1333  H1335   1.107   .     S
C1333  H1334   1.110   .     S
C1333  H1648   1.109   .     S
O1337  C1338   1.415   .     S
C1338  H1339   1.112   .     S
C1338  H1340   1.117   .     S
C1338  C1341   1.518   .     S
C1341  H1344   1.104   .     S
C1341  H1343   1.110   .     S
H1342  C1653   1.105   .     S
O1345  C1346   1.415   .     S
C1346  H1347   1.113   .     S
C1346  C1349   1.521   .     S
C1346  H1348   1.113   .     S
C1349  H1351   1.110   .     S
C1349  H1352   1.107   .     S
C1349  H1662   1.109   .     S
C1353  O1398   1.295   .     A
C1353  O1395   1.294   .     A
C1353  C1362   1.465   .     S
C1354  O1396   1.295   .     A
C1354  O1397   1.294   .     A
C1354  C1361   1.465   .     S
C1355  C1380   1.396   .     A
C1355  H1387   1.083   .     S
C1356  H1388   1.083   .     S
C1356  C1379   1.396   .     A
C1356  C446    1.394   1_556 S
C1357  C1362   1.409   .     A
C1357  O1425   1.383   .     S
C1358  C1361   1.412   .     A
C1358  O1433   1.383   .     S
C1358  C1464   1.394   .     S
C1359  O1441   1.383   .     S
C1359  C1361   1.409   .     A
C1359  C1461   1.393   .     S
C1360  O1449   1.383   .     S
C1360  C1362   1.412   .     A
C1363  N1394   1.367   .     A
C1363  H1389   1.081   .     S
C1364  H1390   1.081   .     S
C1364  N1393   1.367   .     A
C1364  C1677   1.416   .     S
C1365  N1394   1.366   .     A
C1365  H1391   1.081   .     S
C1366  N1393   1.367   .     A
C1366  H1392   1.081   .     S
C1366  C1675   1.416   .     S
C1367  O1399   1.290   .     A
C1367  O1402   1.289   .     A
C1367  C1372   1.445   .     S
C1368  O1400   1.289   .     A
C1368  O1401   1.290   .     A
C1368  C1371   1.445   .     S
C1369  H1385   1.086   .     S
C1369  C1379   1.388   .     A
C1369  C1371   1.391   .     A
C1370  C1380   1.388   .     A
C1370  H1386   1.086   .     S
C1370  C1372   1.391   .     A
C1371  C1373   1.409   .     A
C1372  C1374   1.409   .     A
C1373  C1375   1.419   .     A
C1373  C1403   1.489   .     S
C1374  C1406   1.489   .     S
C1374  C1376   1.419   .     A
C1375  C1381   1.421   .     A
C1375  C1377   1.423   .     A
C1376  C1378   1.423   .     A
C1376  C1382   1.421   .     A
C1377  C1379   1.409   .     A
C1377  C442    1.408   1_556 S
C1378  C1380   1.409   .     A
C1381  O1409   1.383   .     S
C1381  C419    1.394   1_556 S
C1382  O1417   1.383   .     S
Cu1383 O1395   1.984   .     S
Cu1383 O1399   1.957   .     S
Cu1383 O1401   1.957   .     S
Cu1383 Cu1384  2.680   .     S
Cu1383 N1393   2.014   .     S
Cu1383 O1397   1.984   .     S
Cu1384 O1400   1.957   .     S
Cu1384 O1396   1.984   .     S
Cu1384 O1402   1.957   .     S
Cu1384 O1398   1.984   .     S
Cu1384 N1394   2.014   .     S
C1403  H1404   1.083   .     S
C1403  O1405   1.221   .     D
C1406  O1408   1.221   .     D
C1406  H1407   1.083   .     S
O1409  C1410   1.414   .     S
C1410  H1412   1.115   .     S
C1410  C1413   1.520   .     S
C1410  H1411   1.114   .     S
C1413  H1416   1.111   .     S
C1413  H1415   1.111   .     S
H1414  C1517   1.109   .     S
O1417  C1418   1.414   .     S
C1418  H1420   1.115   .     S
C1418  C1421   1.520   .     S
C1418  H1419   1.114   .     S
C1421  H1423   1.111   .     S
C1421  H1424   1.111   .     S
C1421  H1526   1.109   .     S
O1425  C1426   1.415   .     S
C1426  C1429   1.518   .     S
C1426  H1427   1.112   .     S
C1426  H1428   1.117   .     S
C1429  H1432   1.104   .     S
C1429  H1431   1.110   .     S
H1430  C1741   1.105   .     S
O1433  C1434   1.415   .     S
C1434  H1436   1.113   .     S
C1434  C1437   1.521   .     S
C1434  H1435   1.113   .     S
C1437  H1439   1.107   .     S
C1437  H1438   1.110   .     S
C1437  H1752   1.109   .     S
O1441  C1442   1.415   .     S
C1442  H1443   1.112   .     S
C1442  H1444   1.117   .     S
C1442  C1445   1.518   .     S
C1445  H1448   1.104   .     S
C1445  H1447   1.110   .     S
H1446  C1757   1.105   .     S
O1449  C1450   1.415   .     S
C1450  H1451   1.113   .     S
C1450  C1453   1.521   .     S
C1450  H1452   1.113   .     S
C1453  H1455   1.110   .     S
C1453  H1456   1.107   .     S
C1453  H1766   1.109   .     S
C1457  O1502   1.295   .     A
C1457  O1499   1.294   .     A
C1457  C1466   1.465   .     S
C1458  O1500   1.295   .     A
C1458  O1501   1.294   .     A
C1458  C1465   1.465   .     S
C1459  C1484   1.396   .     A
C1459  H1491   1.083   .     S
C1460  H1492   1.083   .     S
C1460  C1483   1.396   .     A
C1460  C550    1.394   1_556 S
C1461  C1466   1.409   .     A
C1461  O1529   1.383   .     S
C1462  C1465   1.412   .     A
C1462  O1537   1.383   .     S
C1462  C1256   1.394   1_655 S
C1463  O1545   1.383   .     S
C1463  C1465   1.409   .     A
C1463  C1253   1.393   1_655 S
C1464  O1553   1.383   .     S
C1464  C1466   1.412   .     A
C1467  N1498   1.367   .     A
C1467  H1493   1.081   .     S
C1468  H1494   1.081   .     S
C1468  N1497   1.367   .     A
C1468  C1781   1.416   .     S
C1469  N1498   1.366   .     A
C1469  H1495   1.081   .     S
C1470  N1497   1.367   .     A
C1470  H1496   1.081   .     S
C1470  C1779   1.416   .     S
C1471  O1503   1.290   .     A
C1471  O1506   1.289   .     A
C1471  C1476   1.445   .     S
C1472  O1504   1.289   .     A
C1472  O1505   1.290   .     A
C1472  C1475   1.445   .     S
C1473  H1489   1.086   .     S
C1473  C1483   1.388   .     A
C1473  C1475   1.391   .     A
C1474  C1484   1.388   .     A
C1474  H1490   1.086   .     S
C1474  C1476   1.391   .     A
C1475  C1477   1.409   .     A
C1476  C1478   1.409   .     A
C1477  C1479   1.419   .     A
C1477  C1507   1.489   .     S
C1478  C1510   1.489   .     S
C1478  C1480   1.419   .     A
C1479  C1485   1.421   .     A
C1479  C1481   1.423   .     A
C1480  C1482   1.423   .     A
C1480  C1486   1.421   .     A
C1481  C1483   1.409   .     A
C1481  C546    1.408   1_556 S
C1482  C1484   1.409   .     A
C1485  O1513   1.383   .     S
C1485  C523    1.394   1_556 S
C1486  O1521   1.383   .     S
Cu1487 O1499   1.984   .     S
Cu1487 O1503   1.957   .     S
Cu1487 O1505   1.957   .     S
Cu1487 Cu1488  2.680   .     S
Cu1487 N1497   2.014   .     S
Cu1487 O1501   1.984   .     S
Cu1488 O1504   1.957   .     S
Cu1488 O1500   1.984   .     S
Cu1488 O1506   1.957   .     S
Cu1488 O1502   1.984   .     S
Cu1488 N1498   2.014   .     S
C1507  H1508   1.083   .     S
C1507  O1509   1.221   .     D
C1510  O1512   1.221   .     D
C1510  H1511   1.083   .     S
O1513  C1514   1.414   .     S
C1514  H1516   1.115   .     S
C1514  C1517   1.520   .     S
C1514  H1515   1.114   .     S
C1517  H1520   1.111   .     S
C1517  H1519   1.111   .     S
H1518  C1309   1.109   1_655 S
O1521  C1522   1.414   .     S
C1522  H1524   1.115   .     S
C1522  C1525   1.520   .     S
C1522  H1523   1.114   .     S
C1525  H1527   1.111   .     S
C1525  H1528   1.111   .     S
C1525  H1318   1.109   1_655 S
O1529  C1530   1.415   .     S
C1530  C1533   1.518   .     S
C1530  H1531   1.112   .     S
C1530  H1532   1.117   .     S
C1533  H1536   1.104   .     S
C1533  H1535   1.110   .     S
H1534  C1845   1.105   .     S
O1537  C1538   1.415   .     S
C1538  H1540   1.113   .     S
C1538  C1541   1.521   .     S
C1538  H1539   1.113   .     S
C1541  H1543   1.107   .     S
C1541  H1542   1.110   .     S
C1541  H1856   1.109   .     S
O1545  C1546   1.415   .     S
C1546  H1547   1.112   .     S
C1546  H1548   1.117   .     S
C1546  C1549   1.518   .     S
C1549  H1552   1.104   .     S
C1549  H1551   1.110   .     S
H1550  C1861   1.105   .     S
O1553  C1554   1.415   .     S
C1554  H1555   1.113   .     S
C1554  C1557   1.521   .     S
C1554  H1556   1.113   .     S
C1557  H1559   1.110   .     S
C1557  H1560   1.107   .     S
C1557  H1870   1.109   .     S
C1561  O1606   1.295   .     A
C1561  O1603   1.294   .     A
C1561  C1570   1.465   .     S
C1562  O1604   1.295   .     A
C1562  O1605   1.294   .     A
C1562  C1569   1.465   .     S
C1563  C1588   1.396   .     A
C1563  H1595   1.083   .     S
C1564  H1596   1.083   .     S
C1564  C1587   1.396   .     A
C1564  C654    1.394   1_556 S
C1565  C1570   1.409   .     A
C1565  O1633   1.383   .     S
C1565  C1775   1.393   1_455 S
C1566  C1569   1.412   .     A
C1566  O1641   1.383   .     S
C1566  C1672   1.394   .     S
C1567  O1649   1.383   .     S
C1567  C1569   1.409   .     A
C1567  C1669   1.393   .     S
C1568  O1657   1.383   .     S
C1568  C1570   1.412   .     A
C1568  C1774   1.394   1_455 S
C1571  N1602   1.367   .     A
C1571  H1597   1.081   .     S
C1572  H1598   1.081   .     S
C1572  N1601   1.367   .     A
C1572  C949    1.416   1_565 S
C1573  N1602   1.366   .     A
C1573  H1599   1.081   .     S
C1574  N1601   1.367   .     A
C1574  H1600   1.081   .     S
C1574  C947    1.416   1_565 S
C1575  O1607   1.290   .     A
C1575  O1610   1.289   .     A
C1575  C1580   1.445   .     S
C1576  O1608   1.289   .     A
C1576  O1609   1.290   .     A
C1576  C1579   1.445   .     S
C1577  H1593   1.086   .     S
C1577  C1587   1.388   .     A
C1577  C1579   1.391   .     A
C1578  C1588   1.388   .     A
C1578  H1594   1.086   .     S
C1578  C1580   1.391   .     A
C1579  C1581   1.409   .     A
C1580  C1582   1.409   .     A
C1581  C1583   1.419   .     A
C1581  C1611   1.489   .     S
C1582  C1614   1.489   .     S
C1582  C1584   1.419   .     A
C1583  C1589   1.421   .     A
C1583  C1585   1.423   .     A
C1584  C1586   1.423   .     A
C1584  C1590   1.421   .     A
C1585  C1587   1.409   .     A
C1585  C650    1.408   1_556 S
C1586  C1588   1.409   .     A
C1589  O1617   1.383   .     S
C1589  C627    1.394   1_556 S
C1590  O1625   1.383   .     S
Cu1591 O1603   1.984   .     S
Cu1591 O1607   1.957   .     S
Cu1591 O1609   1.957   .     S
Cu1591 Cu1592  2.680   .     S
Cu1591 N1601   2.014   .     S
Cu1591 O1605   1.984   .     S
Cu1592 O1608   1.957   .     S
Cu1592 O1604   1.984   .     S
Cu1592 O1610   1.957   .     S
Cu1592 O1606   1.984   .     S
Cu1592 N1602   2.014   .     S
C1611  H1612   1.083   .     S
C1611  O1613   1.221   .     D
C1614  O1616   1.221   .     D
C1614  H1615   1.083   .     S
O1617  C1618   1.414   .     S
C1618  H1620   1.115   .     S
C1618  C1621   1.520   .     S
C1618  H1619   1.114   .     S
C1621  H1624   1.111   .     S
C1621  H1623   1.111   .     S
C1621  H1830   1.109   1_455 S
H1622  C1725   1.109   .     S
O1625  C1626   1.414   .     S
C1626  H1628   1.115   .     S
C1626  C1629   1.520   .     S
C1626  H1627   1.114   .     S
C1629  H1631   1.111   .     S
C1629  H1632   1.111   .     S
C1629  H1734   1.109   .     S
H1630  C1837   1.109   1_455 S
O1633  C1634   1.415   .     S
C1634  C1637   1.518   .     S
C1634  H1635   1.112   .     S
C1634  H1636   1.117   .     S
C1637  H1640   1.104   .     S
C1637  H1639   1.110   .     S
H1638  C1013   1.105   1_565 S
O1641  C1642   1.415   .     S
C1642  H1644   1.113   .     S
C1642  C1645   1.521   .     S
C1642  H1643   1.113   .     S
C1645  H1647   1.107   .     S
C1645  H1646   1.110   .     S
C1645  H1024   1.109   1_565 S
O1649  C1650   1.415   .     S
C1650  H1651   1.112   .     S
C1650  H1652   1.117   .     S
C1650  C1653   1.518   .     S
C1653  H1656   1.104   .     S
C1653  H1655   1.110   .     S
H1654  C1029   1.105   1_565 S
O1657  C1658   1.415   .     S
C1658  H1659   1.113   .     S
C1658  C1661   1.521   .     S
C1658  H1660   1.113   .     S
C1661  H1663   1.110   .     S
C1661  H1664   1.107   .     S
C1661  H1038   1.109   1_565 S
C1665  O1710   1.295   .     A
C1665  O1707   1.294   .     A
C1665  C1674   1.465   .     S
C1666  O1708   1.295   .     A
C1666  O1709   1.294   .     A
C1666  C1673   1.465   .     S
C1667  C1692   1.396   .     A
C1667  H1699   1.083   .     S
C1668  H1700   1.083   .     S
C1668  C1691   1.396   .     A
C1668  C758    1.394   1_556 S
C1669  C1674   1.409   .     A
C1669  O1737   1.383   .     S
C1670  C1673   1.412   .     A
C1670  O1745   1.383   .     S
C1670  C1776   1.394   .     S
C1671  O1753   1.383   .     S
C1671  C1673   1.409   .     A
C1671  C1773   1.393   .     S
C1672  O1761   1.383   .     S
C1672  C1674   1.412   .     A
C1675  N1706   1.367   .     A
C1675  H1701   1.081   .     S
C1676  H1702   1.081   .     S
C1676  N1705   1.367   .     A
C1676  C1053   1.416   1_565 S
C1677  N1706   1.366   .     A
C1677  H1703   1.081   .     S
C1678  N1705   1.367   .     A
C1678  H1704   1.081   .     S
C1678  C1051   1.416   1_565 S
C1679  O1711   1.290   .     A
C1679  O1714   1.289   .     A
C1679  C1684   1.445   .     S
C1680  O1712   1.289   .     A
C1680  O1713   1.290   .     A
C1680  C1683   1.445   .     S
C1681  H1697   1.086   .     S
C1681  C1691   1.388   .     A
C1681  C1683   1.391   .     A
C1682  C1692   1.388   .     A
C1682  H1698   1.086   .     S
C1682  C1684   1.391   .     A
C1683  C1685   1.409   .     A
C1684  C1686   1.409   .     A
C1685  C1687   1.419   .     A
C1685  C1715   1.489   .     S
C1686  C1718   1.489   .     S
C1686  C1688   1.419   .     A
C1687  C1693   1.421   .     A
C1687  C1689   1.423   .     A
C1688  C1690   1.423   .     A
C1688  C1694   1.421   .     A
C1689  C1691   1.409   .     A
C1689  C754    1.408   1_556 S
C1690  C1692   1.409   .     A
C1693  O1721   1.383   .     S
C1693  C731    1.394   1_556 S
C1694  O1729   1.383   .     S
Cu1695 O1707   1.984   .     S
Cu1695 O1711   1.957   .     S
Cu1695 O1713   1.957   .     S
Cu1695 Cu1696  2.680   .     S
Cu1695 N1705   2.014   .     S
Cu1695 O1709   1.984   .     S
Cu1696 O1712   1.957   .     S
Cu1696 O1708   1.984   .     S
Cu1696 O1714   1.957   .     S
Cu1696 O1710   1.984   .     S
Cu1696 N1706   2.014   .     S
C1715  H1716   1.083   .     S
C1715  O1717   1.221   .     D
C1718  O1720   1.221   .     D
C1718  H1719   1.083   .     S
O1721  C1722   1.414   .     S
C1722  H1724   1.115   .     S
C1722  C1725   1.520   .     S
C1722  H1723   1.114   .     S
C1725  H1728   1.111   .     S
C1725  H1727   1.111   .     S
H1726  C1829   1.109   .     S
O1729  C1730   1.414   .     S
C1730  H1732   1.115   .     S
C1730  C1733   1.520   .     S
C1730  H1731   1.114   .     S
C1733  H1735   1.111   .     S
C1733  H1736   1.111   .     S
C1733  H1838   1.109   .     S
O1737  C1738   1.415   .     S
C1738  C1741   1.518   .     S
C1738  H1739   1.112   .     S
C1738  H1740   1.117   .     S
C1741  H1744   1.104   .     S
C1741  H1743   1.110   .     S
H1742  C1117   1.105   1_565 S
O1745  C1746   1.415   .     S
C1746  H1748   1.113   .     S
C1746  C1749   1.521   .     S
C1746  H1747   1.113   .     S
C1749  H1751   1.107   .     S
C1749  H1750   1.110   .     S
C1749  H1128   1.109   1_565 S
O1753  C1754   1.415   .     S
C1754  H1755   1.112   .     S
C1754  H1756   1.117   .     S
C1754  C1757   1.518   .     S
C1757  H1760   1.104   .     S
C1757  H1759   1.110   .     S
H1758  C1133   1.105   1_565 S
O1761  C1762   1.415   .     S
C1762  H1763   1.113   .     S
C1762  C1765   1.521   .     S
C1762  H1764   1.113   .     S
C1765  H1767   1.110   .     S
C1765  H1768   1.107   .     S
C1765  H1142   1.109   1_565 S
C1769  O1814   1.295   .     A
C1769  O1811   1.294   .     A
C1769  C1778   1.465   .     S
C1770  O1812   1.295   .     A
C1770  O1813   1.294   .     A
C1770  C1777   1.465   .     S
C1771  C1796   1.396   .     A
C1771  H1803   1.083   .     S
C1772  H1804   1.083   .     S
C1772  C1795   1.396   .     A
C1772  C862    1.394   1_556 S
C1773  C1778   1.409   .     A
C1773  O1841   1.383   .     S
C1774  C1777   1.412   .     A
C1774  O1849   1.383   .     S
C1774  C1568   1.394   1_655 S
C1775  O1857   1.383   .     S
C1775  C1777   1.409   .     A
C1775  C1565   1.393   1_655 S
C1776  O1865   1.383   .     S
C1776  C1778   1.412   .     A
C1779  N1810   1.367   .     A
C1779  H1805   1.081   .     S
C1780  H1806   1.081   .     S
C1780  N1809   1.367   .     A
C1780  C1157   1.416   1_565 S
C1781  N1810   1.366   .     A
C1781  H1807   1.081   .     S
C1782  N1809   1.367   .     A
C1782  H1808   1.081   .     S
C1782  C1155   1.416   1_565 S
C1783  O1815   1.290   .     A
C1783  O1818   1.289   .     A
C1783  C1788   1.445   .     S
C1784  O1816   1.289   .     A
C1784  O1817   1.290   .     A
C1784  C1787   1.445   .     S
C1785  H1801   1.086   .     S
C1785  C1795   1.388   .     A
C1785  C1787   1.391   .     A
C1786  C1796   1.388   .     A
C1786  H1802   1.086   .     S
C1786  C1788   1.391   .     A
C1787  C1789   1.409   .     A
C1788  C1790   1.409   .     A
C1789  C1791   1.419   .     A
C1789  C1819   1.489   .     S
C1790  C1822   1.489   .     S
C1790  C1792   1.419   .     A
C1791  C1797   1.421   .     A
C1791  C1793   1.423   .     A
C1792  C1794   1.423   .     A
C1792  C1798   1.421   .     A
C1793  C1795   1.409   .     A
C1793  C858    1.408   1_556 S
C1794  C1796   1.409   .     A
C1797  O1825   1.383   .     S
C1797  C835    1.394   1_556 S
C1798  O1833   1.383   .     S
Cu1799 O1811   1.984   .     S
Cu1799 O1815   1.957   .     S
Cu1799 O1817   1.957   .     S
Cu1799 Cu1800  2.680   .     S
Cu1799 N1809   2.014   .     S
Cu1799 O1813   1.984   .     S
Cu1800 O1816   1.957   .     S
Cu1800 O1812   1.984   .     S
Cu1800 O1818   1.957   .     S
Cu1800 O1814   1.984   .     S
Cu1800 N1810   2.014   .     S
C1819  H1820   1.083   .     S
C1819  O1821   1.221   .     D
C1822  O1824   1.221   .     D
C1822  H1823   1.083   .     S
O1825  C1826   1.414   .     S
C1826  H1828   1.115   .     S
C1826  C1829   1.520   .     S
C1826  H1827   1.114   .     S
C1829  H1832   1.111   .     S
C1829  H1831   1.111   .     S
H1830  C1621   1.109   1_655 S
O1833  C1834   1.414   .     S
C1834  H1836   1.115   .     S
C1834  C1837   1.520   .     S
C1834  H1835   1.114   .     S
C1837  H1839   1.111   .     S
C1837  H1840   1.111   .     S
C1837  H1630   1.109   1_655 S
O1841  C1842   1.415   .     S
C1842  C1845   1.518   .     S
C1842  H1843   1.112   .     S
C1842  H1844   1.117   .     S
C1845  H1848   1.104   .     S
C1845  H1847   1.110   .     S
H1846  C1221   1.105   1_565 S
O1849  C1850   1.415   .     S
C1850  H1852   1.113   .     S
C1850  C1853   1.521   .     S
C1850  H1851   1.113   .     S
C1853  H1855   1.107   .     S
C1853  H1854   1.110   .     S
C1853  H1232   1.109   1_565 S
O1857  C1858   1.415   .     S
C1858  H1859   1.112   .     S
C1858  H1860   1.117   .     S
C1858  C1861   1.518   .     S
C1861  H1864   1.104   .     S
C1861  H1863   1.110   .     S
H1862  C1237   1.105   1_565 S
O1865  C1866   1.415   .     S
C1866  H1867   1.113   .     S
C1866  C1869   1.521   .     S
C1866  H1868   1.113   .     S
C1869  H1871   1.110   .     S
C1869  H1872   1.107   .     S
C1869  H1246   1.109   1_565 S
