data_str_m1_o10_o18_pcu_sym.102
_audit_creation_date              2020-01-03
_audit_creation_method            'Materials Studio'
_symmetry_space_group_name_H-M    'P1'
_symmetry_Int_Tables_number       1
_symmetry_cell_setting            triclinic
loop_
_symmetry_equiv_pos_as_xyz
  x,y,z
_cell_length_a                    32.5733
_cell_length_b                    32.5387
_cell_length_c                    35.5285
_cell_angle_alpha                 98.0455
_cell_angle_beta                  73.3981
_cell_angle_gamma                 98.5726
loop_
_atom_site_label
_atom_site_type_symbol
_atom_site_fract_x
_atom_site_fract_y
_atom_site_fract_z
_atom_site_U_iso_or_equiv
_atom_site_adp_type
_atom_site_occupancy
C1     C     0.05249   0.15978   0.25877   0.00000  Uiso   1.00
C2     C     0.19957   0.12720   0.45942   0.00000  Uiso   1.00
C3     C     0.22032   0.10670   0.47908   0.00000  Uiso   1.00
C4     C     0.28106   0.17348   0.24122   0.00000  Uiso   1.00
C5     C     0.20968   0.11050   0.02046   0.00000  Uiso   1.00
C6     C     0.17756   0.13661   0.04146   0.00000  Uiso   1.00
C7     C     0.23147   0.09084   0.04147   0.00000  Uiso   1.00
C8     C     0.22539   0.10280   0.08263   0.00000  Uiso   1.00
C9     C     0.17592   0.15109   0.08066   0.00000  Uiso   1.00
C10    C     0.32695   0.17606   0.23765   0.00000  Uiso   1.00
C11    C     0.00716   0.15717   0.26214   0.00000  Uiso   1.00
C12    C     0.09703   0.21084   0.42200   0.00000  Uiso   1.00
C13    C     0.18096   0.32215   0.23807   0.00000  Uiso   1.00
C14    C     0.15175   0.01203   0.26210   0.00000  Uiso   1.00
C15    C     0.15602   0.05605   0.25887   0.00000  Uiso   1.00
C16    C     0.17689   0.27765   0.24133   0.00000  Uiso   1.00
C17    C     0.18796   0.14535   0.14398   0.00000  Uiso   1.00
C18    C     0.14555   0.18759   0.35630   0.00000  Uiso   1.00
C19    C     0.13369   0.19223   0.39982   0.00000  Uiso   1.00
C20    C     0.19816   0.13389   0.10139   0.00000  Uiso   1.00
C21    C     0.08308   0.20948   0.46278   0.00000  Uiso   1.00
C22    C     0.25940   0.05621   0.02156   0.00000  Uiso   1.00
C23    C     0.15729   0.17408   0.41915   0.00000  Uiso   1.00
C24    C     0.24928   0.08457   0.10646   0.00000  Uiso   1.00
C25    C     0.29149   0.11173   0.10736   0.00000  Uiso   1.00
C26    C     0.08081   0.14783   0.08103   0.00000  Uiso   1.00
C27    C     0.07453   0.10015   0.07920   0.00000  Uiso   1.00
C28    C     0.14297   0.17087   0.46015   0.00000  Uiso   1.00
C29    C     0.10522   0.18899   0.48187   0.00000  Uiso   1.00
C30    C     0.16475   0.14996   0.48002   0.00000  Uiso   1.00
C31    C     0.15044   0.15061   0.02185   0.00000  Uiso   1.00
C32    C     0.10862   0.16305   0.04188   0.00000  Uiso   1.00
C33    C     0.08820   0.18423   0.02192   0.00000  Uiso   1.00
H34    H     0.05733   0.19527   0.03725   0.00000  Uiso   1.00
H35    H     0.18660   0.16235   0.40122   0.00000  Uiso   1.00
H36    H     0.21083   0.12307   0.42770   0.00000  Uiso   1.00
H37    H     0.24699   0.02768   0.03700   0.00000  Uiso   1.00
H38    H     0.25919   0.04559   0.49076   0.00000  Uiso   1.00
H39    H     0.29328   0.06626   0.02226   0.00000  Uiso   1.00
H40    H     0.31327   0.11279   0.07702   0.00000  Uiso   1.00
H41    H     0.28543   0.14403   0.12036   0.00000  Uiso   1.00
H42    H     0.30766   0.09841   0.12567   0.00000  Uiso   1.00
H43    H     0.22913   0.08182   0.13721   0.00000  Uiso   1.00
H44    H     0.25634   0.05227   0.09487   0.00000  Uiso   1.00
H45    H     0.01651   0.19345   0.21499   0.00000  Uiso   1.00
H46    H     0.06037   0.08650   0.05460   0.00000  Uiso   1.00
H47    H     0.10547   0.08749   0.07500   0.00000  Uiso   1.00
H48    H     0.05227   0.09039   0.10733   0.00000  Uiso   1.00
H49    H     0.09269   0.16149   0.10667   0.00000  Uiso   1.00
H50    H     0.04810   0.15801   0.08835   0.00000  Uiso   1.00
H51    H     0.31827   0.13969   0.28504   0.00000  Uiso   1.00
H52    H     0.20794   0.00279   0.21594   0.00000  Uiso   1.00
H53    H     0.12438   0.33214   0.28429   0.00000  Uiso   1.00
H54    H     0.15882   0.17743   0.09508   0.00000  Uiso   1.00
H55    H     0.24679   0.09053   0.46082   0.00000  Uiso   1.00
H56    H     0.05402   0.22323   0.47925   0.00000  Uiso   1.00
H57    H     0.07831   0.22514   0.40773   0.00000  Uiso   1.00
O58    O     0.16667   0.16667   0.25000   0.00000  Uiso   1.00
O59    O     0.15693   0.12393   0.16625   0.00000  Uiso   1.00
O60    O     0.12687   0.20646   0.33749   0.00000  Uiso   1.00
O61    O     0.21088   0.17493   0.15877   0.00000  Uiso   1.00
O62    O     0.17198   0.16135   0.33749   0.00000  Uiso   1.00
O63    O     0.17849   0.08101   0.27820   0.00000  Uiso   1.00
O64    O     0.14581   0.26136   0.26767   0.00000  Uiso   1.00
O65    O     0.07452   0.13251   0.23607   0.00000  Uiso   1.00
O66    O     0.26785   0.19179   0.21805   0.00000  Uiso   1.00
O67    O     0.06990   0.18960   0.27820   0.00000  Uiso   1.00
O68    O     0.25440   0.15277   0.26767   0.00000  Uiso   1.00
O69    O     0.13800   0.06903   0.23607   0.00000  Uiso   1.00
O70    O     0.20437   0.25527   0.21805   0.00000  Uiso   1.00
Zn71   Zn    0.19244   0.14090   0.28277   0.00000  Uiso   1.00
Zn72   Zn    0.13459   0.12378   0.22257   0.00000  Uiso   1.00
Zn73   Zn    0.21166   0.19664   0.21188   0.00000  Uiso   1.00
Zn74   Zn    0.12798   0.20535   0.28277   0.00000  Uiso   1.00
C75    C     0.38583   0.15978   0.25877   0.00000  Uiso   1.00
C76    C     0.53291   0.12720   0.45942   0.00000  Uiso   1.00
C77    C     0.55365   0.10670   0.47908   0.00000  Uiso   1.00
C78    C     0.61439   0.17348   0.24122   0.00000  Uiso   1.00
C79    C     0.54301   0.11050   0.02046   0.00000  Uiso   1.00
C80    C     0.51089   0.13661   0.04146   0.00000  Uiso   1.00
C81    C     0.56480   0.09084   0.04147   0.00000  Uiso   1.00
C82    C     0.55872   0.10280   0.08263   0.00000  Uiso   1.00
C83    C     0.50925   0.15109   0.08066   0.00000  Uiso   1.00
C84    C     0.66028   0.17606   0.23765   0.00000  Uiso   1.00
C85    C     0.34049   0.15717   0.26214   0.00000  Uiso   1.00
C86    C     0.43036   0.21084   0.42200   0.00000  Uiso   1.00
C87    C     0.51429   0.32215   0.23807   0.00000  Uiso   1.00
C88    C     0.48508   0.01203   0.26210   0.00000  Uiso   1.00
C89    C     0.48935   0.05605   0.25887   0.00000  Uiso   1.00
C90    C     0.51022   0.27765   0.24133   0.00000  Uiso   1.00
C91    C     0.52129   0.14535   0.14398   0.00000  Uiso   1.00
C92    C     0.47888   0.18759   0.35630   0.00000  Uiso   1.00
C93    C     0.46702   0.19223   0.39982   0.00000  Uiso   1.00
C94    C     0.53149   0.13389   0.10139   0.00000  Uiso   1.00
C95    C     0.41641   0.20948   0.46278   0.00000  Uiso   1.00
C96    C     0.59273   0.05621   0.02156   0.00000  Uiso   1.00
C97    C     0.49062   0.17408   0.41915   0.00000  Uiso   1.00
C98    C     0.58261   0.08457   0.10646   0.00000  Uiso   1.00
C99    C     0.62482   0.11173   0.10736   0.00000  Uiso   1.00
C100   C     0.41414   0.14783   0.08103   0.00000  Uiso   1.00
C101   C     0.40786   0.10015   0.07920   0.00000  Uiso   1.00
C102   C     0.47630   0.17087   0.46015   0.00000  Uiso   1.00
C103   C     0.43855   0.18899   0.48187   0.00000  Uiso   1.00
C104   C     0.49809   0.14996   0.48002   0.00000  Uiso   1.00
C105   C     0.48378   0.15061   0.02185   0.00000  Uiso   1.00
C106   C     0.44196   0.16305   0.04188   0.00000  Uiso   1.00
C107   C     0.42154   0.18423   0.02192   0.00000  Uiso   1.00
H108   H     0.39066   0.19527   0.03725   0.00000  Uiso   1.00
H109   H     0.51994   0.16235   0.40122   0.00000  Uiso   1.00
H110   H     0.54416   0.12307   0.42770   0.00000  Uiso   1.00
H111   H     0.58032   0.02768   0.03700   0.00000  Uiso   1.00
H112   H     0.59252   0.04559   0.49076   0.00000  Uiso   1.00
H113   H     0.62661   0.06626   0.02226   0.00000  Uiso   1.00
H114   H     0.64660   0.11279   0.07702   0.00000  Uiso   1.00
H115   H     0.61876   0.14403   0.12036   0.00000  Uiso   1.00
H116   H     0.64099   0.09841   0.12567   0.00000  Uiso   1.00
H117   H     0.56246   0.08182   0.13721   0.00000  Uiso   1.00
H118   H     0.58967   0.05227   0.09487   0.00000  Uiso   1.00
H119   H     0.34984   0.19345   0.21499   0.00000  Uiso   1.00
H120   H     0.39371   0.08650   0.05460   0.00000  Uiso   1.00
H121   H     0.43881   0.08749   0.07500   0.00000  Uiso   1.00
H122   H     0.38561   0.09039   0.10733   0.00000  Uiso   1.00
H123   H     0.42603   0.16149   0.10667   0.00000  Uiso   1.00
H124   H     0.38143   0.15801   0.08835   0.00000  Uiso   1.00
H125   H     0.65160   0.13969   0.28504   0.00000  Uiso   1.00
H126   H     0.54128   0.00279   0.21594   0.00000  Uiso   1.00
H127   H     0.45772   0.33214   0.28429   0.00000  Uiso   1.00
H128   H     0.49215   0.17743   0.09508   0.00000  Uiso   1.00
H129   H     0.58012   0.09053   0.46082   0.00000  Uiso   1.00
H130   H     0.38736   0.22323   0.47925   0.00000  Uiso   1.00
H131   H     0.41165   0.22514   0.40773   0.00000  Uiso   1.00
O132   O     0.50000   0.16667   0.25000   0.00000  Uiso   1.00
O133   O     0.49027   0.12393   0.16625   0.00000  Uiso   1.00
O134   O     0.46020   0.20646   0.33749   0.00000  Uiso   1.00
O135   O     0.54421   0.17493   0.15877   0.00000  Uiso   1.00
O136   O     0.50532   0.16135   0.33749   0.00000  Uiso   1.00
O137   O     0.51182   0.08101   0.27820   0.00000  Uiso   1.00
O138   O     0.47914   0.26136   0.26767   0.00000  Uiso   1.00
O139   O     0.40785   0.13251   0.23607   0.00000  Uiso   1.00
O140   O     0.60119   0.19179   0.21805   0.00000  Uiso   1.00
O141   O     0.40323   0.18960   0.27820   0.00000  Uiso   1.00
O142   O     0.58773   0.15277   0.26767   0.00000  Uiso   1.00
O143   O     0.47133   0.06903   0.23607   0.00000  Uiso   1.00
O144   O     0.53771   0.25527   0.21805   0.00000  Uiso   1.00
Zn145  Zn    0.52577   0.14090   0.28277   0.00000  Uiso   1.00
Zn146  Zn    0.46792   0.12378   0.22257   0.00000  Uiso   1.00
Zn147  Zn    0.54500   0.19664   0.21188   0.00000  Uiso   1.00
Zn148  Zn    0.46131   0.20535   0.28277   0.00000  Uiso   1.00
C149   C     0.71916   0.15978   0.25877   0.00000  Uiso   1.00
C150   C     0.86624   0.12720   0.45942   0.00000  Uiso   1.00
C151   C     0.88698   0.10670   0.47908   0.00000  Uiso   1.00
C152   C     0.94772   0.17348   0.24122   0.00000  Uiso   1.00
C153   C     0.87634   0.11050   0.02046   0.00000  Uiso   1.00
C154   C     0.84423   0.13661   0.04146   0.00000  Uiso   1.00
C155   C     0.89814   0.09084   0.04147   0.00000  Uiso   1.00
C156   C     0.89205   0.10280   0.08263   0.00000  Uiso   1.00
C157   C     0.84258   0.15109   0.08066   0.00000  Uiso   1.00
C158   C     0.99361   0.17606   0.23765   0.00000  Uiso   1.00
C159   C     0.67382   0.15717   0.26214   0.00000  Uiso   1.00
C160   C     0.76370   0.21084   0.42200   0.00000  Uiso   1.00
C161   C     0.84762   0.32215   0.23807   0.00000  Uiso   1.00
C162   C     0.81842   0.01203   0.26210   0.00000  Uiso   1.00
C163   C     0.82269   0.05605   0.25887   0.00000  Uiso   1.00
C164   C     0.84355   0.27765   0.24133   0.00000  Uiso   1.00
C165   C     0.85463   0.14535   0.14398   0.00000  Uiso   1.00
C166   C     0.81221   0.18759   0.35630   0.00000  Uiso   1.00
C167   C     0.80036   0.19223   0.39982   0.00000  Uiso   1.00
C168   C     0.86483   0.13389   0.10139   0.00000  Uiso   1.00
C169   C     0.74975   0.20948   0.46278   0.00000  Uiso   1.00
C170   C     0.92606   0.05621   0.02156   0.00000  Uiso   1.00
C171   C     0.82396   0.17408   0.41915   0.00000  Uiso   1.00
C172   C     0.91595   0.08457   0.10646   0.00000  Uiso   1.00
C173   C     0.95815   0.11173   0.10736   0.00000  Uiso   1.00
C174   C     0.74747   0.14783   0.08103   0.00000  Uiso   1.00
C175   C     0.74120   0.10015   0.07920   0.00000  Uiso   1.00
C176   C     0.80964   0.17087   0.46015   0.00000  Uiso   1.00
C177   C     0.77189   0.18899   0.48187   0.00000  Uiso   1.00
C178   C     0.83142   0.14996   0.48002   0.00000  Uiso   1.00
C179   C     0.81711   0.15061   0.02185   0.00000  Uiso   1.00
C180   C     0.77529   0.16305   0.04188   0.00000  Uiso   1.00
C181   C     0.75487   0.18423   0.02192   0.00000  Uiso   1.00
H182   H     0.72399   0.19527   0.03725   0.00000  Uiso   1.00
H183   H     0.85327   0.16235   0.40122   0.00000  Uiso   1.00
H184   H     0.87750   0.12307   0.42770   0.00000  Uiso   1.00
H185   H     0.91366   0.02768   0.03700   0.00000  Uiso   1.00
H186   H     0.92585   0.04559   0.49076   0.00000  Uiso   1.00
H187   H     0.95994   0.06626   0.02226   0.00000  Uiso   1.00
H188   H     0.97993   0.11279   0.07702   0.00000  Uiso   1.00
H189   H     0.95209   0.14403   0.12036   0.00000  Uiso   1.00
H190   H     0.97432   0.09841   0.12567   0.00000  Uiso   1.00
H191   H     0.89580   0.08182   0.13721   0.00000  Uiso   1.00
H192   H     0.92301   0.05227   0.09487   0.00000  Uiso   1.00
H193   H     0.68318   0.19345   0.21499   0.00000  Uiso   1.00
H194   H     0.72704   0.08650   0.05460   0.00000  Uiso   1.00
H195   H     0.77214   0.08749   0.07500   0.00000  Uiso   1.00
H196   H     0.71894   0.09039   0.10733   0.00000  Uiso   1.00
H197   H     0.75936   0.16149   0.10667   0.00000  Uiso   1.00
H198   H     0.71476   0.15801   0.08835   0.00000  Uiso   1.00
H199   H     0.98493   0.13969   0.28504   0.00000  Uiso   1.00
H200   H     0.87461   0.00279   0.21594   0.00000  Uiso   1.00
H201   H     0.79105   0.33214   0.28429   0.00000  Uiso   1.00
H202   H     0.82549   0.17743   0.09508   0.00000  Uiso   1.00
H203   H     0.91345   0.09053   0.46082   0.00000  Uiso   1.00
H204   H     0.72069   0.22323   0.47925   0.00000  Uiso   1.00
H205   H     0.74498   0.22514   0.40773   0.00000  Uiso   1.00
O206   O     0.83333   0.16667   0.25000   0.00000  Uiso   1.00
O207   O     0.82360   0.12393   0.16625   0.00000  Uiso   1.00
O208   O     0.79354   0.20646   0.33749   0.00000  Uiso   1.00
O209   O     0.87755   0.17493   0.15877   0.00000  Uiso   1.00
O210   O     0.83865   0.16135   0.33749   0.00000  Uiso   1.00
O211   O     0.84515   0.08101   0.27820   0.00000  Uiso   1.00
O212   O     0.81247   0.26136   0.26767   0.00000  Uiso   1.00
O213   O     0.74119   0.13251   0.23607   0.00000  Uiso   1.00
O214   O     0.93452   0.19179   0.21805   0.00000  Uiso   1.00
O215   O     0.73656   0.18960   0.27820   0.00000  Uiso   1.00
O216   O     0.92106   0.15277   0.26767   0.00000  Uiso   1.00
O217   O     0.80467   0.06903   0.23607   0.00000  Uiso   1.00
O218   O     0.87104   0.25527   0.21805   0.00000  Uiso   1.00
Zn219  Zn    0.85910   0.14090   0.28277   0.00000  Uiso   1.00
Zn220  Zn    0.80125   0.12378   0.22257   0.00000  Uiso   1.00
Zn221  Zn    0.87833   0.19664   0.21188   0.00000  Uiso   1.00
Zn222  Zn    0.79465   0.20535   0.28277   0.00000  Uiso   1.00
C223   C     0.05249   0.49312   0.25877   0.00000  Uiso   1.00
C224   C     0.19957   0.46054   0.45942   0.00000  Uiso   1.00
C225   C     0.22032   0.44004   0.47908   0.00000  Uiso   1.00
C226   C     0.28106   0.50681   0.24122   0.00000  Uiso   1.00
C227   C     0.20968   0.44383   0.02046   0.00000  Uiso   1.00
C228   C     0.17756   0.46994   0.04146   0.00000  Uiso   1.00
C229   C     0.23147   0.42418   0.04147   0.00000  Uiso   1.00
C230   C     0.22539   0.43614   0.08263   0.00000  Uiso   1.00
C231   C     0.17592   0.48442   0.08066   0.00000  Uiso   1.00
C232   C     0.32695   0.50939   0.23765   0.00000  Uiso   1.00
C233   C     0.00716   0.49051   0.26214   0.00000  Uiso   1.00
C234   C     0.09703   0.54418   0.42200   0.00000  Uiso   1.00
C235   C     0.18096   0.65548   0.23807   0.00000  Uiso   1.00
C236   C     0.15175   0.34536   0.26210   0.00000  Uiso   1.00
C237   C     0.15602   0.38938   0.25887   0.00000  Uiso   1.00
C238   C     0.17689   0.61099   0.24133   0.00000  Uiso   1.00
C239   C     0.18796   0.47868   0.14398   0.00000  Uiso   1.00
C240   C     0.14555   0.52093   0.35630   0.00000  Uiso   1.00
C241   C     0.13369   0.52557   0.39982   0.00000  Uiso   1.00
C242   C     0.19816   0.46723   0.10139   0.00000  Uiso   1.00
C243   C     0.08308   0.54282   0.46278   0.00000  Uiso   1.00
C244   C     0.25940   0.38955   0.02156   0.00000  Uiso   1.00
C245   C     0.15729   0.50741   0.41915   0.00000  Uiso   1.00
C246   C     0.24928   0.41790   0.10646   0.00000  Uiso   1.00
C247   C     0.29149   0.44506   0.10736   0.00000  Uiso   1.00
C248   C     0.08081   0.48117   0.08103   0.00000  Uiso   1.00
C249   C     0.07453   0.43348   0.07920   0.00000  Uiso   1.00
C250   C     0.14297   0.50421   0.46015   0.00000  Uiso   1.00
C251   C     0.10522   0.52232   0.48187   0.00000  Uiso   1.00
C252   C     0.16475   0.48329   0.48002   0.00000  Uiso   1.00
C253   C     0.15044   0.48395   0.02185   0.00000  Uiso   1.00
C254   C     0.10862   0.49638   0.04188   0.00000  Uiso   1.00
C255   C     0.08820   0.51757   0.02192   0.00000  Uiso   1.00
H256   H     0.05733   0.52860   0.03725   0.00000  Uiso   1.00
H257   H     0.18660   0.49568   0.40122   0.00000  Uiso   1.00
H258   H     0.21083   0.45640   0.42770   0.00000  Uiso   1.00
H259   H     0.24699   0.36102   0.03700   0.00000  Uiso   1.00
H260   H     0.25919   0.37893   0.49076   0.00000  Uiso   1.00
H261   H     0.29328   0.39959   0.02226   0.00000  Uiso   1.00
H262   H     0.31327   0.44613   0.07702   0.00000  Uiso   1.00
H263   H     0.28543   0.47737   0.12036   0.00000  Uiso   1.00
H264   H     0.30766   0.43174   0.12567   0.00000  Uiso   1.00
H265   H     0.22913   0.41515   0.13721   0.00000  Uiso   1.00
H266   H     0.25634   0.38561   0.09487   0.00000  Uiso   1.00
H267   H     0.01651   0.52678   0.21499   0.00000  Uiso   1.00
H268   H     0.06037   0.41983   0.05460   0.00000  Uiso   1.00
H269   H     0.10547   0.42082   0.07500   0.00000  Uiso   1.00
H270   H     0.05227   0.42372   0.10733   0.00000  Uiso   1.00
H271   H     0.09269   0.49483   0.10667   0.00000  Uiso   1.00
H272   H     0.04810   0.49135   0.08835   0.00000  Uiso   1.00
H273   H     0.31827   0.47302   0.28504   0.00000  Uiso   1.00
H274   H     0.20794   0.33613   0.21594   0.00000  Uiso   1.00
H275   H     0.12438   0.66547   0.28429   0.00000  Uiso   1.00
H276   H     0.15882   0.51077   0.09508   0.00000  Uiso   1.00
H277   H     0.24679   0.42386   0.46082   0.00000  Uiso   1.00
H278   H     0.05402   0.55656   0.47925   0.00000  Uiso   1.00
H279   H     0.07831   0.55848   0.40773   0.00000  Uiso   1.00
O280   O     0.16667   0.50000   0.25000   0.00000  Uiso   1.00
O281   O     0.15693   0.45726   0.16625   0.00000  Uiso   1.00
O282   O     0.12687   0.53979   0.33749   0.00000  Uiso   1.00
O283   O     0.21088   0.50826   0.15877   0.00000  Uiso   1.00
O284   O     0.17198   0.49468   0.33749   0.00000  Uiso   1.00
O285   O     0.17849   0.41434   0.27820   0.00000  Uiso   1.00
O286   O     0.14581   0.59469   0.26767   0.00000  Uiso   1.00
O287   O     0.07452   0.46584   0.23607   0.00000  Uiso   1.00
O288   O     0.26785   0.52512   0.21805   0.00000  Uiso   1.00
O289   O     0.06990   0.52293   0.27820   0.00000  Uiso   1.00
O290   O     0.25440   0.48610   0.26767   0.00000  Uiso   1.00
O291   O     0.13800   0.40236   0.23607   0.00000  Uiso   1.00
O292   O     0.20437   0.58860   0.21805   0.00000  Uiso   1.00
Zn293  Zn    0.19244   0.47423   0.28277   0.00000  Uiso   1.00
Zn294  Zn    0.13459   0.45711   0.22257   0.00000  Uiso   1.00
Zn295  Zn    0.21166   0.52997   0.21188   0.00000  Uiso   1.00
Zn296  Zn    0.12798   0.53868   0.28277   0.00000  Uiso   1.00
C297   C     0.38583   0.49312   0.25877   0.00000  Uiso   1.00
C298   C     0.53291   0.46054   0.45942   0.00000  Uiso   1.00
C299   C     0.55365   0.44004   0.47908   0.00000  Uiso   1.00
C300   C     0.61439   0.50681   0.24122   0.00000  Uiso   1.00
C301   C     0.54301   0.44383   0.02046   0.00000  Uiso   1.00
C302   C     0.51089   0.46994   0.04146   0.00000  Uiso   1.00
C303   C     0.56480   0.42418   0.04147   0.00000  Uiso   1.00
C304   C     0.55872   0.43614   0.08263   0.00000  Uiso   1.00
C305   C     0.50925   0.48442   0.08066   0.00000  Uiso   1.00
C306   C     0.66028   0.50939   0.23765   0.00000  Uiso   1.00
C307   C     0.34049   0.49051   0.26214   0.00000  Uiso   1.00
C308   C     0.43036   0.54418   0.42200   0.00000  Uiso   1.00
C309   C     0.51429   0.65548   0.23807   0.00000  Uiso   1.00
C310   C     0.48508   0.34536   0.26210   0.00000  Uiso   1.00
C311   C     0.48935   0.38938   0.25887   0.00000  Uiso   1.00
C312   C     0.51022   0.61099   0.24133   0.00000  Uiso   1.00
C313   C     0.52129   0.47868   0.14398   0.00000  Uiso   1.00
C314   C     0.47888   0.52093   0.35630   0.00000  Uiso   1.00
C315   C     0.46702   0.52557   0.39982   0.00000  Uiso   1.00
C316   C     0.53149   0.46723   0.10139   0.00000  Uiso   1.00
C317   C     0.41641   0.54282   0.46278   0.00000  Uiso   1.00
C318   C     0.59273   0.38955   0.02156   0.00000  Uiso   1.00
C319   C     0.49062   0.50741   0.41915   0.00000  Uiso   1.00
C320   C     0.58261   0.41790   0.10646   0.00000  Uiso   1.00
C321   C     0.62482   0.44506   0.10736   0.00000  Uiso   1.00
C322   C     0.41414   0.48117   0.08103   0.00000  Uiso   1.00
C323   C     0.40786   0.43348   0.07920   0.00000  Uiso   1.00
C324   C     0.47630   0.50421   0.46015   0.00000  Uiso   1.00
C325   C     0.43855   0.52232   0.48187   0.00000  Uiso   1.00
C326   C     0.49809   0.48329   0.48002   0.00000  Uiso   1.00
C327   C     0.48378   0.48395   0.02185   0.00000  Uiso   1.00
C328   C     0.44196   0.49638   0.04188   0.00000  Uiso   1.00
C329   C     0.42154   0.51757   0.02192   0.00000  Uiso   1.00
H330   H     0.39066   0.52860   0.03725   0.00000  Uiso   1.00
H331   H     0.51994   0.49568   0.40122   0.00000  Uiso   1.00
H332   H     0.54416   0.45640   0.42770   0.00000  Uiso   1.00
H333   H     0.58032   0.36102   0.03700   0.00000  Uiso   1.00
H334   H     0.59252   0.37893   0.49076   0.00000  Uiso   1.00
H335   H     0.62661   0.39959   0.02226   0.00000  Uiso   1.00
H336   H     0.64660   0.44613   0.07702   0.00000  Uiso   1.00
H337   H     0.61876   0.47737   0.12036   0.00000  Uiso   1.00
H338   H     0.64099   0.43174   0.12567   0.00000  Uiso   1.00
H339   H     0.56246   0.41515   0.13721   0.00000  Uiso   1.00
H340   H     0.58967   0.38561   0.09487   0.00000  Uiso   1.00
H341   H     0.34984   0.52678   0.21499   0.00000  Uiso   1.00
H342   H     0.39371   0.41983   0.05460   0.00000  Uiso   1.00
H343   H     0.43881   0.42082   0.07500   0.00000  Uiso   1.00
H344   H     0.38561   0.42372   0.10733   0.00000  Uiso   1.00
H345   H     0.42603   0.49483   0.10667   0.00000  Uiso   1.00
H346   H     0.38143   0.49135   0.08835   0.00000  Uiso   1.00
H347   H     0.65160   0.47302   0.28504   0.00000  Uiso   1.00
H348   H     0.54128   0.33613   0.21594   0.00000  Uiso   1.00
H349   H     0.45772   0.66547   0.28429   0.00000  Uiso   1.00
H350   H     0.49215   0.51077   0.09508   0.00000  Uiso   1.00
H351   H     0.58012   0.42386   0.46082   0.00000  Uiso   1.00
H352   H     0.38736   0.55656   0.47925   0.00000  Uiso   1.00
H353   H     0.41165   0.55848   0.40773   0.00000  Uiso   1.00
O354   O     0.50000   0.50000   0.25000   0.00000  Uiso   1.00
O355   O     0.49027   0.45726   0.16625   0.00000  Uiso   1.00
O356   O     0.46020   0.53979   0.33749   0.00000  Uiso   1.00
O357   O     0.54421   0.50826   0.15877   0.00000  Uiso   1.00
O358   O     0.50532   0.49468   0.33749   0.00000  Uiso   1.00
O359   O     0.51182   0.41434   0.27820   0.00000  Uiso   1.00
O360   O     0.47914   0.59469   0.26767   0.00000  Uiso   1.00
O361   O     0.40785   0.46584   0.23607   0.00000  Uiso   1.00
O362   O     0.60119   0.52512   0.21805   0.00000  Uiso   1.00
O363   O     0.40323   0.52293   0.27820   0.00000  Uiso   1.00
O364   O     0.58773   0.48610   0.26767   0.00000  Uiso   1.00
O365   O     0.47133   0.40236   0.23607   0.00000  Uiso   1.00
O366   O     0.53771   0.58860   0.21805   0.00000  Uiso   1.00
Zn367  Zn    0.52577   0.47423   0.28277   0.00000  Uiso   1.00
Zn368  Zn    0.46792   0.45711   0.22257   0.00000  Uiso   1.00
Zn369  Zn    0.54500   0.52997   0.21188   0.00000  Uiso   1.00
Zn370  Zn    0.46131   0.53868   0.28277   0.00000  Uiso   1.00
C371   C     0.71916   0.49312   0.25877   0.00000  Uiso   1.00
C372   C     0.86624   0.46054   0.45942   0.00000  Uiso   1.00
C373   C     0.88698   0.44004   0.47908   0.00000  Uiso   1.00
C374   C     0.94772   0.50681   0.24122   0.00000  Uiso   1.00
C375   C     0.87634   0.44383   0.02046   0.00000  Uiso   1.00
C376   C     0.84423   0.46994   0.04146   0.00000  Uiso   1.00
C377   C     0.89814   0.42418   0.04147   0.00000  Uiso   1.00
C378   C     0.89205   0.43614   0.08263   0.00000  Uiso   1.00
C379   C     0.84258   0.48442   0.08066   0.00000  Uiso   1.00
C380   C     0.99361   0.50939   0.23765   0.00000  Uiso   1.00
C381   C     0.67382   0.49051   0.26214   0.00000  Uiso   1.00
C382   C     0.76370   0.54418   0.42200   0.00000  Uiso   1.00
C383   C     0.84762   0.65548   0.23807   0.00000  Uiso   1.00
C384   C     0.81842   0.34536   0.26210   0.00000  Uiso   1.00
C385   C     0.82269   0.38938   0.25887   0.00000  Uiso   1.00
C386   C     0.84355   0.61099   0.24133   0.00000  Uiso   1.00
C387   C     0.85463   0.47868   0.14398   0.00000  Uiso   1.00
C388   C     0.81221   0.52093   0.35630   0.00000  Uiso   1.00
C389   C     0.80036   0.52557   0.39982   0.00000  Uiso   1.00
C390   C     0.86483   0.46723   0.10139   0.00000  Uiso   1.00
C391   C     0.74975   0.54282   0.46278   0.00000  Uiso   1.00
C392   C     0.92606   0.38955   0.02156   0.00000  Uiso   1.00
C393   C     0.82396   0.50741   0.41915   0.00000  Uiso   1.00
C394   C     0.91595   0.41790   0.10646   0.00000  Uiso   1.00
C395   C     0.95815   0.44506   0.10736   0.00000  Uiso   1.00
C396   C     0.74747   0.48117   0.08103   0.00000  Uiso   1.00
C397   C     0.74120   0.43348   0.07920   0.00000  Uiso   1.00
C398   C     0.80964   0.50421   0.46015   0.00000  Uiso   1.00
C399   C     0.77189   0.52232   0.48187   0.00000  Uiso   1.00
C400   C     0.83142   0.48329   0.48002   0.00000  Uiso   1.00
C401   C     0.81711   0.48395   0.02185   0.00000  Uiso   1.00
C402   C     0.77529   0.49638   0.04188   0.00000  Uiso   1.00
C403   C     0.75487   0.51757   0.02192   0.00000  Uiso   1.00
H404   H     0.72399   0.52860   0.03725   0.00000  Uiso   1.00
H405   H     0.85327   0.49568   0.40122   0.00000  Uiso   1.00
H406   H     0.87750   0.45640   0.42770   0.00000  Uiso   1.00
H407   H     0.91366   0.36102   0.03700   0.00000  Uiso   1.00
H408   H     0.92585   0.37893   0.49076   0.00000  Uiso   1.00
H409   H     0.95994   0.39959   0.02226   0.00000  Uiso   1.00
H410   H     0.97993   0.44613   0.07702   0.00000  Uiso   1.00
H411   H     0.95209   0.47737   0.12036   0.00000  Uiso   1.00
H412   H     0.97432   0.43174   0.12567   0.00000  Uiso   1.00
H413   H     0.89580   0.41515   0.13721   0.00000  Uiso   1.00
H414   H     0.92301   0.38561   0.09487   0.00000  Uiso   1.00
H415   H     0.68318   0.52678   0.21499   0.00000  Uiso   1.00
H416   H     0.72704   0.41983   0.05460   0.00000  Uiso   1.00
H417   H     0.77214   0.42082   0.07500   0.00000  Uiso   1.00
H418   H     0.71894   0.42372   0.10733   0.00000  Uiso   1.00
H419   H     0.75936   0.49483   0.10667   0.00000  Uiso   1.00
H420   H     0.71476   0.49135   0.08835   0.00000  Uiso   1.00
H421   H     0.98493   0.47302   0.28504   0.00000  Uiso   1.00
H422   H     0.87461   0.33613   0.21594   0.00000  Uiso   1.00
H423   H     0.79105   0.66547   0.28429   0.00000  Uiso   1.00
H424   H     0.82549   0.51077   0.09508   0.00000  Uiso   1.00
H425   H     0.91345   0.42386   0.46082   0.00000  Uiso   1.00
H426   H     0.72069   0.55656   0.47925   0.00000  Uiso   1.00
H427   H     0.74498   0.55848   0.40773   0.00000  Uiso   1.00
O428   O     0.83333   0.50000   0.25000   0.00000  Uiso   1.00
O429   O     0.82360   0.45726   0.16625   0.00000  Uiso   1.00
O430   O     0.79354   0.53979   0.33749   0.00000  Uiso   1.00
O431   O     0.87755   0.50826   0.15877   0.00000  Uiso   1.00
O432   O     0.83865   0.49468   0.33749   0.00000  Uiso   1.00
O433   O     0.84515   0.41434   0.27820   0.00000  Uiso   1.00
O434   O     0.81247   0.59469   0.26767   0.00000  Uiso   1.00
O435   O     0.74119   0.46584   0.23607   0.00000  Uiso   1.00
O436   O     0.93452   0.52512   0.21805   0.00000  Uiso   1.00
O437   O     0.73656   0.52293   0.27820   0.00000  Uiso   1.00
O438   O     0.92106   0.48610   0.26767   0.00000  Uiso   1.00
O439   O     0.80467   0.40236   0.23607   0.00000  Uiso   1.00
O440   O     0.87104   0.58860   0.21805   0.00000  Uiso   1.00
Zn441  Zn    0.85910   0.47423   0.28277   0.00000  Uiso   1.00
Zn442  Zn    0.80125   0.45711   0.22257   0.00000  Uiso   1.00
Zn443  Zn    0.87833   0.52997   0.21188   0.00000  Uiso   1.00
Zn444  Zn    0.79465   0.53868   0.28277   0.00000  Uiso   1.00
C445   C     0.05249   0.82645   0.25877   0.00000  Uiso   1.00
C446   C     0.19957   0.79387   0.45942   0.00000  Uiso   1.00
C447   C     0.22032   0.77337   0.47908   0.00000  Uiso   1.00
C448   C     0.28106   0.84015   0.24122   0.00000  Uiso   1.00
C449   C     0.20968   0.77717   0.02046   0.00000  Uiso   1.00
C450   C     0.17756   0.80328   0.04146   0.00000  Uiso   1.00
C451   C     0.23147   0.75751   0.04147   0.00000  Uiso   1.00
C452   C     0.22539   0.76947   0.08263   0.00000  Uiso   1.00
C453   C     0.17592   0.81775   0.08066   0.00000  Uiso   1.00
C454   C     0.32695   0.84273   0.23765   0.00000  Uiso   1.00
C455   C     0.00716   0.82384   0.26214   0.00000  Uiso   1.00
C456   C     0.09703   0.87751   0.42200   0.00000  Uiso   1.00
C457   C     0.18096   0.98881   0.23807   0.00000  Uiso   1.00
C458   C     0.15175   0.67869   0.26210   0.00000  Uiso   1.00
C459   C     0.15602   0.72271   0.25887   0.00000  Uiso   1.00
C460   C     0.17689   0.94432   0.24133   0.00000  Uiso   1.00
C461   C     0.18796   0.81202   0.14398   0.00000  Uiso   1.00
C462   C     0.14555   0.85426   0.35630   0.00000  Uiso   1.00
C463   C     0.13369   0.85890   0.39982   0.00000  Uiso   1.00
C464   C     0.19816   0.80056   0.10139   0.00000  Uiso   1.00
C465   C     0.08308   0.87615   0.46278   0.00000  Uiso   1.00
C466   C     0.25940   0.72288   0.02156   0.00000  Uiso   1.00
C467   C     0.15729   0.84075   0.41915   0.00000  Uiso   1.00
C468   C     0.24928   0.75124   0.10646   0.00000  Uiso   1.00
C469   C     0.29149   0.77839   0.10736   0.00000  Uiso   1.00
C470   C     0.08081   0.81450   0.08103   0.00000  Uiso   1.00
C471   C     0.07453   0.76682   0.07920   0.00000  Uiso   1.00
C472   C     0.14297   0.83754   0.46015   0.00000  Uiso   1.00
C473   C     0.10522   0.85565   0.48187   0.00000  Uiso   1.00
C474   C     0.16475   0.81663   0.48002   0.00000  Uiso   1.00
C475   C     0.15044   0.81728   0.02185   0.00000  Uiso   1.00
C476   C     0.10862   0.82971   0.04188   0.00000  Uiso   1.00
C477   C     0.08820   0.85090   0.02192   0.00000  Uiso   1.00
H478   H     0.05733   0.86193   0.03725   0.00000  Uiso   1.00
H479   H     0.18660   0.82901   0.40122   0.00000  Uiso   1.00
H480   H     0.21083   0.78974   0.42770   0.00000  Uiso   1.00
H481   H     0.24699   0.69435   0.03700   0.00000  Uiso   1.00
H482   H     0.25919   0.71226   0.49076   0.00000  Uiso   1.00
H483   H     0.29328   0.73293   0.02226   0.00000  Uiso   1.00
H484   H     0.31327   0.77946   0.07702   0.00000  Uiso   1.00
H485   H     0.28543   0.81070   0.12036   0.00000  Uiso   1.00
H486   H     0.30766   0.76508   0.12567   0.00000  Uiso   1.00
H487   H     0.22913   0.74849   0.13721   0.00000  Uiso   1.00
H488   H     0.25634   0.71894   0.09487   0.00000  Uiso   1.00
H489   H     0.01651   0.86011   0.21499   0.00000  Uiso   1.00
H490   H     0.06037   0.75317   0.05460   0.00000  Uiso   1.00
H491   H     0.10547   0.75415   0.07500   0.00000  Uiso   1.00
H492   H     0.05227   0.75706   0.10733   0.00000  Uiso   1.00
H493   H     0.09269   0.82816   0.10667   0.00000  Uiso   1.00
H494   H     0.04810   0.82468   0.08835   0.00000  Uiso   1.00
H495   H     0.31827   0.80636   0.28504   0.00000  Uiso   1.00
H496   H     0.20794   0.66946   0.21594   0.00000  Uiso   1.00
H497   H     0.12438   0.99880   0.28429   0.00000  Uiso   1.00
H498   H     0.15882   0.84410   0.09508   0.00000  Uiso   1.00
H499   H     0.24679   0.75719   0.46082   0.00000  Uiso   1.00
H500   H     0.05402   0.88990   0.47925   0.00000  Uiso   1.00
H501   H     0.07831   0.89181   0.40773   0.00000  Uiso   1.00
O502   O     0.16667   0.83333   0.25000   0.00000  Uiso   1.00
O503   O     0.15693   0.79060   0.16625   0.00000  Uiso   1.00
O504   O     0.12687   0.87313   0.33749   0.00000  Uiso   1.00
O505   O     0.21088   0.84159   0.15877   0.00000  Uiso   1.00
O506   O     0.17198   0.82802   0.33749   0.00000  Uiso   1.00
O507   O     0.17849   0.74768   0.27820   0.00000  Uiso   1.00
O508   O     0.14581   0.92803   0.26767   0.00000  Uiso   1.00
O509   O     0.07452   0.79917   0.23607   0.00000  Uiso   1.00
O510   O     0.26785   0.85845   0.21805   0.00000  Uiso   1.00
O511   O     0.06990   0.85627   0.27820   0.00000  Uiso   1.00
O512   O     0.25440   0.81944   0.26767   0.00000  Uiso   1.00
O513   O     0.13800   0.73570   0.23607   0.00000  Uiso   1.00
O514   O     0.20437   0.92193   0.21805   0.00000  Uiso   1.00
Zn515  Zn    0.19244   0.80756   0.28277   0.00000  Uiso   1.00
Zn516  Zn    0.13459   0.79044   0.22257   0.00000  Uiso   1.00
Zn517  Zn    0.21166   0.86331   0.21188   0.00000  Uiso   1.00
Zn518  Zn    0.12798   0.87202   0.28277   0.00000  Uiso   1.00
C519   C     0.38583   0.82645   0.25877   0.00000  Uiso   1.00
C520   C     0.53291   0.79387   0.45942   0.00000  Uiso   1.00
C521   C     0.55365   0.77337   0.47908   0.00000  Uiso   1.00
C522   C     0.61439   0.84015   0.24122   0.00000  Uiso   1.00
C523   C     0.54301   0.77717   0.02046   0.00000  Uiso   1.00
C524   C     0.51089   0.80328   0.04146   0.00000  Uiso   1.00
C525   C     0.56480   0.75751   0.04147   0.00000  Uiso   1.00
C526   C     0.55872   0.76947   0.08263   0.00000  Uiso   1.00
C527   C     0.50925   0.81775   0.08066   0.00000  Uiso   1.00
C528   C     0.66028   0.84273   0.23765   0.00000  Uiso   1.00
C529   C     0.34049   0.82384   0.26214   0.00000  Uiso   1.00
C530   C     0.43036   0.87751   0.42200   0.00000  Uiso   1.00
C531   C     0.51429   0.98881   0.23807   0.00000  Uiso   1.00
C532   C     0.48508   0.67869   0.26210   0.00000  Uiso   1.00
C533   C     0.48935   0.72271   0.25887   0.00000  Uiso   1.00
C534   C     0.51022   0.94432   0.24133   0.00000  Uiso   1.00
C535   C     0.52129   0.81202   0.14398   0.00000  Uiso   1.00
C536   C     0.47888   0.85426   0.35630   0.00000  Uiso   1.00
C537   C     0.46702   0.85890   0.39982   0.00000  Uiso   1.00
C538   C     0.53149   0.80056   0.10139   0.00000  Uiso   1.00
C539   C     0.41641   0.87615   0.46278   0.00000  Uiso   1.00
C540   C     0.59273   0.72288   0.02156   0.00000  Uiso   1.00
C541   C     0.49062   0.84075   0.41915   0.00000  Uiso   1.00
C542   C     0.58261   0.75124   0.10646   0.00000  Uiso   1.00
C543   C     0.62482   0.77839   0.10736   0.00000  Uiso   1.00
C544   C     0.41414   0.81450   0.08103   0.00000  Uiso   1.00
C545   C     0.40786   0.76682   0.07920   0.00000  Uiso   1.00
C546   C     0.47630   0.83754   0.46015   0.00000  Uiso   1.00
C547   C     0.43855   0.85565   0.48187   0.00000  Uiso   1.00
C548   C     0.49809   0.81663   0.48002   0.00000  Uiso   1.00
C549   C     0.48378   0.81728   0.02185   0.00000  Uiso   1.00
C550   C     0.44196   0.82971   0.04188   0.00000  Uiso   1.00
C551   C     0.42154   0.85090   0.02192   0.00000  Uiso   1.00
H552   H     0.39066   0.86193   0.03725   0.00000  Uiso   1.00
H553   H     0.51994   0.82901   0.40122   0.00000  Uiso   1.00
H554   H     0.54416   0.78974   0.42770   0.00000  Uiso   1.00
H555   H     0.58032   0.69435   0.03700   0.00000  Uiso   1.00
H556   H     0.59252   0.71226   0.49076   0.00000  Uiso   1.00
H557   H     0.62661   0.73293   0.02226   0.00000  Uiso   1.00
H558   H     0.64660   0.77946   0.07702   0.00000  Uiso   1.00
H559   H     0.61876   0.81070   0.12036   0.00000  Uiso   1.00
H560   H     0.64099   0.76508   0.12567   0.00000  Uiso   1.00
H561   H     0.56246   0.74849   0.13721   0.00000  Uiso   1.00
H562   H     0.58967   0.71894   0.09487   0.00000  Uiso   1.00
H563   H     0.34984   0.86011   0.21499   0.00000  Uiso   1.00
H564   H     0.39371   0.75317   0.05460   0.00000  Uiso   1.00
H565   H     0.43881   0.75415   0.07500   0.00000  Uiso   1.00
H566   H     0.38561   0.75706   0.10733   0.00000  Uiso   1.00
H567   H     0.42603   0.82816   0.10667   0.00000  Uiso   1.00
H568   H     0.38143   0.82468   0.08835   0.00000  Uiso   1.00
H569   H     0.65160   0.80636   0.28504   0.00000  Uiso   1.00
H570   H     0.54128   0.66946   0.21594   0.00000  Uiso   1.00
H571   H     0.45772   0.99880   0.28429   0.00000  Uiso   1.00
H572   H     0.49215   0.84410   0.09508   0.00000  Uiso   1.00
H573   H     0.58012   0.75719   0.46082   0.00000  Uiso   1.00
H574   H     0.38736   0.88990   0.47925   0.00000  Uiso   1.00
H575   H     0.41165   0.89181   0.40773   0.00000  Uiso   1.00
O576   O     0.50000   0.83333   0.25000   0.00000  Uiso   1.00
O577   O     0.49027   0.79060   0.16625   0.00000  Uiso   1.00
O578   O     0.46020   0.87313   0.33749   0.00000  Uiso   1.00
O579   O     0.54421   0.84159   0.15877   0.00000  Uiso   1.00
O580   O     0.50532   0.82802   0.33749   0.00000  Uiso   1.00
O581   O     0.51182   0.74768   0.27820   0.00000  Uiso   1.00
O582   O     0.47914   0.92803   0.26767   0.00000  Uiso   1.00
O583   O     0.40785   0.79917   0.23607   0.00000  Uiso   1.00
O584   O     0.60119   0.85845   0.21805   0.00000  Uiso   1.00
O585   O     0.40323   0.85627   0.27820   0.00000  Uiso   1.00
O586   O     0.58773   0.81944   0.26767   0.00000  Uiso   1.00
O587   O     0.47133   0.73570   0.23607   0.00000  Uiso   1.00
O588   O     0.53771   0.92193   0.21805   0.00000  Uiso   1.00
Zn589  Zn    0.52577   0.80756   0.28277   0.00000  Uiso   1.00
Zn590  Zn    0.46792   0.79044   0.22257   0.00000  Uiso   1.00
Zn591  Zn    0.54500   0.86331   0.21188   0.00000  Uiso   1.00
Zn592  Zn    0.46131   0.87202   0.28277   0.00000  Uiso   1.00
C593   C     0.71916   0.82645   0.25877   0.00000  Uiso   1.00
C594   C     0.86624   0.79387   0.45942   0.00000  Uiso   1.00
C595   C     0.88698   0.77337   0.47908   0.00000  Uiso   1.00
C596   C     0.94772   0.84015   0.24122   0.00000  Uiso   1.00
C597   C     0.87634   0.77717   0.02046   0.00000  Uiso   1.00
C598   C     0.84423   0.80328   0.04146   0.00000  Uiso   1.00
C599   C     0.89814   0.75751   0.04147   0.00000  Uiso   1.00
C600   C     0.89205   0.76947   0.08263   0.00000  Uiso   1.00
C601   C     0.84258   0.81775   0.08066   0.00000  Uiso   1.00
C602   C     0.99361   0.84273   0.23765   0.00000  Uiso   1.00
C603   C     0.67382   0.82384   0.26214   0.00000  Uiso   1.00
C604   C     0.76370   0.87751   0.42200   0.00000  Uiso   1.00
C605   C     0.84762   0.98881   0.23807   0.00000  Uiso   1.00
C606   C     0.81842   0.67869   0.26210   0.00000  Uiso   1.00
C607   C     0.82269   0.72271   0.25887   0.00000  Uiso   1.00
C608   C     0.84355   0.94432   0.24133   0.00000  Uiso   1.00
C609   C     0.85463   0.81202   0.14398   0.00000  Uiso   1.00
C610   C     0.81221   0.85426   0.35630   0.00000  Uiso   1.00
C611   C     0.80036   0.85890   0.39982   0.00000  Uiso   1.00
C612   C     0.86483   0.80056   0.10139   0.00000  Uiso   1.00
C613   C     0.74975   0.87615   0.46278   0.00000  Uiso   1.00
C614   C     0.92606   0.72288   0.02156   0.00000  Uiso   1.00
C615   C     0.82396   0.84075   0.41915   0.00000  Uiso   1.00
C616   C     0.91595   0.75124   0.10646   0.00000  Uiso   1.00
C617   C     0.95815   0.77839   0.10736   0.00000  Uiso   1.00
C618   C     0.74747   0.81450   0.08103   0.00000  Uiso   1.00
C619   C     0.74120   0.76682   0.07920   0.00000  Uiso   1.00
C620   C     0.80964   0.83754   0.46015   0.00000  Uiso   1.00
C621   C     0.77189   0.85565   0.48187   0.00000  Uiso   1.00
C622   C     0.83142   0.81663   0.48002   0.00000  Uiso   1.00
C623   C     0.81711   0.81728   0.02185   0.00000  Uiso   1.00
C624   C     0.77529   0.82971   0.04188   0.00000  Uiso   1.00
C625   C     0.75487   0.85090   0.02192   0.00000  Uiso   1.00
H626   H     0.72399   0.86193   0.03725   0.00000  Uiso   1.00
H627   H     0.85327   0.82901   0.40122   0.00000  Uiso   1.00
H628   H     0.87750   0.78974   0.42770   0.00000  Uiso   1.00
H629   H     0.91366   0.69435   0.03700   0.00000  Uiso   1.00
H630   H     0.92585   0.71226   0.49076   0.00000  Uiso   1.00
H631   H     0.95994   0.73293   0.02226   0.00000  Uiso   1.00
H632   H     0.97993   0.77946   0.07702   0.00000  Uiso   1.00
H633   H     0.95209   0.81070   0.12036   0.00000  Uiso   1.00
H634   H     0.97432   0.76508   0.12567   0.00000  Uiso   1.00
H635   H     0.89580   0.74849   0.13721   0.00000  Uiso   1.00
H636   H     0.92301   0.71894   0.09487   0.00000  Uiso   1.00
H637   H     0.68318   0.86011   0.21499   0.00000  Uiso   1.00
H638   H     0.72704   0.75317   0.05460   0.00000  Uiso   1.00
H639   H     0.77214   0.75415   0.07500   0.00000  Uiso   1.00
H640   H     0.71894   0.75706   0.10733   0.00000  Uiso   1.00
H641   H     0.75936   0.82816   0.10667   0.00000  Uiso   1.00
H642   H     0.71476   0.82468   0.08835   0.00000  Uiso   1.00
H643   H     0.98493   0.80636   0.28504   0.00000  Uiso   1.00
H644   H     0.87461   0.66946   0.21594   0.00000  Uiso   1.00
H645   H     0.79105   0.99880   0.28429   0.00000  Uiso   1.00
H646   H     0.82549   0.84410   0.09508   0.00000  Uiso   1.00
H647   H     0.91345   0.75719   0.46082   0.00000  Uiso   1.00
H648   H     0.72069   0.88990   0.47925   0.00000  Uiso   1.00
H649   H     0.74498   0.89181   0.40773   0.00000  Uiso   1.00
O650   O     0.83333   0.83333   0.25000   0.00000  Uiso   1.00
O651   O     0.82360   0.79060   0.16625   0.00000  Uiso   1.00
O652   O     0.79354   0.87313   0.33749   0.00000  Uiso   1.00
O653   O     0.87755   0.84159   0.15877   0.00000  Uiso   1.00
O654   O     0.83865   0.82802   0.33749   0.00000  Uiso   1.00
O655   O     0.84515   0.74768   0.27820   0.00000  Uiso   1.00
O656   O     0.81247   0.92803   0.26767   0.00000  Uiso   1.00
O657   O     0.74119   0.79917   0.23607   0.00000  Uiso   1.00
O658   O     0.93452   0.85845   0.21805   0.00000  Uiso   1.00
O659   O     0.73656   0.85627   0.27820   0.00000  Uiso   1.00
O660   O     0.92106   0.81944   0.26767   0.00000  Uiso   1.00
O661   O     0.80467   0.73570   0.23607   0.00000  Uiso   1.00
O662   O     0.87104   0.92193   0.21805   0.00000  Uiso   1.00
Zn663  Zn    0.85910   0.80756   0.28277   0.00000  Uiso   1.00
Zn664  Zn    0.80125   0.79044   0.22257   0.00000  Uiso   1.00
Zn665  Zn    0.87833   0.86331   0.21188   0.00000  Uiso   1.00
Zn666  Zn    0.79465   0.87202   0.28277   0.00000  Uiso   1.00
C667   C     0.05249   0.15978   0.75877   0.00000  Uiso   1.00
C668   C     0.19957   0.12720   0.95942   0.00000  Uiso   1.00
C669   C     0.22032   0.10670   0.97908   0.00000  Uiso   1.00
C670   C     0.28106   0.17348   0.74122   0.00000  Uiso   1.00
C671   C     0.20968   0.11050   0.52046   0.00000  Uiso   1.00
C672   C     0.17756   0.13661   0.54146   0.00000  Uiso   1.00
C673   C     0.23147   0.09084   0.54147   0.00000  Uiso   1.00
C674   C     0.22539   0.10280   0.58263   0.00000  Uiso   1.00
C675   C     0.17592   0.15109   0.58066   0.00000  Uiso   1.00
C676   C     0.32695   0.17606   0.73765   0.00000  Uiso   1.00
C677   C     0.00716   0.15717   0.76214   0.00000  Uiso   1.00
C678   C     0.09703   0.21084   0.92200   0.00000  Uiso   1.00
C679   C     0.18096   0.32215   0.73807   0.00000  Uiso   1.00
C680   C     0.15175   0.01203   0.76210   0.00000  Uiso   1.00
C681   C     0.15602   0.05605   0.75887   0.00000  Uiso   1.00
C682   C     0.17689   0.27765   0.74133   0.00000  Uiso   1.00
C683   C     0.18796   0.14535   0.64398   0.00000  Uiso   1.00
C684   C     0.14555   0.18759   0.85630   0.00000  Uiso   1.00
C685   C     0.13369   0.19223   0.89982   0.00000  Uiso   1.00
C686   C     0.19816   0.13389   0.60139   0.00000  Uiso   1.00
C687   C     0.08308   0.20948   0.96278   0.00000  Uiso   1.00
C688   C     0.25940   0.05621   0.52156   0.00000  Uiso   1.00
C689   C     0.15729   0.17408   0.91915   0.00000  Uiso   1.00
C690   C     0.24928   0.08457   0.60646   0.00000  Uiso   1.00
C691   C     0.29149   0.11173   0.60736   0.00000  Uiso   1.00
C692   C     0.08081   0.14783   0.58103   0.00000  Uiso   1.00
C693   C     0.07453   0.10015   0.57920   0.00000  Uiso   1.00
C694   C     0.14297   0.17087   0.96015   0.00000  Uiso   1.00
C695   C     0.10522   0.18899   0.98187   0.00000  Uiso   1.00
C696   C     0.16475   0.14996   0.98002   0.00000  Uiso   1.00
C697   C     0.15044   0.15061   0.52185   0.00000  Uiso   1.00
C698   C     0.10862   0.16305   0.54188   0.00000  Uiso   1.00
C699   C     0.08820   0.18423   0.52192   0.00000  Uiso   1.00
H700   H     0.05733   0.19527   0.53725   0.00000  Uiso   1.00
H701   H     0.18660   0.16235   0.90122   0.00000  Uiso   1.00
H702   H     0.21083   0.12307   0.92770   0.00000  Uiso   1.00
H703   H     0.24699   0.02768   0.53700   0.00000  Uiso   1.00
H704   H     0.25919   0.04559   0.99076   0.00000  Uiso   1.00
H705   H     0.29328   0.06626   0.52226   0.00000  Uiso   1.00
H706   H     0.31327   0.11279   0.57702   0.00000  Uiso   1.00
H707   H     0.28543   0.14403   0.62036   0.00000  Uiso   1.00
H708   H     0.30766   0.09841   0.62567   0.00000  Uiso   1.00
H709   H     0.22913   0.08182   0.63721   0.00000  Uiso   1.00
H710   H     0.25634   0.05227   0.59487   0.00000  Uiso   1.00
H711   H     0.01651   0.19345   0.71499   0.00000  Uiso   1.00
H712   H     0.06037   0.08650   0.55460   0.00000  Uiso   1.00
H713   H     0.10547   0.08749   0.57500   0.00000  Uiso   1.00
H714   H     0.05227   0.09039   0.60733   0.00000  Uiso   1.00
H715   H     0.09269   0.16149   0.60667   0.00000  Uiso   1.00
H716   H     0.04810   0.15801   0.58835   0.00000  Uiso   1.00
H717   H     0.31827   0.13969   0.78504   0.00000  Uiso   1.00
H718   H     0.20794   0.00279   0.71594   0.00000  Uiso   1.00
H719   H     0.12438   0.33214   0.78429   0.00000  Uiso   1.00
H720   H     0.15882   0.17743   0.59508   0.00000  Uiso   1.00
H721   H     0.24679   0.09053   0.96082   0.00000  Uiso   1.00
H722   H     0.05402   0.22323   0.97925   0.00000  Uiso   1.00
H723   H     0.07831   0.22514   0.90773   0.00000  Uiso   1.00
O724   O     0.16667   0.16667   0.75000   0.00000  Uiso   1.00
O725   O     0.15693   0.12393   0.66625   0.00000  Uiso   1.00
O726   O     0.12687   0.20646   0.83749   0.00000  Uiso   1.00
O727   O     0.21088   0.17493   0.65877   0.00000  Uiso   1.00
O728   O     0.17198   0.16135   0.83749   0.00000  Uiso   1.00
O729   O     0.17849   0.08101   0.77820   0.00000  Uiso   1.00
O730   O     0.14581   0.26136   0.76767   0.00000  Uiso   1.00
O731   O     0.07452   0.13251   0.73607   0.00000  Uiso   1.00
O732   O     0.26785   0.19179   0.71805   0.00000  Uiso   1.00
O733   O     0.06990   0.18960   0.77820   0.00000  Uiso   1.00
O734   O     0.25440   0.15277   0.76767   0.00000  Uiso   1.00
O735   O     0.13800   0.06903   0.73607   0.00000  Uiso   1.00
O736   O     0.20437   0.25527   0.71805   0.00000  Uiso   1.00
Zn737  Zn    0.19244   0.14090   0.78277   0.00000  Uiso   1.00
Zn738  Zn    0.13459   0.12378   0.72257   0.00000  Uiso   1.00
Zn739  Zn    0.21166   0.19664   0.71188   0.00000  Uiso   1.00
Zn740  Zn    0.12798   0.20535   0.78277   0.00000  Uiso   1.00
C741   C     0.38583   0.15978   0.75877   0.00000  Uiso   1.00
C742   C     0.53291   0.12720   0.95942   0.00000  Uiso   1.00
C743   C     0.55365   0.10670   0.97908   0.00000  Uiso   1.00
C744   C     0.61439   0.17348   0.74122   0.00000  Uiso   1.00
C745   C     0.54301   0.11050   0.52046   0.00000  Uiso   1.00
C746   C     0.51089   0.13661   0.54146   0.00000  Uiso   1.00
C747   C     0.56480   0.09084   0.54147   0.00000  Uiso   1.00
C748   C     0.55872   0.10280   0.58263   0.00000  Uiso   1.00
C749   C     0.50925   0.15109   0.58066   0.00000  Uiso   1.00
C750   C     0.66028   0.17606   0.73765   0.00000  Uiso   1.00
C751   C     0.34049   0.15717   0.76214   0.00000  Uiso   1.00
C752   C     0.43036   0.21084   0.92200   0.00000  Uiso   1.00
C753   C     0.51429   0.32215   0.73807   0.00000  Uiso   1.00
C754   C     0.48508   0.01203   0.76210   0.00000  Uiso   1.00
C755   C     0.48935   0.05605   0.75887   0.00000  Uiso   1.00
C756   C     0.51022   0.27765   0.74133   0.00000  Uiso   1.00
C757   C     0.52129   0.14535   0.64398   0.00000  Uiso   1.00
C758   C     0.47888   0.18759   0.85630   0.00000  Uiso   1.00
C759   C     0.46702   0.19223   0.89982   0.00000  Uiso   1.00
C760   C     0.53149   0.13389   0.60139   0.00000  Uiso   1.00
C761   C     0.41641   0.20948   0.96278   0.00000  Uiso   1.00
C762   C     0.59273   0.05621   0.52156   0.00000  Uiso   1.00
C763   C     0.49062   0.17408   0.91915   0.00000  Uiso   1.00
C764   C     0.58261   0.08457   0.60646   0.00000  Uiso   1.00
C765   C     0.62482   0.11173   0.60736   0.00000  Uiso   1.00
C766   C     0.41414   0.14783   0.58103   0.00000  Uiso   1.00
C767   C     0.40786   0.10015   0.57920   0.00000  Uiso   1.00
C768   C     0.47630   0.17087   0.96015   0.00000  Uiso   1.00
C769   C     0.43855   0.18899   0.98187   0.00000  Uiso   1.00
C770   C     0.49809   0.14996   0.98002   0.00000  Uiso   1.00
C771   C     0.48378   0.15061   0.52185   0.00000  Uiso   1.00
C772   C     0.44196   0.16305   0.54188   0.00000  Uiso   1.00
C773   C     0.42154   0.18423   0.52192   0.00000  Uiso   1.00
H774   H     0.39066   0.19527   0.53725   0.00000  Uiso   1.00
H775   H     0.51994   0.16235   0.90122   0.00000  Uiso   1.00
H776   H     0.54416   0.12307   0.92770   0.00000  Uiso   1.00
H777   H     0.58032   0.02768   0.53700   0.00000  Uiso   1.00
H778   H     0.59252   0.04559   0.99076   0.00000  Uiso   1.00
H779   H     0.62661   0.06626   0.52226   0.00000  Uiso   1.00
H780   H     0.64660   0.11279   0.57702   0.00000  Uiso   1.00
H781   H     0.61876   0.14403   0.62036   0.00000  Uiso   1.00
H782   H     0.64099   0.09841   0.62567   0.00000  Uiso   1.00
H783   H     0.56246   0.08182   0.63721   0.00000  Uiso   1.00
H784   H     0.58967   0.05227   0.59487   0.00000  Uiso   1.00
H785   H     0.34984   0.19345   0.71499   0.00000  Uiso   1.00
H786   H     0.39371   0.08650   0.55460   0.00000  Uiso   1.00
H787   H     0.43881   0.08749   0.57500   0.00000  Uiso   1.00
H788   H     0.38561   0.09039   0.60733   0.00000  Uiso   1.00
H789   H     0.42603   0.16149   0.60667   0.00000  Uiso   1.00
H790   H     0.38143   0.15801   0.58835   0.00000  Uiso   1.00
H791   H     0.65160   0.13969   0.78504   0.00000  Uiso   1.00
H792   H     0.54128   0.00279   0.71594   0.00000  Uiso   1.00
H793   H     0.45772   0.33214   0.78429   0.00000  Uiso   1.00
H794   H     0.49215   0.17743   0.59508   0.00000  Uiso   1.00
H795   H     0.58012   0.09053   0.96082   0.00000  Uiso   1.00
H796   H     0.38736   0.22323   0.97925   0.00000  Uiso   1.00
H797   H     0.41165   0.22514   0.90773   0.00000  Uiso   1.00
O798   O     0.50000   0.16667   0.75000   0.00000  Uiso   1.00
O799   O     0.49027   0.12393   0.66625   0.00000  Uiso   1.00
O800   O     0.46020   0.20646   0.83749   0.00000  Uiso   1.00
O801   O     0.54421   0.17493   0.65877   0.00000  Uiso   1.00
O802   O     0.50532   0.16135   0.83749   0.00000  Uiso   1.00
O803   O     0.51182   0.08101   0.77820   0.00000  Uiso   1.00
O804   O     0.47914   0.26136   0.76767   0.00000  Uiso   1.00
O805   O     0.40785   0.13251   0.73607   0.00000  Uiso   1.00
O806   O     0.60119   0.19179   0.71805   0.00000  Uiso   1.00
O807   O     0.40323   0.18960   0.77820   0.00000  Uiso   1.00
O808   O     0.58773   0.15277   0.76767   0.00000  Uiso   1.00
O809   O     0.47133   0.06903   0.73607   0.00000  Uiso   1.00
O810   O     0.53771   0.25527   0.71805   0.00000  Uiso   1.00
Zn811  Zn    0.52577   0.14090   0.78277   0.00000  Uiso   1.00
Zn812  Zn    0.46792   0.12378   0.72257   0.00000  Uiso   1.00
Zn813  Zn    0.54500   0.19664   0.71188   0.00000  Uiso   1.00
Zn814  Zn    0.46131   0.20535   0.78277   0.00000  Uiso   1.00
C815   C     0.71916   0.15978   0.75877   0.00000  Uiso   1.00
C816   C     0.86624   0.12720   0.95942   0.00000  Uiso   1.00
C817   C     0.88698   0.10670   0.97908   0.00000  Uiso   1.00
C818   C     0.94772   0.17348   0.74122   0.00000  Uiso   1.00
C819   C     0.87634   0.11050   0.52046   0.00000  Uiso   1.00
C820   C     0.84423   0.13661   0.54146   0.00000  Uiso   1.00
C821   C     0.89814   0.09084   0.54147   0.00000  Uiso   1.00
C822   C     0.89205   0.10280   0.58263   0.00000  Uiso   1.00
C823   C     0.84258   0.15109   0.58066   0.00000  Uiso   1.00
C824   C     0.99361   0.17606   0.73765   0.00000  Uiso   1.00
C825   C     0.67382   0.15717   0.76214   0.00000  Uiso   1.00
C826   C     0.76370   0.21084   0.92200   0.00000  Uiso   1.00
C827   C     0.84762   0.32215   0.73807   0.00000  Uiso   1.00
C828   C     0.81842   0.01203   0.76210   0.00000  Uiso   1.00
C829   C     0.82269   0.05605   0.75887   0.00000  Uiso   1.00
C830   C     0.84355   0.27765   0.74133   0.00000  Uiso   1.00
C831   C     0.85463   0.14535   0.64398   0.00000  Uiso   1.00
C832   C     0.81221   0.18759   0.85630   0.00000  Uiso   1.00
C833   C     0.80036   0.19223   0.89982   0.00000  Uiso   1.00
C834   C     0.86483   0.13389   0.60139   0.00000  Uiso   1.00
C835   C     0.74975   0.20948   0.96278   0.00000  Uiso   1.00
C836   C     0.92606   0.05621   0.52156   0.00000  Uiso   1.00
C837   C     0.82396   0.17408   0.91915   0.00000  Uiso   1.00
C838   C     0.91595   0.08457   0.60646   0.00000  Uiso   1.00
C839   C     0.95815   0.11173   0.60736   0.00000  Uiso   1.00
C840   C     0.74747   0.14783   0.58103   0.00000  Uiso   1.00
C841   C     0.74120   0.10015   0.57920   0.00000  Uiso   1.00
C842   C     0.80964   0.17087   0.96015   0.00000  Uiso   1.00
C843   C     0.77189   0.18899   0.98187   0.00000  Uiso   1.00
C844   C     0.83142   0.14996   0.98002   0.00000  Uiso   1.00
C845   C     0.81711   0.15061   0.52185   0.00000  Uiso   1.00
C846   C     0.77529   0.16305   0.54188   0.00000  Uiso   1.00
C847   C     0.75487   0.18423   0.52192   0.00000  Uiso   1.00
H848   H     0.72399   0.19527   0.53725   0.00000  Uiso   1.00
H849   H     0.85327   0.16235   0.90122   0.00000  Uiso   1.00
H850   H     0.87750   0.12307   0.92770   0.00000  Uiso   1.00
H851   H     0.91366   0.02768   0.53700   0.00000  Uiso   1.00
H852   H     0.92585   0.04559   0.99076   0.00000  Uiso   1.00
H853   H     0.95994   0.06626   0.52226   0.00000  Uiso   1.00
H854   H     0.97993   0.11279   0.57702   0.00000  Uiso   1.00
H855   H     0.95209   0.14403   0.62036   0.00000  Uiso   1.00
H856   H     0.97432   0.09841   0.62567   0.00000  Uiso   1.00
H857   H     0.89580   0.08182   0.63721   0.00000  Uiso   1.00
H858   H     0.92301   0.05227   0.59487   0.00000  Uiso   1.00
H859   H     0.68318   0.19345   0.71499   0.00000  Uiso   1.00
H860   H     0.72704   0.08650   0.55460   0.00000  Uiso   1.00
H861   H     0.77214   0.08749   0.57500   0.00000  Uiso   1.00
H862   H     0.71894   0.09039   0.60733   0.00000  Uiso   1.00
H863   H     0.75936   0.16149   0.60667   0.00000  Uiso   1.00
H864   H     0.71476   0.15801   0.58835   0.00000  Uiso   1.00
H865   H     0.98493   0.13969   0.78504   0.00000  Uiso   1.00
H866   H     0.87461   0.00279   0.71594   0.00000  Uiso   1.00
H867   H     0.79105   0.33214   0.78429   0.00000  Uiso   1.00
H868   H     0.82549   0.17743   0.59508   0.00000  Uiso   1.00
H869   H     0.91345   0.09053   0.96082   0.00000  Uiso   1.00
H870   H     0.72069   0.22323   0.97925   0.00000  Uiso   1.00
H871   H     0.74498   0.22514   0.90773   0.00000  Uiso   1.00
O872   O     0.83333   0.16667   0.75000   0.00000  Uiso   1.00
O873   O     0.82360   0.12393   0.66625   0.00000  Uiso   1.00
O874   O     0.79354   0.20646   0.83749   0.00000  Uiso   1.00
O875   O     0.87755   0.17493   0.65877   0.00000  Uiso   1.00
O876   O     0.83865   0.16135   0.83749   0.00000  Uiso   1.00
O877   O     0.84515   0.08101   0.77820   0.00000  Uiso   1.00
O878   O     0.81247   0.26136   0.76767   0.00000  Uiso   1.00
O879   O     0.74119   0.13251   0.73607   0.00000  Uiso   1.00
O880   O     0.93452   0.19179   0.71805   0.00000  Uiso   1.00
O881   O     0.73656   0.18960   0.77820   0.00000  Uiso   1.00
O882   O     0.92106   0.15277   0.76767   0.00000  Uiso   1.00
O883   O     0.80467   0.06903   0.73607   0.00000  Uiso   1.00
O884   O     0.87104   0.25527   0.71805   0.00000  Uiso   1.00
Zn885  Zn    0.85910   0.14090   0.78277   0.00000  Uiso   1.00
Zn886  Zn    0.80125   0.12378   0.72257   0.00000  Uiso   1.00
Zn887  Zn    0.87833   0.19664   0.71188   0.00000  Uiso   1.00
Zn888  Zn    0.79465   0.20535   0.78277   0.00000  Uiso   1.00
C889   C     0.05249   0.49312   0.75877   0.00000  Uiso   1.00
C890   C     0.19957   0.46054   0.95942   0.00000  Uiso   1.00
C891   C     0.22032   0.44004   0.97908   0.00000  Uiso   1.00
C892   C     0.28106   0.50681   0.74122   0.00000  Uiso   1.00
C893   C     0.20968   0.44383   0.52046   0.00000  Uiso   1.00
C894   C     0.17756   0.46994   0.54146   0.00000  Uiso   1.00
C895   C     0.23147   0.42418   0.54147   0.00000  Uiso   1.00
C896   C     0.22539   0.43614   0.58263   0.00000  Uiso   1.00
C897   C     0.17592   0.48442   0.58066   0.00000  Uiso   1.00
C898   C     0.32695   0.50939   0.73765   0.00000  Uiso   1.00
C899   C     0.00716   0.49051   0.76214   0.00000  Uiso   1.00
C900   C     0.09703   0.54418   0.92200   0.00000  Uiso   1.00
C901   C     0.18096   0.65548   0.73807   0.00000  Uiso   1.00
C902   C     0.15175   0.34536   0.76210   0.00000  Uiso   1.00
C903   C     0.15602   0.38938   0.75887   0.00000  Uiso   1.00
C904   C     0.17689   0.61099   0.74133   0.00000  Uiso   1.00
C905   C     0.18796   0.47868   0.64398   0.00000  Uiso   1.00
C906   C     0.14555   0.52093   0.85630   0.00000  Uiso   1.00
C907   C     0.13369   0.52557   0.89982   0.00000  Uiso   1.00
C908   C     0.19816   0.46723   0.60139   0.00000  Uiso   1.00
C909   C     0.08308   0.54282   0.96278   0.00000  Uiso   1.00
C910   C     0.25940   0.38955   0.52156   0.00000  Uiso   1.00
C911   C     0.15729   0.50741   0.91915   0.00000  Uiso   1.00
C912   C     0.24928   0.41790   0.60646   0.00000  Uiso   1.00
C913   C     0.29149   0.44506   0.60736   0.00000  Uiso   1.00
C914   C     0.08081   0.48117   0.58103   0.00000  Uiso   1.00
C915   C     0.07453   0.43348   0.57920   0.00000  Uiso   1.00
C916   C     0.14297   0.50421   0.96015   0.00000  Uiso   1.00
C917   C     0.10522   0.52232   0.98187   0.00000  Uiso   1.00
C918   C     0.16475   0.48329   0.98002   0.00000  Uiso   1.00
C919   C     0.15044   0.48395   0.52185   0.00000  Uiso   1.00
C920   C     0.10862   0.49638   0.54188   0.00000  Uiso   1.00
C921   C     0.08820   0.51757   0.52192   0.00000  Uiso   1.00
H922   H     0.05733   0.52860   0.53725   0.00000  Uiso   1.00
H923   H     0.18660   0.49568   0.90122   0.00000  Uiso   1.00
H924   H     0.21083   0.45640   0.92770   0.00000  Uiso   1.00
H925   H     0.24699   0.36102   0.53700   0.00000  Uiso   1.00
H926   H     0.25919   0.37893   0.99076   0.00000  Uiso   1.00
H927   H     0.29328   0.39959   0.52226   0.00000  Uiso   1.00
H928   H     0.31327   0.44613   0.57702   0.00000  Uiso   1.00
H929   H     0.28543   0.47737   0.62036   0.00000  Uiso   1.00
H930   H     0.30766   0.43174   0.62567   0.00000  Uiso   1.00
H931   H     0.22913   0.41515   0.63721   0.00000  Uiso   1.00
H932   H     0.25634   0.38561   0.59487   0.00000  Uiso   1.00
H933   H     0.01651   0.52678   0.71499   0.00000  Uiso   1.00
H934   H     0.06037   0.41983   0.55460   0.00000  Uiso   1.00
H935   H     0.10547   0.42082   0.57500   0.00000  Uiso   1.00
H936   H     0.05227   0.42372   0.60733   0.00000  Uiso   1.00
H937   H     0.09269   0.49483   0.60667   0.00000  Uiso   1.00
H938   H     0.04810   0.49135   0.58835   0.00000  Uiso   1.00
H939   H     0.31827   0.47302   0.78504   0.00000  Uiso   1.00
H940   H     0.20794   0.33613   0.71594   0.00000  Uiso   1.00
H941   H     0.12438   0.66547   0.78429   0.00000  Uiso   1.00
H942   H     0.15882   0.51077   0.59508   0.00000  Uiso   1.00
H943   H     0.24679   0.42386   0.96082   0.00000  Uiso   1.00
H944   H     0.05402   0.55656   0.97925   0.00000  Uiso   1.00
H945   H     0.07831   0.55848   0.90773   0.00000  Uiso   1.00
O946   O     0.16667   0.50000   0.75000   0.00000  Uiso   1.00
O947   O     0.15693   0.45726   0.66625   0.00000  Uiso   1.00
O948   O     0.12687   0.53979   0.83749   0.00000  Uiso   1.00
O949   O     0.21088   0.50826   0.65877   0.00000  Uiso   1.00
O950   O     0.17198   0.49468   0.83749   0.00000  Uiso   1.00
O951   O     0.17849   0.41434   0.77820   0.00000  Uiso   1.00
O952   O     0.14581   0.59469   0.76767   0.00000  Uiso   1.00
O953   O     0.07452   0.46584   0.73607   0.00000  Uiso   1.00
O954   O     0.26785   0.52512   0.71805   0.00000  Uiso   1.00
O955   O     0.06990   0.52293   0.77820   0.00000  Uiso   1.00
O956   O     0.25440   0.48610   0.76767   0.00000  Uiso   1.00
O957   O     0.13800   0.40236   0.73607   0.00000  Uiso   1.00
O958   O     0.20437   0.58860   0.71805   0.00000  Uiso   1.00
Zn959  Zn    0.19244   0.47423   0.78277   0.00000  Uiso   1.00
Zn960  Zn    0.13459   0.45711   0.72257   0.00000  Uiso   1.00
Zn961  Zn    0.21166   0.52997   0.71188   0.00000  Uiso   1.00
Zn962  Zn    0.12798   0.53868   0.78277   0.00000  Uiso   1.00
C963   C     0.38583   0.49312   0.75877   0.00000  Uiso   1.00
C964   C     0.53291   0.46054   0.95942   0.00000  Uiso   1.00
C965   C     0.55365   0.44004   0.97908   0.00000  Uiso   1.00
C966   C     0.61439   0.50681   0.74122   0.00000  Uiso   1.00
C967   C     0.54301   0.44383   0.52046   0.00000  Uiso   1.00
C968   C     0.51089   0.46994   0.54146   0.00000  Uiso   1.00
C969   C     0.56480   0.42418   0.54147   0.00000  Uiso   1.00
C970   C     0.55872   0.43614   0.58263   0.00000  Uiso   1.00
C971   C     0.50925   0.48442   0.58066   0.00000  Uiso   1.00
C972   C     0.66028   0.50939   0.73765   0.00000  Uiso   1.00
C973   C     0.34049   0.49051   0.76214   0.00000  Uiso   1.00
C974   C     0.43036   0.54418   0.92200   0.00000  Uiso   1.00
C975   C     0.51429   0.65548   0.73807   0.00000  Uiso   1.00
C976   C     0.48508   0.34536   0.76210   0.00000  Uiso   1.00
C977   C     0.48935   0.38938   0.75887   0.00000  Uiso   1.00
C978   C     0.51022   0.61099   0.74133   0.00000  Uiso   1.00
C979   C     0.52129   0.47868   0.64398   0.00000  Uiso   1.00
C980   C     0.47888   0.52093   0.85630   0.00000  Uiso   1.00
C981   C     0.46702   0.52557   0.89982   0.00000  Uiso   1.00
C982   C     0.53149   0.46723   0.60139   0.00000  Uiso   1.00
C983   C     0.41641   0.54282   0.96278   0.00000  Uiso   1.00
C984   C     0.59273   0.38955   0.52156   0.00000  Uiso   1.00
C985   C     0.49062   0.50741   0.91915   0.00000  Uiso   1.00
C986   C     0.58261   0.41790   0.60646   0.00000  Uiso   1.00
C987   C     0.62482   0.44506   0.60736   0.00000  Uiso   1.00
C988   C     0.41414   0.48117   0.58103   0.00000  Uiso   1.00
C989   C     0.40786   0.43348   0.57920   0.00000  Uiso   1.00
C990   C     0.47630   0.50421   0.96015   0.00000  Uiso   1.00
C991   C     0.43855   0.52232   0.98187   0.00000  Uiso   1.00
C992   C     0.49809   0.48329   0.98002   0.00000  Uiso   1.00
C993   C     0.48378   0.48395   0.52185   0.00000  Uiso   1.00
C994   C     0.44196   0.49638   0.54188   0.00000  Uiso   1.00
C995   C     0.42154   0.51757   0.52192   0.00000  Uiso   1.00
H996   H     0.39066   0.52860   0.53725   0.00000  Uiso   1.00
H997   H     0.51994   0.49568   0.90122   0.00000  Uiso   1.00
H998   H     0.54416   0.45640   0.92770   0.00000  Uiso   1.00
H999   H     0.58032   0.36102   0.53700   0.00000  Uiso   1.00
H1000  H     0.59252   0.37893   0.99076   0.00000  Uiso   1.00
H1001  H     0.62661   0.39959   0.52226   0.00000  Uiso   1.00
H1002  H     0.64660   0.44613   0.57702   0.00000  Uiso   1.00
H1003  H     0.61876   0.47737   0.62036   0.00000  Uiso   1.00
H1004  H     0.64099   0.43174   0.62567   0.00000  Uiso   1.00
H1005  H     0.56246   0.41515   0.63721   0.00000  Uiso   1.00
H1006  H     0.58967   0.38561   0.59487   0.00000  Uiso   1.00
H1007  H     0.34984   0.52678   0.71499   0.00000  Uiso   1.00
H1008  H     0.39371   0.41983   0.55460   0.00000  Uiso   1.00
H1009  H     0.43881   0.42082   0.57500   0.00000  Uiso   1.00
H1010  H     0.38561   0.42372   0.60733   0.00000  Uiso   1.00
H1011  H     0.42603   0.49483   0.60667   0.00000  Uiso   1.00
H1012  H     0.38143   0.49135   0.58835   0.00000  Uiso   1.00
H1013  H     0.65160   0.47302   0.78504   0.00000  Uiso   1.00
H1014  H     0.54128   0.33613   0.71594   0.00000  Uiso   1.00
H1015  H     0.45772   0.66547   0.78429   0.00000  Uiso   1.00
H1016  H     0.49215   0.51077   0.59508   0.00000  Uiso   1.00
H1017  H     0.58012   0.42386   0.96082   0.00000  Uiso   1.00
H1018  H     0.38736   0.55656   0.97925   0.00000  Uiso   1.00
H1019  H     0.41165   0.55848   0.90773   0.00000  Uiso   1.00
O1020  O     0.50000   0.50000   0.75000   0.00000  Uiso   1.00
O1021  O     0.49027   0.45726   0.66625   0.00000  Uiso   1.00
O1022  O     0.46020   0.53979   0.83749   0.00000  Uiso   1.00
O1023  O     0.54421   0.50826   0.65877   0.00000  Uiso   1.00
O1024  O     0.50532   0.49468   0.83749   0.00000  Uiso   1.00
O1025  O     0.51182   0.41434   0.77820   0.00000  Uiso   1.00
O1026  O     0.47914   0.59469   0.76767   0.00000  Uiso   1.00
O1027  O     0.40785   0.46584   0.73607   0.00000  Uiso   1.00
O1028  O     0.60119   0.52512   0.71805   0.00000  Uiso   1.00
O1029  O     0.40323   0.52293   0.77820   0.00000  Uiso   1.00
O1030  O     0.58773   0.48610   0.76767   0.00000  Uiso   1.00
O1031  O     0.47133   0.40236   0.73607   0.00000  Uiso   1.00
O1032  O     0.53771   0.58860   0.71805   0.00000  Uiso   1.00
Zn1033 Zn    0.52577   0.47423   0.78277   0.00000  Uiso   1.00
Zn1034 Zn    0.46792   0.45711   0.72257   0.00000  Uiso   1.00
Zn1035 Zn    0.54500   0.52997   0.71188   0.00000  Uiso   1.00
Zn1036 Zn    0.46131   0.53868   0.78277   0.00000  Uiso   1.00
C1037  C     0.71916   0.49312   0.75877   0.00000  Uiso   1.00
C1038  C     0.86624   0.46054   0.95942   0.00000  Uiso   1.00
C1039  C     0.88698   0.44004   0.97908   0.00000  Uiso   1.00
C1040  C     0.94772   0.50681   0.74122   0.00000  Uiso   1.00
C1041  C     0.87634   0.44383   0.52046   0.00000  Uiso   1.00
C1042  C     0.84423   0.46994   0.54146   0.00000  Uiso   1.00
C1043  C     0.89814   0.42418   0.54147   0.00000  Uiso   1.00
C1044  C     0.89205   0.43614   0.58263   0.00000  Uiso   1.00
C1045  C     0.84258   0.48442   0.58066   0.00000  Uiso   1.00
C1046  C     0.99361   0.50939   0.73765   0.00000  Uiso   1.00
C1047  C     0.67382   0.49051   0.76214   0.00000  Uiso   1.00
C1048  C     0.76370   0.54418   0.92200   0.00000  Uiso   1.00
C1049  C     0.84762   0.65548   0.73807   0.00000  Uiso   1.00
C1050  C     0.81842   0.34536   0.76210   0.00000  Uiso   1.00
C1051  C     0.82269   0.38938   0.75887   0.00000  Uiso   1.00
C1052  C     0.84355   0.61099   0.74133   0.00000  Uiso   1.00
C1053  C     0.85463   0.47868   0.64398   0.00000  Uiso   1.00
C1054  C     0.81221   0.52093   0.85630   0.00000  Uiso   1.00
C1055  C     0.80036   0.52557   0.89982   0.00000  Uiso   1.00
C1056  C     0.86483   0.46723   0.60139   0.00000  Uiso   1.00
C1057  C     0.74975   0.54282   0.96278   0.00000  Uiso   1.00
C1058  C     0.92606   0.38955   0.52156   0.00000  Uiso   1.00
C1059  C     0.82396   0.50741   0.91915   0.00000  Uiso   1.00
C1060  C     0.91595   0.41790   0.60646   0.00000  Uiso   1.00
C1061  C     0.95815   0.44506   0.60736   0.00000  Uiso   1.00
C1062  C     0.74747   0.48117   0.58103   0.00000  Uiso   1.00
C1063  C     0.74120   0.43348   0.57920   0.00000  Uiso   1.00
C1064  C     0.80964   0.50421   0.96015   0.00000  Uiso   1.00
C1065  C     0.77189   0.52232   0.98187   0.00000  Uiso   1.00
C1066  C     0.83142   0.48329   0.98002   0.00000  Uiso   1.00
C1067  C     0.81711   0.48395   0.52185   0.00000  Uiso   1.00
C1068  C     0.77529   0.49638   0.54188   0.00000  Uiso   1.00
C1069  C     0.75487   0.51757   0.52192   0.00000  Uiso   1.00
H1070  H     0.72399   0.52860   0.53725   0.00000  Uiso   1.00
H1071  H     0.85327   0.49568   0.90122   0.00000  Uiso   1.00
H1072  H     0.87750   0.45640   0.92770   0.00000  Uiso   1.00
H1073  H     0.91366   0.36102   0.53700   0.00000  Uiso   1.00
H1074  H     0.92585   0.37893   0.99076   0.00000  Uiso   1.00
H1075  H     0.95994   0.39959   0.52226   0.00000  Uiso   1.00
H1076  H     0.97993   0.44613   0.57702   0.00000  Uiso   1.00
H1077  H     0.95209   0.47737   0.62036   0.00000  Uiso   1.00
H1078  H     0.97432   0.43174   0.62567   0.00000  Uiso   1.00
H1079  H     0.89580   0.41515   0.63721   0.00000  Uiso   1.00
H1080  H     0.92301   0.38561   0.59487   0.00000  Uiso   1.00
H1081  H     0.68318   0.52678   0.71499   0.00000  Uiso   1.00
H1082  H     0.72704   0.41983   0.55460   0.00000  Uiso   1.00
H1083  H     0.77214   0.42082   0.57500   0.00000  Uiso   1.00
H1084  H     0.71894   0.42372   0.60733   0.00000  Uiso   1.00
H1085  H     0.75936   0.49483   0.60667   0.00000  Uiso   1.00
H1086  H     0.71476   0.49135   0.58835   0.00000  Uiso   1.00
H1087  H     0.98493   0.47302   0.78504   0.00000  Uiso   1.00
H1088  H     0.87461   0.33613   0.71594   0.00000  Uiso   1.00
H1089  H     0.79105   0.66547   0.78429   0.00000  Uiso   1.00
H1090  H     0.82549   0.51077   0.59508   0.00000  Uiso   1.00
H1091  H     0.91345   0.42386   0.96082   0.00000  Uiso   1.00
H1092  H     0.72069   0.55656   0.97925   0.00000  Uiso   1.00
H1093  H     0.74498   0.55848   0.90773   0.00000  Uiso   1.00
O1094  O     0.83333   0.50000   0.75000   0.00000  Uiso   1.00
O1095  O     0.82360   0.45726   0.66625   0.00000  Uiso   1.00
O1096  O     0.79354   0.53979   0.83749   0.00000  Uiso   1.00
O1097  O     0.87755   0.50826   0.65877   0.00000  Uiso   1.00
O1098  O     0.83865   0.49468   0.83749   0.00000  Uiso   1.00
O1099  O     0.84515   0.41434   0.77820   0.00000  Uiso   1.00
O1100  O     0.81247   0.59469   0.76767   0.00000  Uiso   1.00
O1101  O     0.74119   0.46584   0.73607   0.00000  Uiso   1.00
O1102  O     0.93452   0.52512   0.71805   0.00000  Uiso   1.00
O1103  O     0.73656   0.52293   0.77820   0.00000  Uiso   1.00
O1104  O     0.92106   0.48610   0.76767   0.00000  Uiso   1.00
O1105  O     0.80467   0.40236   0.73607   0.00000  Uiso   1.00
O1106  O     0.87104   0.58860   0.71805   0.00000  Uiso   1.00
Zn1107 Zn    0.85910   0.47423   0.78277   0.00000  Uiso   1.00
Zn1108 Zn    0.80125   0.45711   0.72257   0.00000  Uiso   1.00
Zn1109 Zn    0.87833   0.52997   0.71188   0.00000  Uiso   1.00
Zn1110 Zn    0.79465   0.53868   0.78277   0.00000  Uiso   1.00
C1111  C     0.05249   0.82645   0.75877   0.00000  Uiso   1.00
C1112  C     0.19957   0.79387   0.95942   0.00000  Uiso   1.00
C1113  C     0.22032   0.77337   0.97908   0.00000  Uiso   1.00
C1114  C     0.28106   0.84015   0.74122   0.00000  Uiso   1.00
C1115  C     0.20968   0.77717   0.52046   0.00000  Uiso   1.00
C1116  C     0.17756   0.80328   0.54146   0.00000  Uiso   1.00
C1117  C     0.23147   0.75751   0.54147   0.00000  Uiso   1.00
C1118  C     0.22539   0.76947   0.58263   0.00000  Uiso   1.00
C1119  C     0.17592   0.81775   0.58066   0.00000  Uiso   1.00
C1120  C     0.32695   0.84273   0.73765   0.00000  Uiso   1.00
C1121  C     0.00716   0.82384   0.76214   0.00000  Uiso   1.00
C1122  C     0.09703   0.87751   0.92200   0.00000  Uiso   1.00
C1123  C     0.18096   0.98881   0.73807   0.00000  Uiso   1.00
C1124  C     0.15175   0.67869   0.76210   0.00000  Uiso   1.00
C1125  C     0.15602   0.72271   0.75887   0.00000  Uiso   1.00
C1126  C     0.17689   0.94432   0.74133   0.00000  Uiso   1.00
C1127  C     0.18796   0.81202   0.64398   0.00000  Uiso   1.00
C1128  C     0.14555   0.85426   0.85630   0.00000  Uiso   1.00
C1129  C     0.13369   0.85890   0.89982   0.00000  Uiso   1.00
C1130  C     0.19816   0.80056   0.60139   0.00000  Uiso   1.00
C1131  C     0.08308   0.87615   0.96278   0.00000  Uiso   1.00
C1132  C     0.25940   0.72288   0.52156   0.00000  Uiso   1.00
C1133  C     0.15729   0.84075   0.91915   0.00000  Uiso   1.00
C1134  C     0.24928   0.75124   0.60646   0.00000  Uiso   1.00
C1135  C     0.29149   0.77839   0.60736   0.00000  Uiso   1.00
C1136  C     0.08081   0.81450   0.58103   0.00000  Uiso   1.00
C1137  C     0.07453   0.76682   0.57920   0.00000  Uiso   1.00
C1138  C     0.14297   0.83754   0.96015   0.00000  Uiso   1.00
C1139  C     0.10522   0.85565   0.98187   0.00000  Uiso   1.00
C1140  C     0.16475   0.81663   0.98002   0.00000  Uiso   1.00
C1141  C     0.15044   0.81728   0.52185   0.00000  Uiso   1.00
C1142  C     0.10862   0.82971   0.54188   0.00000  Uiso   1.00
C1143  C     0.08820   0.85090   0.52192   0.00000  Uiso   1.00
H1144  H     0.05733   0.86193   0.53725   0.00000  Uiso   1.00
H1145  H     0.18660   0.82901   0.90122   0.00000  Uiso   1.00
H1146  H     0.21083   0.78974   0.92770   0.00000  Uiso   1.00
H1147  H     0.24699   0.69435   0.53700   0.00000  Uiso   1.00
H1148  H     0.25919   0.71226   0.99076   0.00000  Uiso   1.00
H1149  H     0.29328   0.73293   0.52226   0.00000  Uiso   1.00
H1150  H     0.31327   0.77946   0.57702   0.00000  Uiso   1.00
H1151  H     0.28543   0.81070   0.62036   0.00000  Uiso   1.00
H1152  H     0.30766   0.76508   0.62567   0.00000  Uiso   1.00
H1153  H     0.22913   0.74849   0.63721   0.00000  Uiso   1.00
H1154  H     0.25634   0.71894   0.59487   0.00000  Uiso   1.00
H1155  H     0.01651   0.86011   0.71499   0.00000  Uiso   1.00
H1156  H     0.06037   0.75317   0.55460   0.00000  Uiso   1.00
H1157  H     0.10547   0.75415   0.57500   0.00000  Uiso   1.00
H1158  H     0.05227   0.75706   0.60733   0.00000  Uiso   1.00
H1159  H     0.09269   0.82816   0.60667   0.00000  Uiso   1.00
H1160  H     0.04810   0.82468   0.58835   0.00000  Uiso   1.00
H1161  H     0.31827   0.80636   0.78504   0.00000  Uiso   1.00
H1162  H     0.20794   0.66946   0.71594   0.00000  Uiso   1.00
H1163  H     0.12438   0.99880   0.78429   0.00000  Uiso   1.00
H1164  H     0.15882   0.84410   0.59508   0.00000  Uiso   1.00
H1165  H     0.24679   0.75719   0.96082   0.00000  Uiso   1.00
H1166  H     0.05402   0.88990   0.97925   0.00000  Uiso   1.00
H1167  H     0.07831   0.89181   0.90773   0.00000  Uiso   1.00
O1168  O     0.16667   0.83333   0.75000   0.00000  Uiso   1.00
O1169  O     0.15693   0.79060   0.66625   0.00000  Uiso   1.00
O1170  O     0.12687   0.87313   0.83749   0.00000  Uiso   1.00
O1171  O     0.21088   0.84159   0.65877   0.00000  Uiso   1.00
O1172  O     0.17198   0.82802   0.83749   0.00000  Uiso   1.00
O1173  O     0.17849   0.74768   0.77820   0.00000  Uiso   1.00
O1174  O     0.14581   0.92803   0.76767   0.00000  Uiso   1.00
O1175  O     0.07452   0.79917   0.73607   0.00000  Uiso   1.00
O1176  O     0.26785   0.85845   0.71805   0.00000  Uiso   1.00
O1177  O     0.06990   0.85627   0.77820   0.00000  Uiso   1.00
O1178  O     0.25440   0.81944   0.76767   0.00000  Uiso   1.00
O1179  O     0.13800   0.73570   0.73607   0.00000  Uiso   1.00
O1180  O     0.20437   0.92193   0.71805   0.00000  Uiso   1.00
Zn1181 Zn    0.19244   0.80756   0.78277   0.00000  Uiso   1.00
Zn1182 Zn    0.13459   0.79044   0.72257   0.00000  Uiso   1.00
Zn1183 Zn    0.21166   0.86331   0.71188   0.00000  Uiso   1.00
Zn1184 Zn    0.12798   0.87202   0.78277   0.00000  Uiso   1.00
C1185  C     0.38583   0.82645   0.75877   0.00000  Uiso   1.00
C1186  C     0.53291   0.79387   0.95942   0.00000  Uiso   1.00
C1187  C     0.55365   0.77337   0.97908   0.00000  Uiso   1.00
C1188  C     0.61439   0.84015   0.74122   0.00000  Uiso   1.00
C1189  C     0.54301   0.77717   0.52046   0.00000  Uiso   1.00
C1190  C     0.51089   0.80328   0.54146   0.00000  Uiso   1.00
C1191  C     0.56480   0.75751   0.54147   0.00000  Uiso   1.00
C1192  C     0.55872   0.76947   0.58263   0.00000  Uiso   1.00
C1193  C     0.50925   0.81775   0.58066   0.00000  Uiso   1.00
C1194  C     0.66028   0.84273   0.73765   0.00000  Uiso   1.00
C1195  C     0.34049   0.82384   0.76214   0.00000  Uiso   1.00
C1196  C     0.43036   0.87751   0.92200   0.00000  Uiso   1.00
C1197  C     0.51429   0.98881   0.73807   0.00000  Uiso   1.00
C1198  C     0.48508   0.67869   0.76210   0.00000  Uiso   1.00
C1199  C     0.48935   0.72271   0.75887   0.00000  Uiso   1.00
C1200  C     0.51022   0.94432   0.74133   0.00000  Uiso   1.00
C1201  C     0.52129   0.81202   0.64398   0.00000  Uiso   1.00
C1202  C     0.47888   0.85426   0.85630   0.00000  Uiso   1.00
C1203  C     0.46702   0.85890   0.89982   0.00000  Uiso   1.00
C1204  C     0.53149   0.80056   0.60139   0.00000  Uiso   1.00
C1205  C     0.41641   0.87615   0.96278   0.00000  Uiso   1.00
C1206  C     0.59273   0.72288   0.52156   0.00000  Uiso   1.00
C1207  C     0.49062   0.84075   0.91915   0.00000  Uiso   1.00
C1208  C     0.58261   0.75124   0.60646   0.00000  Uiso   1.00
C1209  C     0.62482   0.77839   0.60736   0.00000  Uiso   1.00
C1210  C     0.41414   0.81450   0.58103   0.00000  Uiso   1.00
C1211  C     0.40786   0.76682   0.57920   0.00000  Uiso   1.00
C1212  C     0.47630   0.83754   0.96015   0.00000  Uiso   1.00
C1213  C     0.43855   0.85565   0.98187   0.00000  Uiso   1.00
C1214  C     0.49809   0.81663   0.98002   0.00000  Uiso   1.00
C1215  C     0.48378   0.81728   0.52185   0.00000  Uiso   1.00
C1216  C     0.44196   0.82971   0.54188   0.00000  Uiso   1.00
C1217  C     0.42154   0.85090   0.52192   0.00000  Uiso   1.00
H1218  H     0.39066   0.86193   0.53725   0.00000  Uiso   1.00
H1219  H     0.51994   0.82901   0.90122   0.00000  Uiso   1.00
H1220  H     0.54416   0.78974   0.92770   0.00000  Uiso   1.00
H1221  H     0.58032   0.69435   0.53700   0.00000  Uiso   1.00
H1222  H     0.59252   0.71226   0.99076   0.00000  Uiso   1.00
H1223  H     0.62661   0.73293   0.52226   0.00000  Uiso   1.00
H1224  H     0.64660   0.77946   0.57702   0.00000  Uiso   1.00
H1225  H     0.61876   0.81070   0.62036   0.00000  Uiso   1.00
H1226  H     0.64099   0.76508   0.62567   0.00000  Uiso   1.00
H1227  H     0.56246   0.74849   0.63721   0.00000  Uiso   1.00
H1228  H     0.58967   0.71894   0.59487   0.00000  Uiso   1.00
H1229  H     0.34984   0.86011   0.71499   0.00000  Uiso   1.00
H1230  H     0.39371   0.75317   0.55460   0.00000  Uiso   1.00
H1231  H     0.43881   0.75415   0.57500   0.00000  Uiso   1.00
H1232  H     0.38561   0.75706   0.60733   0.00000  Uiso   1.00
H1233  H     0.42603   0.82816   0.60667   0.00000  Uiso   1.00
H1234  H     0.38143   0.82468   0.58835   0.00000  Uiso   1.00
H1235  H     0.65160   0.80636   0.78504   0.00000  Uiso   1.00
H1236  H     0.54128   0.66946   0.71594   0.00000  Uiso   1.00
H1237  H     0.45772   0.99880   0.78429   0.00000  Uiso   1.00
H1238  H     0.49215   0.84410   0.59508   0.00000  Uiso   1.00
H1239  H     0.58012   0.75719   0.96082   0.00000  Uiso   1.00
H1240  H     0.38736   0.88990   0.97925   0.00000  Uiso   1.00
H1241  H     0.41165   0.89181   0.90773   0.00000  Uiso   1.00
O1242  O     0.50000   0.83333   0.75000   0.00000  Uiso   1.00
O1243  O     0.49027   0.79060   0.66625   0.00000  Uiso   1.00
O1244  O     0.46020   0.87313   0.83749   0.00000  Uiso   1.00
O1245  O     0.54421   0.84159   0.65877   0.00000  Uiso   1.00
O1246  O     0.50532   0.82802   0.83749   0.00000  Uiso   1.00
O1247  O     0.51182   0.74768   0.77820   0.00000  Uiso   1.00
O1248  O     0.47914   0.92803   0.76767   0.00000  Uiso   1.00
O1249  O     0.40785   0.79917   0.73607   0.00000  Uiso   1.00
O1250  O     0.60119   0.85845   0.71805   0.00000  Uiso   1.00
O1251  O     0.40323   0.85627   0.77820   0.00000  Uiso   1.00
O1252  O     0.58773   0.81944   0.76767   0.00000  Uiso   1.00
O1253  O     0.47133   0.73570   0.73607   0.00000  Uiso   1.00
O1254  O     0.53771   0.92193   0.71805   0.00000  Uiso   1.00
Zn1255 Zn    0.52577   0.80756   0.78277   0.00000  Uiso   1.00
Zn1256 Zn    0.46792   0.79044   0.72257   0.00000  Uiso   1.00
Zn1257 Zn    0.54500   0.86331   0.71188   0.00000  Uiso   1.00
Zn1258 Zn    0.46131   0.87202   0.78277   0.00000  Uiso   1.00
C1259  C     0.71916   0.82645   0.75877   0.00000  Uiso   1.00
C1260  C     0.86624   0.79387   0.95942   0.00000  Uiso   1.00
C1261  C     0.88698   0.77337   0.97908   0.00000  Uiso   1.00
C1262  C     0.94772   0.84015   0.74122   0.00000  Uiso   1.00
C1263  C     0.87634   0.77717   0.52046   0.00000  Uiso   1.00
C1264  C     0.84423   0.80328   0.54146   0.00000  Uiso   1.00
C1265  C     0.89814   0.75751   0.54147   0.00000  Uiso   1.00
C1266  C     0.89205   0.76947   0.58263   0.00000  Uiso   1.00
C1267  C     0.84258   0.81775   0.58066   0.00000  Uiso   1.00
C1268  C     0.99361   0.84273   0.73765   0.00000  Uiso   1.00
C1269  C     0.67382   0.82384   0.76214   0.00000  Uiso   1.00
C1270  C     0.76370   0.87751   0.92200   0.00000  Uiso   1.00
C1271  C     0.84762   0.98881   0.73807   0.00000  Uiso   1.00
C1272  C     0.81842   0.67869   0.76210   0.00000  Uiso   1.00
C1273  C     0.82269   0.72271   0.75887   0.00000  Uiso   1.00
C1274  C     0.84355   0.94432   0.74133   0.00000  Uiso   1.00
C1275  C     0.85463   0.81202   0.64398   0.00000  Uiso   1.00
C1276  C     0.81221   0.85426   0.85630   0.00000  Uiso   1.00
C1277  C     0.80036   0.85890   0.89982   0.00000  Uiso   1.00
C1278  C     0.86483   0.80056   0.60139   0.00000  Uiso   1.00
C1279  C     0.74975   0.87615   0.96278   0.00000  Uiso   1.00
C1280  C     0.92606   0.72288   0.52156   0.00000  Uiso   1.00
C1281  C     0.82396   0.84075   0.91915   0.00000  Uiso   1.00
C1282  C     0.91595   0.75124   0.60646   0.00000  Uiso   1.00
C1283  C     0.95815   0.77839   0.60736   0.00000  Uiso   1.00
C1284  C     0.74747   0.81450   0.58103   0.00000  Uiso   1.00
C1285  C     0.74120   0.76682   0.57920   0.00000  Uiso   1.00
C1286  C     0.80964   0.83754   0.96015   0.00000  Uiso   1.00
C1287  C     0.77189   0.85565   0.98187   0.00000  Uiso   1.00
C1288  C     0.83142   0.81663   0.98002   0.00000  Uiso   1.00
C1289  C     0.81711   0.81728   0.52185   0.00000  Uiso   1.00
C1290  C     0.77529   0.82971   0.54188   0.00000  Uiso   1.00
C1291  C     0.75487   0.85090   0.52192   0.00000  Uiso   1.00
H1292  H     0.72399   0.86193   0.53725   0.00000  Uiso   1.00
H1293  H     0.85327   0.82901   0.90122   0.00000  Uiso   1.00
H1294  H     0.87750   0.78974   0.92770   0.00000  Uiso   1.00
H1295  H     0.91366   0.69435   0.53700   0.00000  Uiso   1.00
H1296  H     0.92585   0.71226   0.99076   0.00000  Uiso   1.00
H1297  H     0.95994   0.73293   0.52226   0.00000  Uiso   1.00
H1298  H     0.97993   0.77946   0.57702   0.00000  Uiso   1.00
H1299  H     0.95209   0.81070   0.62036   0.00000  Uiso   1.00
H1300  H     0.97432   0.76508   0.62567   0.00000  Uiso   1.00
H1301  H     0.89580   0.74849   0.63721   0.00000  Uiso   1.00
H1302  H     0.92301   0.71894   0.59487   0.00000  Uiso   1.00
H1303  H     0.68318   0.86011   0.71499   0.00000  Uiso   1.00
H1304  H     0.72704   0.75317   0.55460   0.00000  Uiso   1.00
H1305  H     0.77214   0.75415   0.57500   0.00000  Uiso   1.00
H1306  H     0.71894   0.75706   0.60733   0.00000  Uiso   1.00
H1307  H     0.75936   0.82816   0.60667   0.00000  Uiso   1.00
H1308  H     0.71476   0.82468   0.58835   0.00000  Uiso   1.00
H1309  H     0.98493   0.80636   0.78504   0.00000  Uiso   1.00
H1310  H     0.87461   0.66946   0.71594   0.00000  Uiso   1.00
H1311  H     0.79105   0.99880   0.78429   0.00000  Uiso   1.00
H1312  H     0.82549   0.84410   0.59508   0.00000  Uiso   1.00
H1313  H     0.91345   0.75719   0.96082   0.00000  Uiso   1.00
H1314  H     0.72069   0.88990   0.97925   0.00000  Uiso   1.00
H1315  H     0.74498   0.89181   0.90773   0.00000  Uiso   1.00
O1316  O     0.83333   0.83333   0.75000   0.00000  Uiso   1.00
O1317  O     0.82360   0.79060   0.66625   0.00000  Uiso   1.00
O1318  O     0.79354   0.87313   0.83749   0.00000  Uiso   1.00
O1319  O     0.87755   0.84159   0.65877   0.00000  Uiso   1.00
O1320  O     0.83865   0.82802   0.83749   0.00000  Uiso   1.00
O1321  O     0.84515   0.74768   0.77820   0.00000  Uiso   1.00
O1322  O     0.81247   0.92803   0.76767   0.00000  Uiso   1.00
O1323  O     0.74119   0.79917   0.73607   0.00000  Uiso   1.00
O1324  O     0.93452   0.85845   0.71805   0.00000  Uiso   1.00
O1325  O     0.73656   0.85627   0.77820   0.00000  Uiso   1.00
O1326  O     0.92106   0.81944   0.76767   0.00000  Uiso   1.00
O1327  O     0.80467   0.73570   0.73607   0.00000  Uiso   1.00
O1328  O     0.87104   0.92193   0.71805   0.00000  Uiso   1.00
Zn1329 Zn    0.85910   0.80756   0.78277   0.00000  Uiso   1.00
Zn1330 Zn    0.80125   0.79044   0.72257   0.00000  Uiso   1.00
Zn1331 Zn    0.87833   0.86331   0.71188   0.00000  Uiso   1.00
Zn1332 Zn    0.79465   0.87202   0.78277   0.00000  Uiso   1.00
loop_
_geom_bond_atom_site_label_1
_geom_bond_atom_site_label_2
_geom_bond_distance
_geom_bond_site_symmetry_2
_ccdc_geom_bond_type
C1     C11     1.438   .     S
C1     O67     1.269   .     A
C1     O65     1.269   .     A
C2     H36     1.076   .     S
C2     C30     1.412   .     A
C2     C3      1.387   .     A
C3     H55     1.078   .     S
C3     C671    1.403   .     S
C4     C10     1.454   .     S
C4     O68     1.276   .     A
C4     O66     1.278   .     A
C5     C7      1.429   .     A
C5     C6      1.419   .     A
C5     C669    1.403   1_554 S
C6     C9      1.395   .     A
C6     C31     1.426   .     A
C7     C8      1.424   .     A
C7     C22     1.521   .     S
C8     C20     1.412   .     A
C8     C24     1.526   .     S
C9     C20     1.386   .     A
C9     H54     1.079   .     S
C10    C85     1.334   .     S
C10    H119    1.088   .     S
C11    C158    1.334   1_455 S
C11    H199    1.086   1_455 S
C12    C21     1.394   .     A
C12    H57     1.083   .     S
C12    C19     1.399   .     A
C13    C16     1.452   .     S
C13    C236    1.332   .     S
C13    H274    1.088   .     S
C14    C15     1.436   .     S
C14    C457    1.332   1_545 S
C14    H497    1.086   1_545 S
C15    O69     1.273   .     A
C15    O63     1.273   .     A
C16    O70     1.272   .     A
C16    O64     1.272   .     A
C17    C20     1.460   .     S
C17    O61     1.276   .     A
C17    O59     1.273   .     A
C18    C19     1.475   .     S
C18    O62     1.284   .     A
C18    O60     1.285   .     A
C19    C23     1.401   .     A
C21    C29     1.405   .     A
C21    H56     1.084   .     S
C22    H37     1.109   .     S
C22    H39     1.110   .     S
C22    H704    1.102   1_554 S
C23    C28     1.411   .     A
C23    H35     1.075   .     S
C24    C25     1.525   .     S
C24    H44     1.106   .     S
C24    H43     1.110   .     S
C25    H40     1.110   .     S
C25    H41     1.110   .     S
C25    H42     1.110   .     S
C26    C32     1.530   .     S
C26    C27     1.529   .     S
C26    H50     1.112   .     S
C26    H49     1.102   .     S
C27    H48     1.110   .     S
C27    H47     1.108   .     S
C27    H46     1.111   .     S
C28    C29     1.415   .     A
C28    C30     1.425   .     A
C29    C699    1.393   .     S
C30    C697    1.423   .     S
C31    C32     1.434   .     A
C31    C696    1.423   1_554 S
C32    C33     1.401   .     A
C33    H34     1.085   .     S
C33    C695    1.393   1_554 S
H38    C688    1.102   .     S
H45    C158    1.088   1_455 S
H51    C85     1.086   .     S
H52    C457    1.088   1_545 S
H53    C236    1.086   .     S
O58    Zn71    1.951   .     S
O58    Zn74    1.937   .     S
O58    Zn72    1.938   .     S
O58    Zn73    1.935   .     S
O59    Zn72    1.925   .     S
O60    Zn74    1.929   .     S
O61    Zn73    1.926   .     S
O62    Zn71    1.922   .     S
O63    Zn71    1.929   .     S
O64    Zn74    1.930   .     S
O65    Zn72    1.931   .     S
O66    Zn73    1.936   .     S
O67    Zn74    1.932   .     S
O68    Zn71    1.928   .     S
O69    Zn72    1.935   .     S
O70    Zn73    1.932   .     S
C75    C85     1.438   .     S
C75    O141    1.269   .     A
C75    O139    1.269   .     A
C76    H110    1.076   .     S
C76    C104    1.412   .     A
C76    C77     1.387   .     A
C77    H129    1.078   .     S
C77    C745    1.403   .     S
C78    C84     1.454   .     S
C78    O142    1.276   .     A
C78    O140    1.278   .     A
C79    C81     1.429   .     A
C79    C80     1.419   .     A
C79    C743    1.403   1_554 S
C80    C83     1.395   .     A
C80    C105    1.426   .     A
C81    C82     1.424   .     A
C81    C96     1.521   .     S
C82    C94     1.412   .     A
C82    C98     1.526   .     S
C83    C94     1.386   .     A
C83    H128    1.079   .     S
C84    C159    1.334   .     S
C84    H193    1.088   .     S
C86    C95     1.394   .     A
C86    H131    1.083   .     S
C86    C93     1.399   .     A
C87    C90     1.452   .     S
C87    C310    1.332   .     S
C87    H348    1.088   .     S
C88    C89     1.436   .     S
C88    C531    1.332   1_545 S
C88    H571    1.086   1_545 S
C89    O143    1.273   .     A
C89    O137    1.273   .     A
C90    O144    1.272   .     A
C90    O138    1.272   .     A
C91    C94     1.460   .     S
C91    O135    1.276   .     A
C91    O133    1.273   .     A
C92    C93     1.475   .     S
C92    O136    1.284   .     A
C92    O134    1.285   .     A
C93    C97     1.401   .     A
C95    C103    1.405   .     A
C95    H130    1.084   .     S
C96    H111    1.109   .     S
C96    H113    1.110   .     S
C96    H778    1.102   1_554 S
C97    C102    1.411   .     A
C97    H109    1.075   .     S
C98    C99     1.525   .     S
C98    H118    1.106   .     S
C98    H117    1.110   .     S
C99    H114    1.110   .     S
C99    H115    1.110   .     S
C99    H116    1.110   .     S
C100   C106    1.530   .     S
C100   C101    1.529   .     S
C100   H124    1.112   .     S
C100   H123    1.102   .     S
C101   H122    1.110   .     S
C101   H121    1.108   .     S
C101   H120    1.111   .     S
C102   C103    1.415   .     A
C102   C104    1.425   .     A
C103   C773    1.393   .     S
C104   C771    1.423   .     S
C105   C106    1.434   .     A
C105   C770    1.423   1_554 S
C106   C107    1.401   .     A
C107   H108    1.085   .     S
C107   C769    1.393   1_554 S
H112   C762    1.102   .     S
H125   C159    1.086   .     S
H126   C531    1.088   1_545 S
H127   C310    1.086   .     S
O132   Zn145   1.951   .     S
O132   Zn148   1.937   .     S
O132   Zn146   1.938   .     S
O132   Zn147   1.935   .     S
O133   Zn146   1.925   .     S
O134   Zn148   1.929   .     S
O135   Zn147   1.926   .     S
O136   Zn145   1.922   .     S
O137   Zn145   1.929   .     S
O138   Zn148   1.930   .     S
O139   Zn146   1.931   .     S
O140   Zn147   1.936   .     S
O141   Zn148   1.932   .     S
O142   Zn145   1.928   .     S
O143   Zn146   1.935   .     S
O144   Zn147   1.932   .     S
C149   C159    1.438   .     S
C149   O215    1.269   .     A
C149   O213    1.269   .     A
C150   H184    1.076   .     S
C150   C178    1.412   .     A
C150   C151    1.387   .     A
C151   H203    1.078   .     S
C151   C819    1.403   .     S
C152   C158    1.454   .     S
C152   O216    1.276   .     A
C152   O214    1.278   .     A
C153   C155    1.429   .     A
C153   C154    1.419   .     A
C153   C817    1.403   1_554 S
C154   C157    1.395   .     A
C154   C179    1.426   .     A
C155   C156    1.424   .     A
C155   C170    1.521   .     S
C156   C168    1.412   .     A
C156   C172    1.526   .     S
C157   C168    1.386   .     A
C157   H202    1.079   .     S
C158   C11     1.334   1_655 S
C158   H45     1.088   1_655 S
C160   C169    1.394   .     A
C160   H205    1.083   .     S
C160   C167    1.399   .     A
C161   C164    1.452   .     S
C161   C384    1.332   .     S
C161   H422    1.088   .     S
C162   C163    1.436   .     S
C162   C605    1.332   1_545 S
C162   H645    1.086   1_545 S
C163   O217    1.273   .     A
C163   O211    1.273   .     A
C164   O218    1.272   .     A
C164   O212    1.272   .     A
C165   C168    1.460   .     S
C165   O209    1.276   .     A
C165   O207    1.273   .     A
C166   C167    1.475   .     S
C166   O210    1.284   .     A
C166   O208    1.285   .     A
C167   C171    1.401   .     A
C169   C177    1.405   .     A
C169   H204    1.084   .     S
C170   H185    1.109   .     S
C170   H187    1.110   .     S
C170   H852    1.102   1_554 S
C171   C176    1.411   .     A
C171   H183    1.075   .     S
C172   C173    1.525   .     S
C172   H192    1.106   .     S
C172   H191    1.110   .     S
C173   H188    1.110   .     S
C173   H189    1.110   .     S
C173   H190    1.110   .     S
C174   C180    1.530   .     S
C174   C175    1.529   .     S
C174   H198    1.112   .     S
C174   H197    1.102   .     S
C175   H196    1.110   .     S
C175   H195    1.108   .     S
C175   H194    1.111   .     S
C176   C177    1.415   .     A
C176   C178    1.425   .     A
C177   C847    1.393   .     S
C178   C845    1.423   .     S
C179   C180    1.434   .     A
C179   C844    1.423   1_554 S
C180   C181    1.401   .     A
C181   H182    1.085   .     S
C181   C843    1.393   1_554 S
H186   C836    1.102   .     S
H199   C11     1.086   1_655 S
H200   C605    1.088   1_545 S
H201   C384    1.086   .     S
O206   Zn219   1.951   .     S
O206   Zn222   1.937   .     S
O206   Zn220   1.938   .     S
O206   Zn221   1.935   .     S
O207   Zn220   1.925   .     S
O208   Zn222   1.929   .     S
O209   Zn221   1.926   .     S
O210   Zn219   1.922   .     S
O211   Zn219   1.929   .     S
O212   Zn222   1.930   .     S
O213   Zn220   1.931   .     S
O214   Zn221   1.936   .     S
O215   Zn222   1.932   .     S
O216   Zn219   1.928   .     S
O217   Zn220   1.935   .     S
O218   Zn221   1.932   .     S
C223   C233    1.438   .     S
C223   O289    1.269   .     A
C223   O287    1.269   .     A
C224   H258    1.076   .     S
C224   C252    1.412   .     A
C224   C225    1.387   .     A
C225   H277    1.078   .     S
C225   C893    1.403   .     S
C226   C232    1.454   .     S
C226   O290    1.276   .     A
C226   O288    1.278   .     A
C227   C229    1.429   .     A
C227   C228    1.419   .     A
C227   C891    1.403   1_554 S
C228   C231    1.395   .     A
C228   C253    1.426   .     A
C229   C230    1.424   .     A
C229   C244    1.521   .     S
C230   C242    1.412   .     A
C230   C246    1.526   .     S
C231   C242    1.386   .     A
C231   H276    1.079   .     S
C232   C307    1.334   .     S
C232   H341    1.088   .     S
C233   C380    1.334   1_455 S
C233   H421    1.086   1_455 S
C234   C243    1.394   .     A
C234   H279    1.083   .     S
C234   C241    1.399   .     A
C235   C238    1.452   .     S
C235   C458    1.332   .     S
C235   H496    1.088   .     S
C236   C237    1.436   .     S
C237   O291    1.273   .     A
C237   O285    1.273   .     A
C238   O292    1.272   .     A
C238   O286    1.272   .     A
C239   C242    1.460   .     S
C239   O283    1.276   .     A
C239   O281    1.273   .     A
C240   C241    1.475   .     S
C240   O284    1.284   .     A
C240   O282    1.285   .     A
C241   C245    1.401   .     A
C243   C251    1.405   .     A
C243   H278    1.084   .     S
C244   H259    1.109   .     S
C244   H261    1.110   .     S
C244   H926    1.102   1_554 S
C245   C250    1.411   .     A
C245   H257    1.075   .     S
C246   C247    1.525   .     S
C246   H266    1.106   .     S
C246   H265    1.110   .     S
C247   H262    1.110   .     S
C247   H263    1.110   .     S
C247   H264    1.110   .     S
C248   C254    1.530   .     S
C248   C249    1.529   .     S
C248   H272    1.112   .     S
C248   H271    1.102   .     S
C249   H270    1.110   .     S
C249   H269    1.108   .     S
C249   H268    1.111   .     S
C250   C251    1.415   .     A
C250   C252    1.425   .     A
C251   C921    1.393   .     S
C252   C919    1.423   .     S
C253   C254    1.434   .     A
C253   C918    1.423   1_554 S
C254   C255    1.401   .     A
C255   H256    1.085   .     S
C255   C917    1.393   1_554 S
H260   C910    1.102   .     S
H267   C380    1.088   1_455 S
H273   C307    1.086   .     S
H275   C458    1.086   .     S
O280   Zn293   1.951   .     S
O280   Zn296   1.937   .     S
O280   Zn294   1.938   .     S
O280   Zn295   1.935   .     S
O281   Zn294   1.925   .     S
O282   Zn296   1.929   .     S
O283   Zn295   1.926   .     S
O284   Zn293   1.922   .     S
O285   Zn293   1.929   .     S
O286   Zn296   1.930   .     S
O287   Zn294   1.931   .     S
O288   Zn295   1.936   .     S
O289   Zn296   1.932   .     S
O290   Zn293   1.928   .     S
O291   Zn294   1.935   .     S
O292   Zn295   1.932   .     S
C297   C307    1.438   .     S
C297   O363    1.269   .     A
C297   O361    1.269   .     A
C298   H332    1.076   .     S
C298   C326    1.412   .     A
C298   C299    1.387   .     A
C299   H351    1.078   .     S
C299   C967    1.403   .     S
C300   C306    1.454   .     S
C300   O364    1.276   .     A
C300   O362    1.278   .     A
C301   C303    1.429   .     A
C301   C302    1.419   .     A
C301   C965    1.403   1_554 S
C302   C305    1.395   .     A
C302   C327    1.426   .     A
C303   C304    1.424   .     A
C303   C318    1.521   .     S
C304   C316    1.412   .     A
C304   C320    1.526   .     S
C305   C316    1.386   .     A
C305   H350    1.079   .     S
C306   C381    1.334   .     S
C306   H415    1.088   .     S
C308   C317    1.394   .     A
C308   H353    1.083   .     S
C308   C315    1.399   .     A
C309   C312    1.452   .     S
C309   C532    1.332   .     S
C309   H570    1.088   .     S
C310   C311    1.436   .     S
C311   O365    1.273   .     A
C311   O359    1.273   .     A
C312   O366    1.272   .     A
C312   O360    1.272   .     A
C313   C316    1.460   .     S
C313   O357    1.276   .     A
C313   O355    1.273   .     A
C314   C315    1.475   .     S
C314   O358    1.284   .     A
C314   O356    1.285   .     A
C315   C319    1.401   .     A
C317   C325    1.405   .     A
C317   H352    1.084   .     S
C318   H333    1.109   .     S
C318   H335    1.110   .     S
C318   H1000   1.102   1_554 S
C319   C324    1.411   .     A
C319   H331    1.075   .     S
C320   C321    1.525   .     S
C320   H340    1.106   .     S
C320   H339    1.110   .     S
C321   H336    1.110   .     S
C321   H337    1.110   .     S
C321   H338    1.110   .     S
C322   C328    1.530   .     S
C322   C323    1.529   .     S
C322   H346    1.112   .     S
C322   H345    1.102   .     S
C323   H344    1.110   .     S
C323   H343    1.108   .     S
C323   H342    1.111   .     S
C324   C325    1.415   .     A
C324   C326    1.425   .     A
C325   C995    1.393   .     S
C326   C993    1.423   .     S
C327   C328    1.434   .     A
C327   C992    1.423   1_554 S
C328   C329    1.401   .     A
C329   H330    1.085   .     S
C329   C991    1.393   1_554 S
H334   C984    1.102   .     S
H347   C381    1.086   .     S
H349   C532    1.086   .     S
O354   Zn367   1.951   .     S
O354   Zn370   1.937   .     S
O354   Zn368   1.938   .     S
O354   Zn369   1.935   .     S
O355   Zn368   1.925   .     S
O356   Zn370   1.929   .     S
O357   Zn369   1.926   .     S
O358   Zn367   1.922   .     S
O359   Zn367   1.929   .     S
O360   Zn370   1.930   .     S
O361   Zn368   1.931   .     S
O362   Zn369   1.936   .     S
O363   Zn370   1.932   .     S
O364   Zn367   1.928   .     S
O365   Zn368   1.935   .     S
O366   Zn369   1.932   .     S
C371   C381    1.438   .     S
C371   O437    1.269   .     A
C371   O435    1.269   .     A
C372   H406    1.076   .     S
C372   C400    1.412   .     A
C372   C373    1.387   .     A
C373   H425    1.078   .     S
C373   C1041   1.403   .     S
C374   C380    1.454   .     S
C374   O438    1.276   .     A
C374   O436    1.278   .     A
C375   C377    1.429   .     A
C375   C376    1.419   .     A
C375   C1039   1.403   1_554 S
C376   C379    1.395   .     A
C376   C401    1.426   .     A
C377   C378    1.424   .     A
C377   C392    1.521   .     S
C378   C390    1.412   .     A
C378   C394    1.526   .     S
C379   C390    1.386   .     A
C379   H424    1.079   .     S
C380   C233    1.334   1_655 S
C380   H267    1.088   1_655 S
C382   C391    1.394   .     A
C382   H427    1.083   .     S
C382   C389    1.399   .     A
C383   C386    1.452   .     S
C383   C606    1.332   .     S
C383   H644    1.088   .     S
C384   C385    1.436   .     S
C385   O439    1.273   .     A
C385   O433    1.273   .     A
C386   O440    1.272   .     A
C386   O434    1.272   .     A
C387   C390    1.460   .     S
C387   O431    1.276   .     A
C387   O429    1.273   .     A
C388   C389    1.475   .     S
C388   O432    1.284   .     A
C388   O430    1.285   .     A
C389   C393    1.401   .     A
C391   C399    1.405   .     A
C391   H426    1.084   .     S
C392   H407    1.109   .     S
C392   H409    1.110   .     S
C392   H1074   1.102   1_554 S
C393   C398    1.411   .     A
C393   H405    1.075   .     S
C394   C395    1.525   .     S
C394   H414    1.106   .     S
C394   H413    1.110   .     S
C395   H410    1.110   .     S
C395   H411    1.110   .     S
C395   H412    1.110   .     S
C396   C402    1.530   .     S
C396   C397    1.529   .     S
C396   H420    1.112   .     S
C396   H419    1.102   .     S
C397   H418    1.110   .     S
C397   H417    1.108   .     S
C397   H416    1.111   .     S
C398   C399    1.415   .     A
C398   C400    1.425   .     A
C399   C1069   1.393   .     S
C400   C1067   1.423   .     S
C401   C402    1.434   .     A
C401   C1066   1.423   1_554 S
C402   C403    1.401   .     A
C403   H404    1.085   .     S
C403   C1065   1.393   1_554 S
H408   C1058   1.102   .     S
H421   C233    1.086   1_655 S
H423   C606    1.086   .     S
O428   Zn441   1.951   .     S
O428   Zn444   1.937   .     S
O428   Zn442   1.938   .     S
O428   Zn443   1.935   .     S
O429   Zn442   1.925   .     S
O430   Zn444   1.929   .     S
O431   Zn443   1.926   .     S
O432   Zn441   1.922   .     S
O433   Zn441   1.929   .     S
O434   Zn444   1.930   .     S
O435   Zn442   1.931   .     S
O436   Zn443   1.936   .     S
O437   Zn444   1.932   .     S
O438   Zn441   1.928   .     S
O439   Zn442   1.935   .     S
O440   Zn443   1.932   .     S
C445   C455    1.438   .     S
C445   O511    1.269   .     A
C445   O509    1.269   .     A
C446   H480    1.076   .     S
C446   C474    1.412   .     A
C446   C447    1.387   .     A
C447   H499    1.078   .     S
C447   C1115   1.403   .     S
C448   C454    1.454   .     S
C448   O512    1.276   .     A
C448   O510    1.278   .     A
C449   C451    1.429   .     A
C449   C450    1.419   .     A
C449   C1113   1.403   1_554 S
C450   C453    1.395   .     A
C450   C475    1.426   .     A
C451   C452    1.424   .     A
C451   C466    1.521   .     S
C452   C464    1.412   .     A
C452   C468    1.526   .     S
C453   C464    1.386   .     A
C453   H498    1.079   .     S
C454   C529    1.334   .     S
C454   H563    1.088   .     S
C455   C602    1.334   1_455 S
C455   H643    1.086   1_455 S
C456   C465    1.394   .     A
C456   H501    1.083   .     S
C456   C463    1.399   .     A
C457   C460    1.452   .     S
C457   C14     1.332   1_565 S
C457   H52     1.088   1_565 S
C458   C459    1.436   .     S
C459   O513    1.273   .     A
C459   O507    1.273   .     A
C460   O514    1.272   .     A
C460   O508    1.272   .     A
C461   C464    1.460   .     S
C461   O505    1.276   .     A
C461   O503    1.273   .     A
C462   C463    1.475   .     S
C462   O506    1.284   .     A
C462   O504    1.285   .     A
C463   C467    1.401   .     A
C465   C473    1.405   .     A
C465   H500    1.084   .     S
C466   H481    1.109   .     S
C466   H483    1.110   .     S
C466   H1148   1.102   1_554 S
C467   C472    1.411   .     A
C467   H479    1.075   .     S
C468   C469    1.525   .     S
C468   H488    1.106   .     S
C468   H487    1.110   .     S
C469   H484    1.110   .     S
C469   H485    1.110   .     S
C469   H486    1.110   .     S
C470   C476    1.530   .     S
C470   C471    1.529   .     S
C470   H494    1.112   .     S
C470   H493    1.102   .     S
C471   H492    1.110   .     S
C471   H491    1.108   .     S
C471   H490    1.111   .     S
C472   C473    1.415   .     A
C472   C474    1.425   .     A
C473   C1143   1.393   .     S
C474   C1141   1.423   .     S
C475   C476    1.434   .     A
C475   C1140   1.423   1_554 S
C476   C477    1.401   .     A
C477   H478    1.085   .     S
C477   C1139   1.393   1_554 S
H482   C1132   1.102   .     S
H489   C602    1.088   1_455 S
H495   C529    1.086   .     S
H497   C14     1.086   1_565 S
O502   Zn515   1.951   .     S
O502   Zn518   1.937   .     S
O502   Zn516   1.938   .     S
O502   Zn517   1.935   .     S
O503   Zn516   1.925   .     S
O504   Zn518   1.929   .     S
O505   Zn517   1.926   .     S
O506   Zn515   1.922   .     S
O507   Zn515   1.929   .     S
O508   Zn518   1.930   .     S
O509   Zn516   1.931   .     S
O510   Zn517   1.936   .     S
O511   Zn518   1.932   .     S
O512   Zn515   1.928   .     S
O513   Zn516   1.935   .     S
O514   Zn517   1.932   .     S
C519   C529    1.438   .     S
C519   O585    1.269   .     A
C519   O583    1.269   .     A
C520   H554    1.076   .     S
C520   C548    1.412   .     A
C520   C521    1.387   .     A
C521   H573    1.078   .     S
C521   C1189   1.403   .     S
C522   C528    1.454   .     S
C522   O586    1.276   .     A
C522   O584    1.278   .     A
C523   C525    1.429   .     A
C523   C524    1.419   .     A
C523   C1187   1.403   1_554 S
C524   C527    1.395   .     A
C524   C549    1.426   .     A
C525   C526    1.424   .     A
C525   C540    1.521   .     S
C526   C538    1.412   .     A
C526   C542    1.526   .     S
C527   C538    1.386   .     A
C527   H572    1.079   .     S
C528   C603    1.334   .     S
C528   H637    1.088   .     S
C530   C539    1.394   .     A
C530   H575    1.083   .     S
C530   C537    1.399   .     A
C531   C534    1.452   .     S
C531   C88     1.332   1_565 S
C531   H126    1.088   1_565 S
C532   C533    1.436   .     S
C533   O587    1.273   .     A
C533   O581    1.273   .     A
C534   O588    1.272   .     A
C534   O582    1.272   .     A
C535   C538    1.460   .     S
C535   O579    1.276   .     A
C535   O577    1.273   .     A
C536   C537    1.475   .     S
C536   O580    1.284   .     A
C536   O578    1.285   .     A
C537   C541    1.401   .     A
C539   C547    1.405   .     A
C539   H574    1.084   .     S
C540   H555    1.109   .     S
C540   H557    1.110   .     S
C540   H1222   1.102   1_554 S
C541   C546    1.411   .     A
C541   H553    1.075   .     S
C542   C543    1.525   .     S
C542   H562    1.106   .     S
C542   H561    1.110   .     S
C543   H558    1.110   .     S
C543   H559    1.110   .     S
C543   H560    1.110   .     S
C544   C550    1.530   .     S
C544   C545    1.529   .     S
C544   H568    1.112   .     S
C544   H567    1.102   .     S
C545   H566    1.110   .     S
C545   H565    1.108   .     S
C545   H564    1.111   .     S
C546   C547    1.415   .     A
C546   C548    1.425   .     A
C547   C1217   1.393   .     S
C548   C1215   1.423   .     S
C549   C550    1.434   .     A
C549   C1214   1.423   1_554 S
C550   C551    1.401   .     A
C551   H552    1.085   .     S
C551   C1213   1.393   1_554 S
H556   C1206   1.102   .     S
H569   C603    1.086   .     S
H571   C88     1.086   1_565 S
O576   Zn589   1.951   .     S
O576   Zn592   1.937   .     S
O576   Zn590   1.938   .     S
O576   Zn591   1.935   .     S
O577   Zn590   1.925   .     S
O578   Zn592   1.929   .     S
O579   Zn591   1.926   .     S
O580   Zn589   1.922   .     S
O581   Zn589   1.929   .     S
O582   Zn592   1.930   .     S
O583   Zn590   1.931   .     S
O584   Zn591   1.936   .     S
O585   Zn592   1.932   .     S
O586   Zn589   1.928   .     S
O587   Zn590   1.935   .     S
O588   Zn591   1.932   .     S
C593   C603    1.438   .     S
C593   O659    1.269   .     A
C593   O657    1.269   .     A
C594   H628    1.076   .     S
C594   C622    1.412   .     A
C594   C595    1.387   .     A
C595   H647    1.078   .     S
C595   C1263   1.403   .     S
C596   C602    1.454   .     S
C596   O660    1.276   .     A
C596   O658    1.278   .     A
C597   C599    1.429   .     A
C597   C598    1.419   .     A
C597   C1261   1.403   1_554 S
C598   C601    1.395   .     A
C598   C623    1.426   .     A
C599   C600    1.424   .     A
C599   C614    1.521   .     S
C600   C612    1.412   .     A
C600   C616    1.526   .     S
C601   C612    1.386   .     A
C601   H646    1.079   .     S
C602   C455    1.334   1_655 S
C602   H489    1.088   1_655 S
C604   C613    1.394   .     A
C604   H649    1.083   .     S
C604   C611    1.399   .     A
C605   C608    1.452   .     S
C605   C162    1.332   1_565 S
C605   H200    1.088   1_565 S
C606   C607    1.436   .     S
C607   O661    1.273   .     A
C607   O655    1.273   .     A
C608   O662    1.272   .     A
C608   O656    1.272   .     A
C609   C612    1.460   .     S
C609   O653    1.276   .     A
C609   O651    1.273   .     A
C610   C611    1.475   .     S
C610   O654    1.284   .     A
C610   O652    1.285   .     A
C611   C615    1.401   .     A
C613   C621    1.405   .     A
C613   H648    1.084   .     S
C614   H629    1.109   .     S
C614   H631    1.110   .     S
C614   H1296   1.102   1_554 S
C615   C620    1.411   .     A
C615   H627    1.075   .     S
C616   C617    1.525   .     S
C616   H636    1.106   .     S
C616   H635    1.110   .     S
C617   H632    1.110   .     S
C617   H633    1.110   .     S
C617   H634    1.110   .     S
C618   C624    1.530   .     S
C618   C619    1.529   .     S
C618   H642    1.112   .     S
C618   H641    1.102   .     S
C619   H640    1.110   .     S
C619   H639    1.108   .     S
C619   H638    1.111   .     S
C620   C621    1.415   .     A
C620   C622    1.425   .     A
C621   C1291   1.393   .     S
C622   C1289   1.423   .     S
C623   C624    1.434   .     A
C623   C1288   1.423   1_554 S
C624   C625    1.401   .     A
C625   H626    1.085   .     S
C625   C1287   1.393   1_554 S
H630   C1280   1.102   .     S
H643   C455    1.086   1_655 S
H645   C162    1.086   1_565 S
O650   Zn663   1.951   .     S
O650   Zn666   1.937   .     S
O650   Zn664   1.938   .     S
O650   Zn665   1.935   .     S
O651   Zn664   1.925   .     S
O652   Zn666   1.929   .     S
O653   Zn665   1.926   .     S
O654   Zn663   1.922   .     S
O655   Zn663   1.929   .     S
O656   Zn666   1.930   .     S
O657   Zn664   1.931   .     S
O658   Zn665   1.936   .     S
O659   Zn666   1.932   .     S
O660   Zn663   1.928   .     S
O661   Zn664   1.935   .     S
O662   Zn665   1.932   .     S
C667   C677    1.438   .     S
C667   O733    1.269   .     A
C667   O731    1.269   .     A
C668   H702    1.076   .     S
C668   C696    1.412   .     A
C668   C669    1.387   .     A
C669   H721    1.078   .     S
C669   C5      1.403   1_556 S
C670   C676    1.454   .     S
C670   O734    1.276   .     A
C670   O732    1.278   .     A
C671   C673    1.429   .     A
C671   C672    1.419   .     A
C672   C675    1.395   .     A
C672   C697    1.426   .     A
C673   C674    1.424   .     A
C673   C688    1.521   .     S
C674   C686    1.412   .     A
C674   C690    1.526   .     S
C675   C686    1.386   .     A
C675   H720    1.079   .     S
C676   C751    1.334   .     S
C676   H785    1.088   .     S
C677   C824    1.334   1_455 S
C677   H865    1.086   1_455 S
C678   C687    1.394   .     A
C678   H723    1.083   .     S
C678   C685    1.399   .     A
C679   C682    1.452   .     S
C679   C902    1.332   .     S
C679   H940    1.088   .     S
C680   C681    1.436   .     S
C680   C1123   1.332   1_545 S
C680   H1163   1.086   1_545 S
C681   O735    1.273   .     A
C681   O729    1.273   .     A
C682   O736    1.272   .     A
C682   O730    1.272   .     A
C683   C686    1.460   .     S
C683   O727    1.276   .     A
C683   O725    1.273   .     A
C684   C685    1.475   .     S
C684   O728    1.284   .     A
C684   O726    1.285   .     A
C685   C689    1.401   .     A
C687   C695    1.405   .     A
C687   H722    1.084   .     S
C688   H703    1.109   .     S
C688   H705    1.110   .     S
C689   C694    1.411   .     A
C689   H701    1.075   .     S
C690   C691    1.525   .     S
C690   H710    1.106   .     S
C690   H709    1.110   .     S
C691   H706    1.110   .     S
C691   H707    1.110   .     S
C691   H708    1.110   .     S
C692   C698    1.530   .     S
C692   C693    1.529   .     S
C692   H716    1.112   .     S
C692   H715    1.102   .     S
C693   H714    1.110   .     S
C693   H713    1.108   .     S
C693   H712    1.111   .     S
C694   C695    1.415   .     A
C694   C696    1.425   .     A
C695   C33     1.393   1_556 S
C696   C31     1.423   1_556 S
C697   C698    1.434   .     A
C698   C699    1.401   .     A
C699   H700    1.085   .     S
H704   C22     1.102   1_556 S
H711   C824    1.088   1_455 S
H717   C751    1.086   .     S
H718   C1123   1.088   1_545 S
H719   C902    1.086   .     S
O724   Zn737   1.951   .     S
O724   Zn740   1.937   .     S
O724   Zn738   1.938   .     S
O724   Zn739   1.935   .     S
O725   Zn738   1.925   .     S
O726   Zn740   1.929   .     S
O727   Zn739   1.926   .     S
O728   Zn737   1.922   .     S
O729   Zn737   1.929   .     S
O730   Zn740   1.930   .     S
O731   Zn738   1.931   .     S
O732   Zn739   1.936   .     S
O733   Zn740   1.932   .     S
O734   Zn737   1.928   .     S
O735   Zn738   1.935   .     S
O736   Zn739   1.932   .     S
C741   C751    1.438   .     S
C741   O807    1.269   .     A
C741   O805    1.269   .     A
C742   H776    1.076   .     S
C742   C770    1.412   .     A
C742   C743    1.387   .     A
C743   H795    1.078   .     S
C743   C79     1.403   1_556 S
C744   C750    1.454   .     S
C744   O808    1.276   .     A
C744   O806    1.278   .     A
C745   C747    1.429   .     A
C745   C746    1.419   .     A
C746   C749    1.395   .     A
C746   C771    1.426   .     A
C747   C748    1.424   .     A
C747   C762    1.521   .     S
C748   C760    1.412   .     A
C748   C764    1.526   .     S
C749   C760    1.386   .     A
C749   H794    1.079   .     S
C750   C825    1.334   .     S
C750   H859    1.088   .     S
C752   C761    1.394   .     A
C752   H797    1.083   .     S
C752   C759    1.399   .     A
C753   C756    1.452   .     S
C753   C976    1.332   .     S
C753   H1014   1.088   .     S
C754   C755    1.436   .     S
C754   C1197   1.332   1_545 S
C754   H1237   1.086   1_545 S
C755   O809    1.273   .     A
C755   O803    1.273   .     A
C756   O810    1.272   .     A
C756   O804    1.272   .     A
C757   C760    1.460   .     S
C757   O801    1.276   .     A
C757   O799    1.273   .     A
C758   C759    1.475   .     S
C758   O802    1.284   .     A
C758   O800    1.285   .     A
C759   C763    1.401   .     A
C761   C769    1.405   .     A
C761   H796    1.084   .     S
C762   H777    1.109   .     S
C762   H779    1.110   .     S
C763   C768    1.411   .     A
C763   H775    1.075   .     S
C764   C765    1.525   .     S
C764   H784    1.106   .     S
C764   H783    1.110   .     S
C765   H780    1.110   .     S
C765   H781    1.110   .     S
C765   H782    1.110   .     S
C766   C772    1.530   .     S
C766   C767    1.529   .     S
C766   H790    1.112   .     S
C766   H789    1.102   .     S
C767   H788    1.110   .     S
C767   H787    1.108   .     S
C767   H786    1.111   .     S
C768   C769    1.415   .     A
C768   C770    1.425   .     A
C769   C107    1.393   1_556 S
C770   C105    1.423   1_556 S
C771   C772    1.434   .     A
C772   C773    1.401   .     A
C773   H774    1.085   .     S
H778   C96     1.102   1_556 S
H791   C825    1.086   .     S
H792   C1197   1.088   1_545 S
H793   C976    1.086   .     S
O798   Zn811   1.951   .     S
O798   Zn814   1.937   .     S
O798   Zn812   1.938   .     S
O798   Zn813   1.935   .     S
O799   Zn812   1.925   .     S
O800   Zn814   1.929   .     S
O801   Zn813   1.926   .     S
O802   Zn811   1.922   .     S
O803   Zn811   1.929   .     S
O804   Zn814   1.930   .     S
O805   Zn812   1.931   .     S
O806   Zn813   1.936   .     S
O807   Zn814   1.932   .     S
O808   Zn811   1.928   .     S
O809   Zn812   1.935   .     S
O810   Zn813   1.932   .     S
C815   C825    1.438   .     S
C815   O881    1.269   .     A
C815   O879    1.269   .     A
C816   H850    1.076   .     S
C816   C844    1.412   .     A
C816   C817    1.387   .     A
C817   H869    1.078   .     S
C817   C153    1.403   1_556 S
C818   C824    1.454   .     S
C818   O882    1.276   .     A
C818   O880    1.278   .     A
C819   C821    1.429   .     A
C819   C820    1.419   .     A
C820   C823    1.395   .     A
C820   C845    1.426   .     A
C821   C822    1.424   .     A
C821   C836    1.521   .     S
C822   C834    1.412   .     A
C822   C838    1.526   .     S
C823   C834    1.386   .     A
C823   H868    1.079   .     S
C824   C677    1.334   1_655 S
C824   H711    1.088   1_655 S
C826   C835    1.394   .     A
C826   H871    1.083   .     S
C826   C833    1.399   .     A
C827   C830    1.452   .     S
C827   C1050   1.332   .     S
C827   H1088   1.088   .     S
C828   C829    1.436   .     S
C828   C1271   1.332   1_545 S
C828   H1311   1.086   1_545 S
C829   O883    1.273   .     A
C829   O877    1.273   .     A
C830   O884    1.272   .     A
C830   O878    1.272   .     A
C831   C834    1.460   .     S
C831   O875    1.276   .     A
C831   O873    1.273   .     A
C832   C833    1.475   .     S
C832   O876    1.284   .     A
C832   O874    1.285   .     A
C833   C837    1.401   .     A
C835   C843    1.405   .     A
C835   H870    1.084   .     S
C836   H851    1.109   .     S
C836   H853    1.110   .     S
C837   C842    1.411   .     A
C837   H849    1.075   .     S
C838   C839    1.525   .     S
C838   H858    1.106   .     S
C838   H857    1.110   .     S
C839   H854    1.110   .     S
C839   H855    1.110   .     S
C839   H856    1.110   .     S
C840   C846    1.530   .     S
C840   C841    1.529   .     S
C840   H864    1.112   .     S
C840   H863    1.102   .     S
C841   H862    1.110   .     S
C841   H861    1.108   .     S
C841   H860    1.111   .     S
C842   C843    1.415   .     A
C842   C844    1.425   .     A
C843   C181    1.393   1_556 S
C844   C179    1.423   1_556 S
C845   C846    1.434   .     A
C846   C847    1.401   .     A
C847   H848    1.085   .     S
H852   C170    1.102   1_556 S
H865   C677    1.086   1_655 S
H866   C1271   1.088   1_545 S
H867   C1050   1.086   .     S
O872   Zn885   1.951   .     S
O872   Zn888   1.937   .     S
O872   Zn886   1.938   .     S
O872   Zn887   1.935   .     S
O873   Zn886   1.925   .     S
O874   Zn888   1.929   .     S
O875   Zn887   1.926   .     S
O876   Zn885   1.922   .     S
O877   Zn885   1.929   .     S
O878   Zn888   1.930   .     S
O879   Zn886   1.931   .     S
O880   Zn887   1.936   .     S
O881   Zn888   1.932   .     S
O882   Zn885   1.928   .     S
O883   Zn886   1.935   .     S
O884   Zn887   1.932   .     S
C889   C899    1.438   .     S
C889   O955    1.269   .     A
C889   O953    1.269   .     A
C890   H924    1.076   .     S
C890   C918    1.412   .     A
C890   C891    1.387   .     A
C891   H943    1.078   .     S
C891   C227    1.403   1_556 S
C892   C898    1.454   .     S
C892   O956    1.276   .     A
C892   O954    1.278   .     A
C893   C895    1.429   .     A
C893   C894    1.419   .     A
C894   C897    1.395   .     A
C894   C919    1.426   .     A
C895   C896    1.424   .     A
C895   C910    1.521   .     S
C896   C908    1.412   .     A
C896   C912    1.526   .     S
C897   C908    1.386   .     A
C897   H942    1.079   .     S
C898   C973    1.334   .     S
C898   H1007   1.088   .     S
C899   C1046   1.334   1_455 S
C899   H1087   1.086   1_455 S
C900   C909    1.394   .     A
C900   H945    1.083   .     S
C900   C907    1.399   .     A
C901   C904    1.452   .     S
C901   C1124   1.332   .     S
C901   H1162   1.088   .     S
C902   C903    1.436   .     S
C903   O957    1.273   .     A
C903   O951    1.273   .     A
C904   O958    1.272   .     A
C904   O952    1.272   .     A
C905   C908    1.460   .     S
C905   O949    1.276   .     A
C905   O947    1.273   .     A
C906   C907    1.475   .     S
C906   O950    1.284   .     A
C906   O948    1.285   .     A
C907   C911    1.401   .     A
C909   C917    1.405   .     A
C909   H944    1.084   .     S
C910   H925    1.109   .     S
C910   H927    1.110   .     S
C911   C916    1.411   .     A
C911   H923    1.075   .     S
C912   C913    1.525   .     S
C912   H932    1.106   .     S
C912   H931    1.110   .     S
C913   H928    1.110   .     S
C913   H929    1.110   .     S
C913   H930    1.110   .     S
C914   C920    1.530   .     S
C914   C915    1.529   .     S
C914   H938    1.112   .     S
C914   H937    1.102   .     S
C915   H936    1.110   .     S
C915   H935    1.108   .     S
C915   H934    1.111   .     S
C916   C917    1.415   .     A
C916   C918    1.425   .     A
C917   C255    1.393   1_556 S
C918   C253    1.423   1_556 S
C919   C920    1.434   .     A
C920   C921    1.401   .     A
C921   H922    1.085   .     S
H926   C244    1.102   1_556 S
H933   C1046   1.088   1_455 S
H939   C973    1.086   .     S
H941   C1124   1.086   .     S
O946   Zn959   1.951   .     S
O946   Zn962   1.937   .     S
O946   Zn960   1.938   .     S
O946   Zn961   1.935   .     S
O947   Zn960   1.925   .     S
O948   Zn962   1.929   .     S
O949   Zn961   1.926   .     S
O950   Zn959   1.922   .     S
O951   Zn959   1.929   .     S
O952   Zn962   1.930   .     S
O953   Zn960   1.931   .     S
O954   Zn961   1.936   .     S
O955   Zn962   1.932   .     S
O956   Zn959   1.928   .     S
O957   Zn960   1.935   .     S
O958   Zn961   1.932   .     S
C963   C973    1.438   .     S
C963   O1029   1.269   .     A
C963   O1027   1.269   .     A
C964   H998    1.076   .     S
C964   C992    1.412   .     A
C964   C965    1.387   .     A
C965   H1017   1.078   .     S
C965   C301    1.403   1_556 S
C966   C972    1.454   .     S
C966   O1030   1.276   .     A
C966   O1028   1.278   .     A
C967   C969    1.429   .     A
C967   C968    1.419   .     A
C968   C971    1.395   .     A
C968   C993    1.426   .     A
C969   C970    1.424   .     A
C969   C984    1.521   .     S
C970   C982    1.412   .     A
C970   C986    1.526   .     S
C971   C982    1.386   .     A
C971   H1016   1.079   .     S
C972   C1047   1.334   .     S
C972   H1081   1.088   .     S
C974   C983    1.394   .     A
C974   H1019   1.083   .     S
C974   C981    1.399   .     A
C975   C978    1.452   .     S
C975   C1198   1.332   .     S
C975   H1236   1.088   .     S
C976   C977    1.436   .     S
C977   O1031   1.273   .     A
C977   O1025   1.273   .     A
C978   O1032   1.272   .     A
C978   O1026   1.272   .     A
C979   C982    1.460   .     S
C979   O1023   1.276   .     A
C979   O1021   1.273   .     A
C980   C981    1.475   .     S
C980   O1024   1.284   .     A
C980   O1022   1.285   .     A
C981   C985    1.401   .     A
C983   C991    1.405   .     A
C983   H1018   1.084   .     S
C984   H999    1.109   .     S
C984   H1001   1.110   .     S
C985   C990    1.411   .     A
C985   H997    1.075   .     S
C986   C987    1.525   .     S
C986   H1006   1.106   .     S
C986   H1005   1.110   .     S
C987   H1002   1.110   .     S
C987   H1003   1.110   .     S
C987   H1004   1.110   .     S
C988   C994    1.530   .     S
C988   C989    1.529   .     S
C988   H1012   1.112   .     S
C988   H1011   1.102   .     S
C989   H1010   1.110   .     S
C989   H1009   1.108   .     S
C989   H1008   1.111   .     S
C990   C991    1.415   .     A
C990   C992    1.425   .     A
C991   C329    1.393   1_556 S
C992   C327    1.423   1_556 S
C993   C994    1.434   .     A
C994   C995    1.401   .     A
C995   H996    1.085   .     S
H1000  C318    1.102   1_556 S
H1013  C1047   1.086   .     S
H1015  C1198   1.086   .     S
O1020  Zn1033  1.951   .     S
O1020  Zn1036  1.937   .     S
O1020  Zn1034  1.938   .     S
O1020  Zn1035  1.935   .     S
O1021  Zn1034  1.925   .     S
O1022  Zn1036  1.929   .     S
O1023  Zn1035  1.926   .     S
O1024  Zn1033  1.922   .     S
O1025  Zn1033  1.929   .     S
O1026  Zn1036  1.930   .     S
O1027  Zn1034  1.931   .     S
O1028  Zn1035  1.936   .     S
O1029  Zn1036  1.932   .     S
O1030  Zn1033  1.928   .     S
O1031  Zn1034  1.935   .     S
O1032  Zn1035  1.932   .     S
C1037  C1047   1.438   .     S
C1037  O1103   1.269   .     A
C1037  O1101   1.269   .     A
C1038  H1072   1.076   .     S
C1038  C1066   1.412   .     A
C1038  C1039   1.387   .     A
C1039  H1091   1.078   .     S
C1039  C375    1.403   1_556 S
C1040  C1046   1.454   .     S
C1040  O1104   1.276   .     A
C1040  O1102   1.278   .     A
C1041  C1043   1.429   .     A
C1041  C1042   1.419   .     A
C1042  C1045   1.395   .     A
C1042  C1067   1.426   .     A
C1043  C1044   1.424   .     A
C1043  C1058   1.521   .     S
C1044  C1056   1.412   .     A
C1044  C1060   1.526   .     S
C1045  C1056   1.386   .     A
C1045  H1090   1.079   .     S
C1046  C899    1.334   1_655 S
C1046  H933    1.088   1_655 S
C1048  C1057   1.394   .     A
C1048  H1093   1.083   .     S
C1048  C1055   1.399   .     A
C1049  C1052   1.452   .     S
C1049  C1272   1.332   .     S
C1049  H1310   1.088   .     S
C1050  C1051   1.436   .     S
C1051  O1105   1.273   .     A
C1051  O1099   1.273   .     A
C1052  O1106   1.272   .     A
C1052  O1100   1.272   .     A
C1053  C1056   1.460   .     S
C1053  O1097   1.276   .     A
C1053  O1095   1.273   .     A
C1054  C1055   1.475   .     S
C1054  O1098   1.284   .     A
C1054  O1096   1.285   .     A
C1055  C1059   1.401   .     A
C1057  C1065   1.405   .     A
C1057  H1092   1.084   .     S
C1058  H1073   1.109   .     S
C1058  H1075   1.110   .     S
C1059  C1064   1.411   .     A
C1059  H1071   1.075   .     S
C1060  C1061   1.525   .     S
C1060  H1080   1.106   .     S
C1060  H1079   1.110   .     S
C1061  H1076   1.110   .     S
C1061  H1077   1.110   .     S
C1061  H1078   1.110   .     S
C1062  C1068   1.530   .     S
C1062  C1063   1.529   .     S
C1062  H1086   1.112   .     S
C1062  H1085   1.102   .     S
C1063  H1084   1.110   .     S
C1063  H1083   1.108   .     S
C1063  H1082   1.111   .     S
C1064  C1065   1.415   .     A
C1064  C1066   1.425   .     A
C1065  C403    1.393   1_556 S
C1066  C401    1.423   1_556 S
C1067  C1068   1.434   .     A
C1068  C1069   1.401   .     A
C1069  H1070   1.085   .     S
H1074  C392    1.102   1_556 S
H1087  C899    1.086   1_655 S
H1089  C1272   1.086   .     S
O1094  Zn1107  1.951   .     S
O1094  Zn1110  1.937   .     S
O1094  Zn1108  1.938   .     S
O1094  Zn1109  1.935   .     S
O1095  Zn1108  1.925   .     S
O1096  Zn1110  1.929   .     S
O1097  Zn1109  1.926   .     S
O1098  Zn1107  1.922   .     S
O1099  Zn1107  1.929   .     S
O1100  Zn1110  1.930   .     S
O1101  Zn1108  1.931   .     S
O1102  Zn1109  1.936   .     S
O1103  Zn1110  1.932   .     S
O1104  Zn1107  1.928   .     S
O1105  Zn1108  1.935   .     S
O1106  Zn1109  1.932   .     S
C1111  C1121   1.438   .     S
C1111  O1177   1.269   .     A
C1111  O1175   1.269   .     A
C1112  H1146   1.076   .     S
C1112  C1140   1.412   .     A
C1112  C1113   1.387   .     A
C1113  H1165   1.078   .     S
C1113  C449    1.403   1_556 S
C1114  C1120   1.454   .     S
C1114  O1178   1.276   .     A
C1114  O1176   1.278   .     A
C1115  C1117   1.429   .     A
C1115  C1116   1.419   .     A
C1116  C1119   1.395   .     A
C1116  C1141   1.426   .     A
C1117  C1118   1.424   .     A
C1117  C1132   1.521   .     S
C1118  C1130   1.412   .     A
C1118  C1134   1.526   .     S
C1119  C1130   1.386   .     A
C1119  H1164   1.079   .     S
C1120  C1195   1.334   .     S
C1120  H1229   1.088   .     S
C1121  C1268   1.334   1_455 S
C1121  H1309   1.086   1_455 S
C1122  C1131   1.394   .     A
C1122  H1167   1.083   .     S
C1122  C1129   1.399   .     A
C1123  C1126   1.452   .     S
C1123  C680    1.332   1_565 S
C1123  H718    1.088   1_565 S
C1124  C1125   1.436   .     S
C1125  O1179   1.273   .     A
C1125  O1173   1.273   .     A
C1126  O1180   1.272   .     A
C1126  O1174   1.272   .     A
C1127  C1130   1.460   .     S
C1127  O1171   1.276   .     A
C1127  O1169   1.273   .     A
C1128  C1129   1.475   .     S
C1128  O1172   1.284   .     A
C1128  O1170   1.285   .     A
C1129  C1133   1.401   .     A
C1131  C1139   1.405   .     A
C1131  H1166   1.084   .     S
C1132  H1147   1.109   .     S
C1132  H1149   1.110   .     S
C1133  C1138   1.411   .     A
C1133  H1145   1.075   .     S
C1134  C1135   1.525   .     S
C1134  H1154   1.106   .     S
C1134  H1153   1.110   .     S
C1135  H1150   1.110   .     S
C1135  H1151   1.110   .     S
C1135  H1152   1.110   .     S
C1136  C1142   1.530   .     S
C1136  C1137   1.529   .     S
C1136  H1160   1.112   .     S
C1136  H1159   1.102   .     S
C1137  H1158   1.110   .     S
C1137  H1157   1.108   .     S
C1137  H1156   1.111   .     S
C1138  C1139   1.415   .     A
C1138  C1140   1.425   .     A
C1139  C477    1.393   1_556 S
C1140  C475    1.423   1_556 S
C1141  C1142   1.434   .     A
C1142  C1143   1.401   .     A
C1143  H1144   1.085   .     S
H1148  C466    1.102   1_556 S
H1155  C1268   1.088   1_455 S
H1161  C1195   1.086   .     S
H1163  C680    1.086   1_565 S
O1168  Zn1181  1.951   .     S
O1168  Zn1184  1.937   .     S
O1168  Zn1182  1.938   .     S
O1168  Zn1183  1.935   .     S
O1169  Zn1182  1.925   .     S
O1170  Zn1184  1.929   .     S
O1171  Zn1183  1.926   .     S
O1172  Zn1181  1.922   .     S
O1173  Zn1181  1.929   .     S
O1174  Zn1184  1.930   .     S
O1175  Zn1182  1.931   .     S
O1176  Zn1183  1.936   .     S
O1177  Zn1184  1.932   .     S
O1178  Zn1181  1.928   .     S
O1179  Zn1182  1.935   .     S
O1180  Zn1183  1.932   .     S
C1185  C1195   1.438   .     S
C1185  O1251   1.269   .     A
C1185  O1249   1.269   .     A
C1186  H1220   1.076   .     S
C1186  C1214   1.412   .     A
C1186  C1187   1.387   .     A
C1187  H1239   1.078   .     S
C1187  C523    1.403   1_556 S
C1188  C1194   1.454   .     S
C1188  O1252   1.276   .     A
C1188  O1250   1.278   .     A
C1189  C1191   1.429   .     A
C1189  C1190   1.419   .     A
C1190  C1193   1.395   .     A
C1190  C1215   1.426   .     A
C1191  C1192   1.424   .     A
C1191  C1206   1.521   .     S
C1192  C1204   1.412   .     A
C1192  C1208   1.526   .     S
C1193  C1204   1.386   .     A
C1193  H1238   1.079   .     S
C1194  C1269   1.334   .     S
C1194  H1303   1.088   .     S
C1196  C1205   1.394   .     A
C1196  H1241   1.083   .     S
C1196  C1203   1.399   .     A
C1197  C1200   1.452   .     S
C1197  C754    1.332   1_565 S
C1197  H792    1.088   1_565 S
C1198  C1199   1.436   .     S
C1199  O1253   1.273   .     A
C1199  O1247   1.273   .     A
C1200  O1254   1.272   .     A
C1200  O1248   1.272   .     A
C1201  C1204   1.460   .     S
C1201  O1245   1.276   .     A
C1201  O1243   1.273   .     A
C1202  C1203   1.475   .     S
C1202  O1246   1.284   .     A
C1202  O1244   1.285   .     A
C1203  C1207   1.401   .     A
C1205  C1213   1.405   .     A
C1205  H1240   1.084   .     S
C1206  H1221   1.109   .     S
C1206  H1223   1.110   .     S
C1207  C1212   1.411   .     A
C1207  H1219   1.075   .     S
C1208  C1209   1.525   .     S
C1208  H1228   1.106   .     S
C1208  H1227   1.110   .     S
C1209  H1224   1.110   .     S
C1209  H1225   1.110   .     S
C1209  H1226   1.110   .     S
C1210  C1216   1.530   .     S
C1210  C1211   1.529   .     S
C1210  H1234   1.112   .     S
C1210  H1233   1.102   .     S
C1211  H1232   1.110   .     S
C1211  H1231   1.108   .     S
C1211  H1230   1.111   .     S
C1212  C1213   1.415   .     A
C1212  C1214   1.425   .     A
C1213  C551    1.393   1_556 S
C1214  C549    1.423   1_556 S
C1215  C1216   1.434   .     A
C1216  C1217   1.401   .     A
C1217  H1218   1.085   .     S
H1222  C540    1.102   1_556 S
H1235  C1269   1.086   .     S
H1237  C754    1.086   1_565 S
O1242  Zn1255  1.951   .     S
O1242  Zn1258  1.937   .     S
O1242  Zn1256  1.938   .     S
O1242  Zn1257  1.935   .     S
O1243  Zn1256  1.925   .     S
O1244  Zn1258  1.929   .     S
O1245  Zn1257  1.926   .     S
O1246  Zn1255  1.922   .     S
O1247  Zn1255  1.929   .     S
O1248  Zn1258  1.930   .     S
O1249  Zn1256  1.931   .     S
O1250  Zn1257  1.936   .     S
O1251  Zn1258  1.932   .     S
O1252  Zn1255  1.928   .     S
O1253  Zn1256  1.935   .     S
O1254  Zn1257  1.932   .     S
C1259  C1269   1.438   .     S
C1259  O1325   1.269   .     A
C1259  O1323   1.269   .     A
C1260  H1294   1.076   .     S
C1260  C1288   1.412   .     A
C1260  C1261   1.387   .     A
C1261  H1313   1.078   .     S
C1261  C597    1.403   1_556 S
C1262  C1268   1.454   .     S
C1262  O1326   1.276   .     A
C1262  O1324   1.278   .     A
C1263  C1265   1.429   .     A
C1263  C1264   1.419   .     A
C1264  C1267   1.395   .     A
C1264  C1289   1.426   .     A
C1265  C1266   1.424   .     A
C1265  C1280   1.521   .     S
C1266  C1278   1.412   .     A
C1266  C1282   1.526   .     S
C1267  C1278   1.386   .     A
C1267  H1312   1.079   .     S
C1268  C1121   1.334   1_655 S
C1268  H1155   1.088   1_655 S
C1270  C1279   1.394   .     A
C1270  H1315   1.083   .     S
C1270  C1277   1.399   .     A
C1271  C1274   1.452   .     S
C1271  C828    1.332   1_565 S
C1271  H866    1.088   1_565 S
C1272  C1273   1.436   .     S
C1273  O1327   1.273   .     A
C1273  O1321   1.273   .     A
C1274  O1328   1.272   .     A
C1274  O1322   1.272   .     A
C1275  C1278   1.460   .     S
C1275  O1319   1.276   .     A
C1275  O1317   1.273   .     A
C1276  C1277   1.475   .     S
C1276  O1320   1.284   .     A
C1276  O1318   1.285   .     A
C1277  C1281   1.401   .     A
C1279  C1287   1.405   .     A
C1279  H1314   1.084   .     S
C1280  H1295   1.109   .     S
C1280  H1297   1.110   .     S
C1281  C1286   1.411   .     A
C1281  H1293   1.075   .     S
C1282  C1283   1.525   .     S
C1282  H1302   1.106   .     S
C1282  H1301   1.110   .     S
C1283  H1298   1.110   .     S
C1283  H1299   1.110   .     S
C1283  H1300   1.110   .     S
C1284  C1290   1.530   .     S
C1284  C1285   1.529   .     S
C1284  H1308   1.112   .     S
C1284  H1307   1.102   .     S
C1285  H1306   1.110   .     S
C1285  H1305   1.108   .     S
C1285  H1304   1.111   .     S
C1286  C1287   1.415   .     A
C1286  C1288   1.425   .     A
C1287  C625    1.393   1_556 S
C1288  C623    1.423   1_556 S
C1289  C1290   1.434   .     A
C1290  C1291   1.401   .     A
C1291  H1292   1.085   .     S
H1296  C614    1.102   1_556 S
H1309  C1121   1.086   1_655 S
H1311  C828    1.086   1_565 S
O1316  Zn1329  1.951   .     S
O1316  Zn1332  1.937   .     S
O1316  Zn1330  1.938   .     S
O1316  Zn1331  1.935   .     S
O1317  Zn1330  1.925   .     S
O1318  Zn1332  1.929   .     S
O1319  Zn1331  1.926   .     S
O1320  Zn1329  1.922   .     S
O1321  Zn1329  1.929   .     S
O1322  Zn1332  1.930   .     S
O1323  Zn1330  1.931   .     S
O1324  Zn1331  1.936   .     S
O1325  Zn1332  1.932   .     S
O1326  Zn1329  1.928   .     S
O1327  Zn1330  1.935   .     S
O1328  Zn1331  1.932   .     S
