data_str_m1_o10_o16_pcu_sym.36
_audit_creation_date              2020-01-03
_audit_creation_method            'Materials Studio'
_symmetry_space_group_name_H-M    'P1'
_symmetry_Int_Tables_number       1
_symmetry_cell_setting            triclinic
loop_
_symmetry_equiv_pos_as_xyz
  x,y,z
_cell_length_a                    32.5241
_cell_length_b                    32.6629
_cell_length_c                    31.1512
_cell_angle_alpha                 97.0075
_cell_angle_beta                  74.5415
_cell_angle_gamma                 98.5462
loop_
_atom_site_label
_atom_site_type_symbol
_atom_site_fract_x
_atom_site_fract_y
_atom_site_fract_z
_atom_site_U_iso_or_equiv
_atom_site_adp_type
_atom_site_occupancy
C1     C     0.05262   0.15934   0.26055   0.00000  Uiso   1.00
C2     C     0.16853   0.16369   0.06082   0.00000  Uiso   1.00
C3     C     0.21209   0.10880   0.05802   0.00000  Uiso   1.00
C4     C     0.28087   0.17381   0.23980   0.00000  Uiso   1.00
C5     C     0.14309   0.19459   0.41937   0.00000  Uiso   1.00
C6     C     0.32733   0.17639   0.23514   0.00000  Uiso   1.00
C7     C     0.00745   0.15761   0.26383   0.00000  Uiso   1.00
C8     C     0.17914   0.32232   0.23764   0.00000  Uiso   1.00
C9     C     0.15052   0.01261   0.26470   0.00000  Uiso   1.00
C10    C     0.15648   0.05608   0.25970   0.00000  Uiso   1.00
C11    C     0.17625   0.27784   0.24041   0.00000  Uiso   1.00
C12    C     0.14178   0.25014   0.47872   0.00000  Uiso   1.00
C13    C     0.18522   0.14798   0.12952   0.00000  Uiso   1.00
C14    C     0.14794   0.18422   0.37099   0.00000  Uiso   1.00
C15    C     0.20977   0.09542   0.01446   0.00000  Uiso   1.00
C16    C     0.19020   0.14136   0.08157   0.00000  Uiso   1.00
C17    C     0.13529   0.23515   0.43700   0.00000  Uiso   1.00
C18    C     0.11347   0.33104   0.29910   0.00000  Uiso   1.00
C19    C     0.18273   0.05982   0.43097   0.00000  Uiso   1.00
C20    C     0.23282   0.06074   0.49315   0.00000  Uiso   1.00
C21    C     0.13734   0.18955   0.08910   0.00000  Uiso   1.00
C22    C     0.13635   0.29262   0.49549   0.00000  Uiso   1.00
C23    C     0.15577   0.22464   0.00329   0.00000  Uiso   1.00
C24    C     0.15906   0.18215   0.48898   0.00000  Uiso   1.00
C25    C     0.15282   0.16720   0.44633   0.00000  Uiso   1.00
C26    C     0.17165   0.15499   0.01443   0.00000  Uiso   1.00
C27    C     0.18688   0.11682   0.49290   0.00000  Uiso   1.00
C28    C     0.17672   0.10126   0.45193   0.00000  Uiso   1.00
C29    C     0.15718   0.12538   0.43125   0.00000  Uiso   1.00
H30    H     0.22884   0.09207   0.07480   0.00000  Uiso   1.00
H31    H     0.31860   0.14104   0.29054   0.00000  Uiso   1.00
H32    H     0.20578   0.00322   0.21259   0.00000  Uiso   1.00
H33    H     0.12722   0.25619   0.41697   0.00000  Uiso   1.00
H34    H     0.16574   0.23914   0.03253   0.00000  Uiso   1.00
H35    H     0.14626   0.11114   0.40237   0.00000  Uiso   1.00
H36    H     0.00881   0.20911   0.18363   0.00000  Uiso   1.00
N37    N     0.08386   0.31929   0.32661   0.00000  Uiso   1.00
N38    N     0.18734   0.02674   0.41378   0.00000  Uiso   1.00
N39    N     0.25146   0.03301   0.47639   0.00000  Uiso   1.00
N40    N     0.11246   0.20996   0.11180   0.00000  Uiso   1.00
N41    N     0.13189   0.32668   0.00915   0.00000  Uiso   1.00
O42    O     0.16667   0.16667   0.25000   0.00000  Uiso   1.00
O43    O     0.15451   0.12637   0.15458   0.00000  Uiso   1.00
O44    O     0.12940   0.20391   0.34968   0.00000  Uiso   1.00
O45    O     0.20824   0.17759   0.14606   0.00000  Uiso   1.00
O46    O     0.17451   0.15880   0.34968   0.00000  Uiso   1.00
O47    O     0.02397   0.19750   0.20213   0.00000  Uiso   1.00
O48    O     0.17930   0.08019   0.28213   0.00000  Uiso   1.00
O49    O     0.14632   0.26085   0.27013   0.00000  Uiso   1.00
O50    O     0.07412   0.13291   0.23413   0.00000  Uiso   1.00
O51    O     0.26693   0.19272   0.21360   0.00000  Uiso   1.00
O52    O     0.07071   0.18878   0.28213   0.00000  Uiso   1.00
O53    O     0.25491   0.15226   0.27013   0.00000  Uiso   1.00
O54    O     0.13760   0.06944   0.23413   0.00000  Uiso   1.00
O55    O     0.20345   0.25620   0.21360   0.00000  Uiso   1.00
Zn56   Zn    0.19338   0.13994   0.28734   0.00000  Uiso   1.00
Zn57   Zn    0.13379   0.12458   0.21875   0.00000  Uiso   1.00
Zn58   Zn    0.21056   0.19775   0.20657   0.00000  Uiso   1.00
Zn59   Zn    0.12893   0.20439   0.28733   0.00000  Uiso   1.00
C60    C     0.38595   0.15934   0.26055   0.00000  Uiso   1.00
C61    C     0.50187   0.16369   0.06082   0.00000  Uiso   1.00
C62    C     0.54542   0.10880   0.05802   0.00000  Uiso   1.00
C63    C     0.61420   0.17381   0.23980   0.00000  Uiso   1.00
C64    C     0.47642   0.19459   0.41937   0.00000  Uiso   1.00
C65    C     0.66066   0.17639   0.23514   0.00000  Uiso   1.00
C66    C     0.34078   0.15761   0.26383   0.00000  Uiso   1.00
C67    C     0.51248   0.32232   0.23764   0.00000  Uiso   1.00
C68    C     0.48385   0.01261   0.26470   0.00000  Uiso   1.00
C69    C     0.48982   0.05608   0.25970   0.00000  Uiso   1.00
C70    C     0.50958   0.27784   0.24041   0.00000  Uiso   1.00
C71    C     0.47512   0.25014   0.47872   0.00000  Uiso   1.00
C72    C     0.51855   0.14798   0.12952   0.00000  Uiso   1.00
C73    C     0.48127   0.18422   0.37099   0.00000  Uiso   1.00
C74    C     0.54311   0.09542   0.01446   0.00000  Uiso   1.00
C75    C     0.52353   0.14136   0.08157   0.00000  Uiso   1.00
C76    C     0.46862   0.23515   0.43700   0.00000  Uiso   1.00
C77    C     0.44681   0.33104   0.29910   0.00000  Uiso   1.00
C78    C     0.51606   0.05982   0.43097   0.00000  Uiso   1.00
C79    C     0.56616   0.06074   0.49315   0.00000  Uiso   1.00
C80    C     0.47068   0.18955   0.08910   0.00000  Uiso   1.00
C81    C     0.46968   0.29262   0.49549   0.00000  Uiso   1.00
C82    C     0.48910   0.22464   0.00329   0.00000  Uiso   1.00
C83    C     0.49239   0.18215   0.48898   0.00000  Uiso   1.00
C84    C     0.48615   0.16720   0.44633   0.00000  Uiso   1.00
C85    C     0.50498   0.15499   0.01443   0.00000  Uiso   1.00
C86    C     0.52021   0.11682   0.49290   0.00000  Uiso   1.00
C87    C     0.51006   0.10126   0.45193   0.00000  Uiso   1.00
C88    C     0.49051   0.12538   0.43125   0.00000  Uiso   1.00
H89    H     0.56218   0.09207   0.07480   0.00000  Uiso   1.00
H90    H     0.65193   0.14104   0.29054   0.00000  Uiso   1.00
H91    H     0.53912   0.00322   0.21259   0.00000  Uiso   1.00
H92    H     0.46056   0.25619   0.41697   0.00000  Uiso   1.00
H93    H     0.49908   0.23914   0.03253   0.00000  Uiso   1.00
H94    H     0.47959   0.11114   0.40237   0.00000  Uiso   1.00
H95    H     0.34214   0.20911   0.18363   0.00000  Uiso   1.00
N96    N     0.41719   0.31929   0.32661   0.00000  Uiso   1.00
N97    N     0.52068   0.02674   0.41378   0.00000  Uiso   1.00
N98    N     0.58479   0.03301   0.47639   0.00000  Uiso   1.00
N99    N     0.44579   0.20996   0.11180   0.00000  Uiso   1.00
N100   N     0.46522   0.32668   0.00915   0.00000  Uiso   1.00
O101   O     0.50000   0.16667   0.25000   0.00000  Uiso   1.00
O102   O     0.48784   0.12637   0.15458   0.00000  Uiso   1.00
O103   O     0.46274   0.20391   0.34968   0.00000  Uiso   1.00
O104   O     0.54157   0.17759   0.14606   0.00000  Uiso   1.00
O105   O     0.50785   0.15880   0.34968   0.00000  Uiso   1.00
O106   O     0.35730   0.19750   0.20213   0.00000  Uiso   1.00
O107   O     0.51264   0.08019   0.28213   0.00000  Uiso   1.00
O108   O     0.47965   0.26085   0.27013   0.00000  Uiso   1.00
O109   O     0.40745   0.13291   0.23413   0.00000  Uiso   1.00
O110   O     0.60026   0.19272   0.21360   0.00000  Uiso   1.00
O111   O     0.40405   0.18878   0.28213   0.00000  Uiso   1.00
O112   O     0.58824   0.15226   0.27013   0.00000  Uiso   1.00
O113   O     0.47093   0.06944   0.23413   0.00000  Uiso   1.00
O114   O     0.53678   0.25620   0.21360   0.00000  Uiso   1.00
Zn115  Zn    0.52672   0.13994   0.28734   0.00000  Uiso   1.00
Zn116  Zn    0.46713   0.12458   0.21875   0.00000  Uiso   1.00
Zn117  Zn    0.54389   0.19775   0.20657   0.00000  Uiso   1.00
Zn118  Zn    0.46226   0.20439   0.28733   0.00000  Uiso   1.00
C119   C     0.71928   0.15934   0.26055   0.00000  Uiso   1.00
C120   C     0.83520   0.16369   0.06082   0.00000  Uiso   1.00
C121   C     0.87875   0.10880   0.05802   0.00000  Uiso   1.00
C122   C     0.94754   0.17381   0.23980   0.00000  Uiso   1.00
C123   C     0.80976   0.19459   0.41937   0.00000  Uiso   1.00
C124   C     0.99400   0.17639   0.23514   0.00000  Uiso   1.00
C125   C     0.67411   0.15761   0.26383   0.00000  Uiso   1.00
C126   C     0.84581   0.32232   0.23764   0.00000  Uiso   1.00
C127   C     0.81718   0.01261   0.26470   0.00000  Uiso   1.00
C128   C     0.82315   0.05608   0.25970   0.00000  Uiso   1.00
C129   C     0.84291   0.27784   0.24041   0.00000  Uiso   1.00
C130   C     0.80845   0.25014   0.47872   0.00000  Uiso   1.00
C131   C     0.85189   0.14798   0.12952   0.00000  Uiso   1.00
C132   C     0.81460   0.18422   0.37099   0.00000  Uiso   1.00
C133   C     0.87644   0.09542   0.01446   0.00000  Uiso   1.00
C134   C     0.85687   0.14136   0.08157   0.00000  Uiso   1.00
C135   C     0.80195   0.23515   0.43700   0.00000  Uiso   1.00
C136   C     0.78014   0.33104   0.29910   0.00000  Uiso   1.00
C137   C     0.84940   0.05982   0.43097   0.00000  Uiso   1.00
C138   C     0.89949   0.06074   0.49315   0.00000  Uiso   1.00
C139   C     0.80401   0.18955   0.08910   0.00000  Uiso   1.00
C140   C     0.80301   0.29262   0.49549   0.00000  Uiso   1.00
C141   C     0.82244   0.22464   0.00329   0.00000  Uiso   1.00
C142   C     0.82573   0.18215   0.48898   0.00000  Uiso   1.00
C143   C     0.81949   0.16720   0.44633   0.00000  Uiso   1.00
C144   C     0.83831   0.15499   0.01443   0.00000  Uiso   1.00
C145   C     0.85355   0.11682   0.49290   0.00000  Uiso   1.00
C146   C     0.84339   0.10126   0.45193   0.00000  Uiso   1.00
C147   C     0.82385   0.12538   0.43125   0.00000  Uiso   1.00
H148   H     0.89551   0.09207   0.07480   0.00000  Uiso   1.00
H149   H     0.98526   0.14104   0.29054   0.00000  Uiso   1.00
H150   H     0.87245   0.00322   0.21259   0.00000  Uiso   1.00
H151   H     0.79389   0.25619   0.41697   0.00000  Uiso   1.00
H152   H     0.83241   0.23914   0.03253   0.00000  Uiso   1.00
H153   H     0.81292   0.11114   0.40237   0.00000  Uiso   1.00
H154   H     0.67548   0.20911   0.18363   0.00000  Uiso   1.00
N155   N     0.75053   0.31929   0.32661   0.00000  Uiso   1.00
N156   N     0.85401   0.02674   0.41378   0.00000  Uiso   1.00
N157   N     0.91813   0.03301   0.47639   0.00000  Uiso   1.00
N158   N     0.77912   0.20996   0.11180   0.00000  Uiso   1.00
N159   N     0.79855   0.32668   0.00915   0.00000  Uiso   1.00
O160   O     0.83333   0.16667   0.25000   0.00000  Uiso   1.00
O161   O     0.82118   0.12637   0.15458   0.00000  Uiso   1.00
O162   O     0.79607   0.20391   0.34968   0.00000  Uiso   1.00
O163   O     0.87491   0.17759   0.14606   0.00000  Uiso   1.00
O164   O     0.84118   0.15880   0.34968   0.00000  Uiso   1.00
O165   O     0.69063   0.19750   0.20213   0.00000  Uiso   1.00
O166   O     0.84597   0.08019   0.28213   0.00000  Uiso   1.00
O167   O     0.81298   0.26085   0.27013   0.00000  Uiso   1.00
O168   O     0.74078   0.13291   0.23413   0.00000  Uiso   1.00
O169   O     0.93360   0.19272   0.21360   0.00000  Uiso   1.00
O170   O     0.73738   0.18878   0.28213   0.00000  Uiso   1.00
O171   O     0.92158   0.15226   0.27013   0.00000  Uiso   1.00
O172   O     0.80426   0.06944   0.23413   0.00000  Uiso   1.00
O173   O     0.87012   0.25620   0.21360   0.00000  Uiso   1.00
Zn174  Zn    0.86005   0.13994   0.28734   0.00000  Uiso   1.00
Zn175  Zn    0.80046   0.12458   0.21875   0.00000  Uiso   1.00
Zn176  Zn    0.87723   0.19775   0.20657   0.00000  Uiso   1.00
Zn177  Zn    0.79560   0.20439   0.28733   0.00000  Uiso   1.00
C178   C     0.05262   0.49267   0.26055   0.00000  Uiso   1.00
C179   C     0.16853   0.49703   0.06082   0.00000  Uiso   1.00
C180   C     0.21209   0.44213   0.05802   0.00000  Uiso   1.00
C181   C     0.28087   0.50714   0.23980   0.00000  Uiso   1.00
C182   C     0.14309   0.52792   0.41937   0.00000  Uiso   1.00
C183   C     0.32733   0.50973   0.23514   0.00000  Uiso   1.00
C184   C     0.00745   0.49094   0.26383   0.00000  Uiso   1.00
C185   C     0.17914   0.65566   0.23764   0.00000  Uiso   1.00
C186   C     0.15052   0.34595   0.26470   0.00000  Uiso   1.00
C187   C     0.15648   0.38942   0.25970   0.00000  Uiso   1.00
C188   C     0.17625   0.61118   0.24041   0.00000  Uiso   1.00
C189   C     0.14178   0.58347   0.47872   0.00000  Uiso   1.00
C190   C     0.18522   0.48131   0.12952   0.00000  Uiso   1.00
C191   C     0.14794   0.51755   0.37099   0.00000  Uiso   1.00
C192   C     0.20977   0.42876   0.01446   0.00000  Uiso   1.00
C193   C     0.19020   0.47469   0.08157   0.00000  Uiso   1.00
C194   C     0.13529   0.56848   0.43700   0.00000  Uiso   1.00
C195   C     0.11347   0.66437   0.29910   0.00000  Uiso   1.00
C196   C     0.18273   0.39315   0.43097   0.00000  Uiso   1.00
C197   C     0.23282   0.39408   0.49315   0.00000  Uiso   1.00
C198   C     0.13734   0.52288   0.08910   0.00000  Uiso   1.00
C199   C     0.13635   0.62595   0.49549   0.00000  Uiso   1.00
C200   C     0.15577   0.55798   0.00329   0.00000  Uiso   1.00
C201   C     0.15906   0.51549   0.48898   0.00000  Uiso   1.00
C202   C     0.15282   0.50053   0.44633   0.00000  Uiso   1.00
C203   C     0.17165   0.48832   0.01443   0.00000  Uiso   1.00
C204   C     0.18688   0.45015   0.49290   0.00000  Uiso   1.00
C205   C     0.17672   0.43460   0.45193   0.00000  Uiso   1.00
C206   C     0.15718   0.45872   0.43125   0.00000  Uiso   1.00
H207   H     0.22884   0.42540   0.07480   0.00000  Uiso   1.00
H208   H     0.31860   0.47437   0.29054   0.00000  Uiso   1.00
H209   H     0.20578   0.33655   0.21259   0.00000  Uiso   1.00
H210   H     0.12722   0.58952   0.41697   0.00000  Uiso   1.00
H211   H     0.16574   0.57248   0.03253   0.00000  Uiso   1.00
H212   H     0.14626   0.44447   0.40237   0.00000  Uiso   1.00
H213   H     0.00881   0.54245   0.18363   0.00000  Uiso   1.00
N214   N     0.08386   0.65262   0.32661   0.00000  Uiso   1.00
N215   N     0.18734   0.36008   0.41378   0.00000  Uiso   1.00
N216   N     0.25146   0.36634   0.47639   0.00000  Uiso   1.00
N217   N     0.11246   0.54330   0.11180   0.00000  Uiso   1.00
N218   N     0.13189   0.66001   0.00915   0.00000  Uiso   1.00
O219   O     0.16667   0.50000   0.25000   0.00000  Uiso   1.00
O220   O     0.15451   0.45970   0.15458   0.00000  Uiso   1.00
O221   O     0.12940   0.53724   0.34968   0.00000  Uiso   1.00
O222   O     0.20824   0.51092   0.14606   0.00000  Uiso   1.00
O223   O     0.17451   0.49213   0.34968   0.00000  Uiso   1.00
O224   O     0.02397   0.53083   0.20213   0.00000  Uiso   1.00
O225   O     0.17930   0.41352   0.28213   0.00000  Uiso   1.00
O226   O     0.14632   0.59418   0.27013   0.00000  Uiso   1.00
O227   O     0.07412   0.46625   0.23413   0.00000  Uiso   1.00
O228   O     0.26693   0.52605   0.21360   0.00000  Uiso   1.00
O229   O     0.07071   0.52211   0.28213   0.00000  Uiso   1.00
O230   O     0.25491   0.48559   0.27013   0.00000  Uiso   1.00
O231   O     0.13760   0.40277   0.23413   0.00000  Uiso   1.00
O232   O     0.20345   0.58953   0.21360   0.00000  Uiso   1.00
Zn233  Zn    0.19338   0.47327   0.28734   0.00000  Uiso   1.00
Zn234  Zn    0.13379   0.45791   0.21875   0.00000  Uiso   1.00
Zn235  Zn    0.21056   0.53109   0.20657   0.00000  Uiso   1.00
Zn236  Zn    0.12893   0.53773   0.28733   0.00000  Uiso   1.00
C237   C     0.38595   0.49267   0.26055   0.00000  Uiso   1.00
C238   C     0.50187   0.49703   0.06082   0.00000  Uiso   1.00
C239   C     0.54542   0.44213   0.05802   0.00000  Uiso   1.00
C240   C     0.61420   0.50714   0.23980   0.00000  Uiso   1.00
C241   C     0.47642   0.52792   0.41937   0.00000  Uiso   1.00
C242   C     0.66066   0.50973   0.23514   0.00000  Uiso   1.00
C243   C     0.34078   0.49094   0.26383   0.00000  Uiso   1.00
C244   C     0.51248   0.65566   0.23764   0.00000  Uiso   1.00
C245   C     0.48385   0.34595   0.26470   0.00000  Uiso   1.00
C246   C     0.48982   0.38942   0.25970   0.00000  Uiso   1.00
C247   C     0.50958   0.61118   0.24041   0.00000  Uiso   1.00
C248   C     0.47512   0.58347   0.47872   0.00000  Uiso   1.00
C249   C     0.51855   0.48131   0.12952   0.00000  Uiso   1.00
C250   C     0.48127   0.51755   0.37099   0.00000  Uiso   1.00
C251   C     0.54311   0.42876   0.01446   0.00000  Uiso   1.00
C252   C     0.52353   0.47469   0.08157   0.00000  Uiso   1.00
C253   C     0.46862   0.56848   0.43700   0.00000  Uiso   1.00
C254   C     0.44681   0.66437   0.29910   0.00000  Uiso   1.00
C255   C     0.51606   0.39315   0.43097   0.00000  Uiso   1.00
C256   C     0.56616   0.39408   0.49315   0.00000  Uiso   1.00
C257   C     0.47068   0.52288   0.08910   0.00000  Uiso   1.00
C258   C     0.46968   0.62595   0.49549   0.00000  Uiso   1.00
C259   C     0.48910   0.55798   0.00329   0.00000  Uiso   1.00
C260   C     0.49239   0.51549   0.48898   0.00000  Uiso   1.00
C261   C     0.48615   0.50053   0.44633   0.00000  Uiso   1.00
C262   C     0.50498   0.48832   0.01443   0.00000  Uiso   1.00
C263   C     0.52021   0.45015   0.49290   0.00000  Uiso   1.00
C264   C     0.51006   0.43460   0.45193   0.00000  Uiso   1.00
C265   C     0.49051   0.45872   0.43125   0.00000  Uiso   1.00
H266   H     0.56218   0.42540   0.07480   0.00000  Uiso   1.00
H267   H     0.65193   0.47437   0.29054   0.00000  Uiso   1.00
H268   H     0.53912   0.33655   0.21259   0.00000  Uiso   1.00
H269   H     0.46056   0.58952   0.41697   0.00000  Uiso   1.00
H270   H     0.49908   0.57248   0.03253   0.00000  Uiso   1.00
H271   H     0.47959   0.44447   0.40237   0.00000  Uiso   1.00
H272   H     0.34214   0.54245   0.18363   0.00000  Uiso   1.00
N273   N     0.41719   0.65262   0.32661   0.00000  Uiso   1.00
N274   N     0.52068   0.36008   0.41378   0.00000  Uiso   1.00
N275   N     0.58479   0.36634   0.47639   0.00000  Uiso   1.00
N276   N     0.44579   0.54330   0.11180   0.00000  Uiso   1.00
N277   N     0.46522   0.66001   0.00915   0.00000  Uiso   1.00
O278   O     0.50000   0.50000   0.25000   0.00000  Uiso   1.00
O279   O     0.48784   0.45970   0.15458   0.00000  Uiso   1.00
O280   O     0.46274   0.53724   0.34968   0.00000  Uiso   1.00
O281   O     0.54157   0.51092   0.14606   0.00000  Uiso   1.00
O282   O     0.50785   0.49213   0.34968   0.00000  Uiso   1.00
O283   O     0.35730   0.53083   0.20213   0.00000  Uiso   1.00
O284   O     0.51264   0.41352   0.28213   0.00000  Uiso   1.00
O285   O     0.47965   0.59418   0.27013   0.00000  Uiso   1.00
O286   O     0.40745   0.46625   0.23413   0.00000  Uiso   1.00
O287   O     0.60026   0.52605   0.21360   0.00000  Uiso   1.00
O288   O     0.40405   0.52211   0.28213   0.00000  Uiso   1.00
O289   O     0.58824   0.48559   0.27013   0.00000  Uiso   1.00
O290   O     0.47093   0.40277   0.23413   0.00000  Uiso   1.00
O291   O     0.53678   0.58953   0.21360   0.00000  Uiso   1.00
Zn292  Zn    0.52672   0.47327   0.28734   0.00000  Uiso   1.00
Zn293  Zn    0.46713   0.45791   0.21875   0.00000  Uiso   1.00
Zn294  Zn    0.54389   0.53109   0.20657   0.00000  Uiso   1.00
Zn295  Zn    0.46226   0.53773   0.28733   0.00000  Uiso   1.00
C296   C     0.71928   0.49267   0.26055   0.00000  Uiso   1.00
C297   C     0.83520   0.49703   0.06082   0.00000  Uiso   1.00
C298   C     0.87875   0.44213   0.05802   0.00000  Uiso   1.00
C299   C     0.94754   0.50714   0.23980   0.00000  Uiso   1.00
C300   C     0.80976   0.52792   0.41937   0.00000  Uiso   1.00
C301   C     0.99400   0.50973   0.23514   0.00000  Uiso   1.00
C302   C     0.67411   0.49094   0.26383   0.00000  Uiso   1.00
C303   C     0.84581   0.65566   0.23764   0.00000  Uiso   1.00
C304   C     0.81718   0.34595   0.26470   0.00000  Uiso   1.00
C305   C     0.82315   0.38942   0.25970   0.00000  Uiso   1.00
C306   C     0.84291   0.61118   0.24041   0.00000  Uiso   1.00
C307   C     0.80845   0.58347   0.47872   0.00000  Uiso   1.00
C308   C     0.85189   0.48131   0.12952   0.00000  Uiso   1.00
C309   C     0.81460   0.51755   0.37099   0.00000  Uiso   1.00
C310   C     0.87644   0.42876   0.01446   0.00000  Uiso   1.00
C311   C     0.85687   0.47469   0.08157   0.00000  Uiso   1.00
C312   C     0.80195   0.56848   0.43700   0.00000  Uiso   1.00
C313   C     0.78014   0.66437   0.29910   0.00000  Uiso   1.00
C314   C     0.84940   0.39315   0.43097   0.00000  Uiso   1.00
C315   C     0.89949   0.39408   0.49315   0.00000  Uiso   1.00
C316   C     0.80401   0.52288   0.08910   0.00000  Uiso   1.00
C317   C     0.80301   0.62595   0.49549   0.00000  Uiso   1.00
C318   C     0.82244   0.55798   0.00329   0.00000  Uiso   1.00
C319   C     0.82573   0.51549   0.48898   0.00000  Uiso   1.00
C320   C     0.81949   0.50053   0.44633   0.00000  Uiso   1.00
C321   C     0.83831   0.48832   0.01443   0.00000  Uiso   1.00
C322   C     0.85355   0.45015   0.49290   0.00000  Uiso   1.00
C323   C     0.84339   0.43460   0.45193   0.00000  Uiso   1.00
C324   C     0.82385   0.45872   0.43125   0.00000  Uiso   1.00
H325   H     0.89551   0.42540   0.07480   0.00000  Uiso   1.00
H326   H     0.98526   0.47437   0.29054   0.00000  Uiso   1.00
H327   H     0.87245   0.33655   0.21259   0.00000  Uiso   1.00
H328   H     0.79389   0.58952   0.41697   0.00000  Uiso   1.00
H329   H     0.83241   0.57248   0.03253   0.00000  Uiso   1.00
H330   H     0.81292   0.44447   0.40237   0.00000  Uiso   1.00
H331   H     0.67548   0.54245   0.18363   0.00000  Uiso   1.00
N332   N     0.75053   0.65262   0.32661   0.00000  Uiso   1.00
N333   N     0.85401   0.36008   0.41378   0.00000  Uiso   1.00
N334   N     0.91813   0.36634   0.47639   0.00000  Uiso   1.00
N335   N     0.77912   0.54330   0.11180   0.00000  Uiso   1.00
N336   N     0.79855   0.66001   0.00915   0.00000  Uiso   1.00
O337   O     0.83333   0.50000   0.25000   0.00000  Uiso   1.00
O338   O     0.82118   0.45970   0.15458   0.00000  Uiso   1.00
O339   O     0.79607   0.53724   0.34968   0.00000  Uiso   1.00
O340   O     0.87491   0.51092   0.14606   0.00000  Uiso   1.00
O341   O     0.84118   0.49213   0.34968   0.00000  Uiso   1.00
O342   O     0.69063   0.53083   0.20213   0.00000  Uiso   1.00
O343   O     0.84597   0.41352   0.28213   0.00000  Uiso   1.00
O344   O     0.81298   0.59418   0.27013   0.00000  Uiso   1.00
O345   O     0.74078   0.46625   0.23413   0.00000  Uiso   1.00
O346   O     0.93360   0.52605   0.21360   0.00000  Uiso   1.00
O347   O     0.73738   0.52211   0.28213   0.00000  Uiso   1.00
O348   O     0.92158   0.48559   0.27013   0.00000  Uiso   1.00
O349   O     0.80426   0.40277   0.23413   0.00000  Uiso   1.00
O350   O     0.87012   0.58953   0.21360   0.00000  Uiso   1.00
Zn351  Zn    0.86005   0.47327   0.28734   0.00000  Uiso   1.00
Zn352  Zn    0.80046   0.45791   0.21875   0.00000  Uiso   1.00
Zn353  Zn    0.87723   0.53109   0.20657   0.00000  Uiso   1.00
Zn354  Zn    0.79560   0.53773   0.28733   0.00000  Uiso   1.00
C355   C     0.05262   0.82600   0.26055   0.00000  Uiso   1.00
C356   C     0.16853   0.83036   0.06082   0.00000  Uiso   1.00
C357   C     0.21209   0.77546   0.05802   0.00000  Uiso   1.00
C358   C     0.28087   0.84047   0.23980   0.00000  Uiso   1.00
C359   C     0.14309   0.86126   0.41937   0.00000  Uiso   1.00
C360   C     0.32733   0.84306   0.23514   0.00000  Uiso   1.00
C361   C     0.00745   0.82427   0.26383   0.00000  Uiso   1.00
C362   C     0.17914   0.98899   0.23764   0.00000  Uiso   1.00
C363   C     0.15052   0.67928   0.26470   0.00000  Uiso   1.00
C364   C     0.15648   0.72275   0.25970   0.00000  Uiso   1.00
C365   C     0.17625   0.94451   0.24041   0.00000  Uiso   1.00
C366   C     0.14178   0.91680   0.47872   0.00000  Uiso   1.00
C367   C     0.18522   0.81465   0.12952   0.00000  Uiso   1.00
C368   C     0.14794   0.85088   0.37099   0.00000  Uiso   1.00
C369   C     0.20977   0.76209   0.01446   0.00000  Uiso   1.00
C370   C     0.19020   0.80802   0.08157   0.00000  Uiso   1.00
C371   C     0.13529   0.90181   0.43700   0.00000  Uiso   1.00
C372   C     0.11347   0.99770   0.29910   0.00000  Uiso   1.00
C373   C     0.18273   0.72648   0.43097   0.00000  Uiso   1.00
C374   C     0.23282   0.72741   0.49315   0.00000  Uiso   1.00
C375   C     0.13734   0.85621   0.08910   0.00000  Uiso   1.00
C376   C     0.13635   0.95928   0.49549   0.00000  Uiso   1.00
C377   C     0.15577   0.89131   0.00329   0.00000  Uiso   1.00
C378   C     0.15906   0.84882   0.48898   0.00000  Uiso   1.00
C379   C     0.15282   0.83386   0.44633   0.00000  Uiso   1.00
C380   C     0.17165   0.82166   0.01443   0.00000  Uiso   1.00
C381   C     0.18688   0.78349   0.49290   0.00000  Uiso   1.00
C382   C     0.17672   0.76793   0.45193   0.00000  Uiso   1.00
C383   C     0.15718   0.79205   0.43125   0.00000  Uiso   1.00
H384   H     0.22884   0.75873   0.07480   0.00000  Uiso   1.00
H385   H     0.31860   0.80770   0.29054   0.00000  Uiso   1.00
H386   H     0.20578   0.66989   0.21259   0.00000  Uiso   1.00
H387   H     0.12722   0.92286   0.41697   0.00000  Uiso   1.00
H388   H     0.16574   0.90581   0.03253   0.00000  Uiso   1.00
H389   H     0.14626   0.77780   0.40237   0.00000  Uiso   1.00
H390   H     0.00881   0.87578   0.18363   0.00000  Uiso   1.00
N391   N     0.08386   0.98596   0.32661   0.00000  Uiso   1.00
N392   N     0.18734   0.69341   0.41378   0.00000  Uiso   1.00
N393   N     0.25146   0.69967   0.47639   0.00000  Uiso   1.00
N394   N     0.11246   0.87663   0.11180   0.00000  Uiso   1.00
N395   N     0.13189   0.99334   0.00915   0.00000  Uiso   1.00
O396   O     0.16667   0.83333   0.25000   0.00000  Uiso   1.00
O397   O     0.15451   0.79304   0.15458   0.00000  Uiso   1.00
O398   O     0.12940   0.87058   0.34968   0.00000  Uiso   1.00
O399   O     0.20824   0.84425   0.14606   0.00000  Uiso   1.00
O400   O     0.17451   0.82546   0.34968   0.00000  Uiso   1.00
O401   O     0.02397   0.86416   0.20213   0.00000  Uiso   1.00
O402   O     0.17930   0.74686   0.28213   0.00000  Uiso   1.00
O403   O     0.14632   0.92751   0.27013   0.00000  Uiso   1.00
O404   O     0.07412   0.79958   0.23413   0.00000  Uiso   1.00
O405   O     0.26693   0.85939   0.21360   0.00000  Uiso   1.00
O406   O     0.07071   0.85544   0.28213   0.00000  Uiso   1.00
O407   O     0.25491   0.81892   0.27013   0.00000  Uiso   1.00
O408   O     0.13760   0.73610   0.23413   0.00000  Uiso   1.00
O409   O     0.20345   0.92286   0.21360   0.00000  Uiso   1.00
Zn410  Zn    0.19338   0.80661   0.28734   0.00000  Uiso   1.00
Zn411  Zn    0.13379   0.79124   0.21875   0.00000  Uiso   1.00
Zn412  Zn    0.21056   0.86442   0.20657   0.00000  Uiso   1.00
Zn413  Zn    0.12893   0.87106   0.28733   0.00000  Uiso   1.00
C414   C     0.38595   0.82600   0.26055   0.00000  Uiso   1.00
C415   C     0.50187   0.83036   0.06082   0.00000  Uiso   1.00
C416   C     0.54542   0.77546   0.05802   0.00000  Uiso   1.00
C417   C     0.61420   0.84047   0.23980   0.00000  Uiso   1.00
C418   C     0.47642   0.86126   0.41937   0.00000  Uiso   1.00
C419   C     0.66066   0.84306   0.23514   0.00000  Uiso   1.00
C420   C     0.34078   0.82427   0.26383   0.00000  Uiso   1.00
C421   C     0.51248   0.98899   0.23764   0.00000  Uiso   1.00
C422   C     0.48385   0.67928   0.26470   0.00000  Uiso   1.00
C423   C     0.48982   0.72275   0.25970   0.00000  Uiso   1.00
C424   C     0.50958   0.94451   0.24041   0.00000  Uiso   1.00
C425   C     0.47512   0.91680   0.47872   0.00000  Uiso   1.00
C426   C     0.51855   0.81465   0.12952   0.00000  Uiso   1.00
C427   C     0.48127   0.85088   0.37099   0.00000  Uiso   1.00
C428   C     0.54311   0.76209   0.01446   0.00000  Uiso   1.00
C429   C     0.52353   0.80802   0.08157   0.00000  Uiso   1.00
C430   C     0.46862   0.90181   0.43700   0.00000  Uiso   1.00
C431   C     0.44681   0.99770   0.29910   0.00000  Uiso   1.00
C432   C     0.51606   0.72648   0.43097   0.00000  Uiso   1.00
C433   C     0.56616   0.72741   0.49315   0.00000  Uiso   1.00
C434   C     0.47068   0.85621   0.08910   0.00000  Uiso   1.00
C435   C     0.46968   0.95928   0.49549   0.00000  Uiso   1.00
C436   C     0.48910   0.89131   0.00329   0.00000  Uiso   1.00
C437   C     0.49239   0.84882   0.48898   0.00000  Uiso   1.00
C438   C     0.48615   0.83386   0.44633   0.00000  Uiso   1.00
C439   C     0.50498   0.82166   0.01443   0.00000  Uiso   1.00
C440   C     0.52021   0.78349   0.49290   0.00000  Uiso   1.00
C441   C     0.51006   0.76793   0.45193   0.00000  Uiso   1.00
C442   C     0.49051   0.79205   0.43125   0.00000  Uiso   1.00
H443   H     0.56218   0.75873   0.07480   0.00000  Uiso   1.00
H444   H     0.65193   0.80770   0.29054   0.00000  Uiso   1.00
H445   H     0.53912   0.66989   0.21259   0.00000  Uiso   1.00
H446   H     0.46056   0.92286   0.41697   0.00000  Uiso   1.00
H447   H     0.49908   0.90581   0.03253   0.00000  Uiso   1.00
H448   H     0.47959   0.77780   0.40237   0.00000  Uiso   1.00
H449   H     0.34214   0.87578   0.18363   0.00000  Uiso   1.00
N450   N     0.41719   0.98596   0.32661   0.00000  Uiso   1.00
N451   N     0.52068   0.69341   0.41378   0.00000  Uiso   1.00
N452   N     0.58479   0.69967   0.47639   0.00000  Uiso   1.00
N453   N     0.44579   0.87663   0.11180   0.00000  Uiso   1.00
N454   N     0.46522   0.99334   0.00915   0.00000  Uiso   1.00
O455   O     0.50000   0.83333   0.25000   0.00000  Uiso   1.00
O456   O     0.48784   0.79304   0.15458   0.00000  Uiso   1.00
O457   O     0.46274   0.87058   0.34968   0.00000  Uiso   1.00
O458   O     0.54157   0.84425   0.14606   0.00000  Uiso   1.00
O459   O     0.50785   0.82546   0.34968   0.00000  Uiso   1.00
O460   O     0.35730   0.86416   0.20213   0.00000  Uiso   1.00
O461   O     0.51264   0.74686   0.28213   0.00000  Uiso   1.00
O462   O     0.47965   0.92751   0.27013   0.00000  Uiso   1.00
O463   O     0.40745   0.79958   0.23413   0.00000  Uiso   1.00
O464   O     0.60026   0.85939   0.21360   0.00000  Uiso   1.00
O465   O     0.40405   0.85544   0.28213   0.00000  Uiso   1.00
O466   O     0.58824   0.81892   0.27013   0.00000  Uiso   1.00
O467   O     0.47093   0.73610   0.23413   0.00000  Uiso   1.00
O468   O     0.53678   0.92286   0.21360   0.00000  Uiso   1.00
Zn469  Zn    0.52672   0.80661   0.28734   0.00000  Uiso   1.00
Zn470  Zn    0.46713   0.79124   0.21875   0.00000  Uiso   1.00
Zn471  Zn    0.54389   0.86442   0.20657   0.00000  Uiso   1.00
Zn472  Zn    0.46226   0.87106   0.28733   0.00000  Uiso   1.00
C473   C     0.71928   0.82600   0.26055   0.00000  Uiso   1.00
C474   C     0.83520   0.83036   0.06082   0.00000  Uiso   1.00
C475   C     0.87875   0.77546   0.05802   0.00000  Uiso   1.00
C476   C     0.94754   0.84047   0.23980   0.00000  Uiso   1.00
C477   C     0.80976   0.86126   0.41937   0.00000  Uiso   1.00
C478   C     0.99400   0.84306   0.23514   0.00000  Uiso   1.00
C479   C     0.67411   0.82427   0.26383   0.00000  Uiso   1.00
C480   C     0.84581   0.98899   0.23764   0.00000  Uiso   1.00
C481   C     0.81718   0.67928   0.26470   0.00000  Uiso   1.00
C482   C     0.82315   0.72275   0.25970   0.00000  Uiso   1.00
C483   C     0.84291   0.94451   0.24041   0.00000  Uiso   1.00
C484   C     0.80845   0.91680   0.47872   0.00000  Uiso   1.00
C485   C     0.85189   0.81465   0.12952   0.00000  Uiso   1.00
C486   C     0.81460   0.85088   0.37099   0.00000  Uiso   1.00
C487   C     0.87644   0.76209   0.01446   0.00000  Uiso   1.00
C488   C     0.85687   0.80802   0.08157   0.00000  Uiso   1.00
C489   C     0.80195   0.90181   0.43700   0.00000  Uiso   1.00
C490   C     0.78014   0.99770   0.29910   0.00000  Uiso   1.00
C491   C     0.84940   0.72648   0.43097   0.00000  Uiso   1.00
C492   C     0.89949   0.72741   0.49315   0.00000  Uiso   1.00
C493   C     0.80401   0.85621   0.08910   0.00000  Uiso   1.00
C494   C     0.80301   0.95928   0.49549   0.00000  Uiso   1.00
C495   C     0.82244   0.89131   0.00329   0.00000  Uiso   1.00
C496   C     0.82573   0.84882   0.48898   0.00000  Uiso   1.00
C497   C     0.81949   0.83386   0.44633   0.00000  Uiso   1.00
C498   C     0.83831   0.82166   0.01443   0.00000  Uiso   1.00
C499   C     0.85355   0.78349   0.49290   0.00000  Uiso   1.00
C500   C     0.84339   0.76793   0.45193   0.00000  Uiso   1.00
C501   C     0.82385   0.79205   0.43125   0.00000  Uiso   1.00
H502   H     0.89551   0.75873   0.07480   0.00000  Uiso   1.00
H503   H     0.98526   0.80770   0.29054   0.00000  Uiso   1.00
H504   H     0.87245   0.66989   0.21259   0.00000  Uiso   1.00
H505   H     0.79389   0.92286   0.41697   0.00000  Uiso   1.00
H506   H     0.83241   0.90581   0.03253   0.00000  Uiso   1.00
H507   H     0.81292   0.77780   0.40237   0.00000  Uiso   1.00
H508   H     0.67548   0.87578   0.18363   0.00000  Uiso   1.00
N509   N     0.75053   0.98596   0.32661   0.00000  Uiso   1.00
N510   N     0.85401   0.69341   0.41378   0.00000  Uiso   1.00
N511   N     0.91813   0.69967   0.47639   0.00000  Uiso   1.00
N512   N     0.77912   0.87663   0.11180   0.00000  Uiso   1.00
N513   N     0.79855   0.99334   0.00915   0.00000  Uiso   1.00
O514   O     0.83333   0.83333   0.25000   0.00000  Uiso   1.00
O515   O     0.82118   0.79304   0.15458   0.00000  Uiso   1.00
O516   O     0.79607   0.87058   0.34968   0.00000  Uiso   1.00
O517   O     0.87491   0.84425   0.14606   0.00000  Uiso   1.00
O518   O     0.84118   0.82546   0.34968   0.00000  Uiso   1.00
O519   O     0.69063   0.86416   0.20213   0.00000  Uiso   1.00
O520   O     0.84597   0.74686   0.28213   0.00000  Uiso   1.00
O521   O     0.81298   0.92751   0.27013   0.00000  Uiso   1.00
O522   O     0.74078   0.79958   0.23413   0.00000  Uiso   1.00
O523   O     0.93360   0.85939   0.21360   0.00000  Uiso   1.00
O524   O     0.73738   0.85544   0.28213   0.00000  Uiso   1.00
O525   O     0.92158   0.81892   0.27013   0.00000  Uiso   1.00
O526   O     0.80426   0.73610   0.23413   0.00000  Uiso   1.00
O527   O     0.87012   0.92286   0.21360   0.00000  Uiso   1.00
Zn528  Zn    0.86005   0.80661   0.28734   0.00000  Uiso   1.00
Zn529  Zn    0.80046   0.79124   0.21875   0.00000  Uiso   1.00
Zn530  Zn    0.87723   0.86442   0.20657   0.00000  Uiso   1.00
Zn531  Zn    0.79560   0.87106   0.28733   0.00000  Uiso   1.00
C532   C     0.05262   0.15934   0.76055   0.00000  Uiso   1.00
C533   C     0.16853   0.16369   0.56082   0.00000  Uiso   1.00
C534   C     0.21209   0.10880   0.55802   0.00000  Uiso   1.00
C535   C     0.28087   0.17381   0.73980   0.00000  Uiso   1.00
C536   C     0.14309   0.19459   0.91937   0.00000  Uiso   1.00
C537   C     0.32733   0.17639   0.73514   0.00000  Uiso   1.00
C538   C     0.00745   0.15761   0.76383   0.00000  Uiso   1.00
C539   C     0.17914   0.32232   0.73764   0.00000  Uiso   1.00
C540   C     0.15052   0.01261   0.76470   0.00000  Uiso   1.00
C541   C     0.15648   0.05608   0.75970   0.00000  Uiso   1.00
C542   C     0.17625   0.27784   0.74041   0.00000  Uiso   1.00
C543   C     0.14178   0.25014   0.97872   0.00000  Uiso   1.00
C544   C     0.18522   0.14798   0.62952   0.00000  Uiso   1.00
C545   C     0.14794   0.18422   0.87099   0.00000  Uiso   1.00
C546   C     0.20977   0.09542   0.51446   0.00000  Uiso   1.00
C547   C     0.19020   0.14136   0.58157   0.00000  Uiso   1.00
C548   C     0.13529   0.23515   0.93700   0.00000  Uiso   1.00
C549   C     0.11347   0.33104   0.79910   0.00000  Uiso   1.00
C550   C     0.18273   0.05982   0.93097   0.00000  Uiso   1.00
C551   C     0.23282   0.06074   0.99315   0.00000  Uiso   1.00
C552   C     0.13734   0.18955   0.58910   0.00000  Uiso   1.00
C553   C     0.13635   0.29262   0.99549   0.00000  Uiso   1.00
C554   C     0.15577   0.22464   0.50329   0.00000  Uiso   1.00
C555   C     0.15906   0.18215   0.98898   0.00000  Uiso   1.00
C556   C     0.15282   0.16720   0.94633   0.00000  Uiso   1.00
C557   C     0.17165   0.15499   0.51443   0.00000  Uiso   1.00
C558   C     0.18688   0.11682   0.99290   0.00000  Uiso   1.00
C559   C     0.17672   0.10126   0.95193   0.00000  Uiso   1.00
C560   C     0.15718   0.12538   0.93125   0.00000  Uiso   1.00
H561   H     0.22884   0.09207   0.57480   0.00000  Uiso   1.00
H562   H     0.31860   0.14104   0.79054   0.00000  Uiso   1.00
H563   H     0.20578   0.00322   0.71259   0.00000  Uiso   1.00
H564   H     0.12722   0.25619   0.91697   0.00000  Uiso   1.00
H565   H     0.16574   0.23914   0.53253   0.00000  Uiso   1.00
H566   H     0.14626   0.11114   0.90237   0.00000  Uiso   1.00
H567   H     0.00881   0.20911   0.68363   0.00000  Uiso   1.00
N568   N     0.08386   0.31929   0.82661   0.00000  Uiso   1.00
N569   N     0.18734   0.02674   0.91378   0.00000  Uiso   1.00
N570   N     0.25146   0.03301   0.97639   0.00000  Uiso   1.00
N571   N     0.11246   0.20996   0.61180   0.00000  Uiso   1.00
N572   N     0.13189   0.32668   0.50915   0.00000  Uiso   1.00
O573   O     0.16667   0.16667   0.75000   0.00000  Uiso   1.00
O574   O     0.15451   0.12637   0.65458   0.00000  Uiso   1.00
O575   O     0.12940   0.20391   0.84968   0.00000  Uiso   1.00
O576   O     0.20824   0.17759   0.64606   0.00000  Uiso   1.00
O577   O     0.17451   0.15880   0.84968   0.00000  Uiso   1.00
O578   O     0.02397   0.19750   0.70213   0.00000  Uiso   1.00
O579   O     0.17930   0.08019   0.78213   0.00000  Uiso   1.00
O580   O     0.14632   0.26085   0.77013   0.00000  Uiso   1.00
O581   O     0.07412   0.13291   0.73413   0.00000  Uiso   1.00
O582   O     0.26693   0.19272   0.71360   0.00000  Uiso   1.00
O583   O     0.07071   0.18878   0.78213   0.00000  Uiso   1.00
O584   O     0.25491   0.15226   0.77013   0.00000  Uiso   1.00
O585   O     0.13760   0.06944   0.73413   0.00000  Uiso   1.00
O586   O     0.20345   0.25620   0.71360   0.00000  Uiso   1.00
Zn587  Zn    0.19338   0.13994   0.78734   0.00000  Uiso   1.00
Zn588  Zn    0.13379   0.12458   0.71875   0.00000  Uiso   1.00
Zn589  Zn    0.21056   0.19775   0.70657   0.00000  Uiso   1.00
Zn590  Zn    0.12893   0.20439   0.78733   0.00000  Uiso   1.00
C591   C     0.38595   0.15934   0.76055   0.00000  Uiso   1.00
C592   C     0.50187   0.16369   0.56082   0.00000  Uiso   1.00
C593   C     0.54542   0.10880   0.55802   0.00000  Uiso   1.00
C594   C     0.61420   0.17381   0.73980   0.00000  Uiso   1.00
C595   C     0.47642   0.19459   0.91937   0.00000  Uiso   1.00
C596   C     0.66066   0.17639   0.73514   0.00000  Uiso   1.00
C597   C     0.34078   0.15761   0.76383   0.00000  Uiso   1.00
C598   C     0.51248   0.32232   0.73764   0.00000  Uiso   1.00
C599   C     0.48385   0.01261   0.76470   0.00000  Uiso   1.00
C600   C     0.48982   0.05608   0.75970   0.00000  Uiso   1.00
C601   C     0.50958   0.27784   0.74041   0.00000  Uiso   1.00
C602   C     0.47512   0.25014   0.97872   0.00000  Uiso   1.00
C603   C     0.51855   0.14798   0.62952   0.00000  Uiso   1.00
C604   C     0.48127   0.18422   0.87099   0.00000  Uiso   1.00
C605   C     0.54311   0.09542   0.51446   0.00000  Uiso   1.00
C606   C     0.52353   0.14136   0.58157   0.00000  Uiso   1.00
C607   C     0.46862   0.23515   0.93700   0.00000  Uiso   1.00
C608   C     0.44681   0.33104   0.79910   0.00000  Uiso   1.00
C609   C     0.51606   0.05982   0.93097   0.00000  Uiso   1.00
C610   C     0.56616   0.06074   0.99315   0.00000  Uiso   1.00
C611   C     0.47068   0.18955   0.58910   0.00000  Uiso   1.00
C612   C     0.46968   0.29262   0.99549   0.00000  Uiso   1.00
C613   C     0.48910   0.22464   0.50329   0.00000  Uiso   1.00
C614   C     0.49239   0.18215   0.98898   0.00000  Uiso   1.00
C615   C     0.48615   0.16720   0.94633   0.00000  Uiso   1.00
C616   C     0.50498   0.15499   0.51443   0.00000  Uiso   1.00
C617   C     0.52021   0.11682   0.99290   0.00000  Uiso   1.00
C618   C     0.51006   0.10126   0.95193   0.00000  Uiso   1.00
C619   C     0.49051   0.12538   0.93125   0.00000  Uiso   1.00
H620   H     0.56218   0.09207   0.57480   0.00000  Uiso   1.00
H621   H     0.65193   0.14104   0.79054   0.00000  Uiso   1.00
H622   H     0.53912   0.00322   0.71259   0.00000  Uiso   1.00
H623   H     0.46056   0.25619   0.91697   0.00000  Uiso   1.00
H624   H     0.49908   0.23914   0.53253   0.00000  Uiso   1.00
H625   H     0.47959   0.11114   0.90237   0.00000  Uiso   1.00
H626   H     0.34214   0.20911   0.68363   0.00000  Uiso   1.00
N627   N     0.41719   0.31929   0.82661   0.00000  Uiso   1.00
N628   N     0.52068   0.02674   0.91378   0.00000  Uiso   1.00
N629   N     0.58479   0.03301   0.97639   0.00000  Uiso   1.00
N630   N     0.44579   0.20996   0.61180   0.00000  Uiso   1.00
N631   N     0.46522   0.32668   0.50915   0.00000  Uiso   1.00
O632   O     0.50000   0.16667   0.75000   0.00000  Uiso   1.00
O633   O     0.48784   0.12637   0.65458   0.00000  Uiso   1.00
O634   O     0.46274   0.20391   0.84968   0.00000  Uiso   1.00
O635   O     0.54157   0.17759   0.64606   0.00000  Uiso   1.00
O636   O     0.50785   0.15880   0.84968   0.00000  Uiso   1.00
O637   O     0.35730   0.19750   0.70213   0.00000  Uiso   1.00
O638   O     0.51264   0.08019   0.78213   0.00000  Uiso   1.00
O639   O     0.47965   0.26085   0.77013   0.00000  Uiso   1.00
O640   O     0.40745   0.13291   0.73413   0.00000  Uiso   1.00
O641   O     0.60026   0.19272   0.71360   0.00000  Uiso   1.00
O642   O     0.40405   0.18878   0.78213   0.00000  Uiso   1.00
O643   O     0.58824   0.15226   0.77013   0.00000  Uiso   1.00
O644   O     0.47093   0.06944   0.73413   0.00000  Uiso   1.00
O645   O     0.53678   0.25620   0.71360   0.00000  Uiso   1.00
Zn646  Zn    0.52672   0.13994   0.78734   0.00000  Uiso   1.00
Zn647  Zn    0.46713   0.12458   0.71875   0.00000  Uiso   1.00
Zn648  Zn    0.54389   0.19775   0.70657   0.00000  Uiso   1.00
Zn649  Zn    0.46226   0.20439   0.78733   0.00000  Uiso   1.00
C650   C     0.71928   0.15934   0.76055   0.00000  Uiso   1.00
C651   C     0.83520   0.16369   0.56082   0.00000  Uiso   1.00
C652   C     0.87875   0.10880   0.55802   0.00000  Uiso   1.00
C653   C     0.94754   0.17381   0.73980   0.00000  Uiso   1.00
C654   C     0.80976   0.19459   0.91937   0.00000  Uiso   1.00
C655   C     0.99400   0.17639   0.73514   0.00000  Uiso   1.00
C656   C     0.67411   0.15761   0.76383   0.00000  Uiso   1.00
C657   C     0.84581   0.32232   0.73764   0.00000  Uiso   1.00
C658   C     0.81718   0.01261   0.76470   0.00000  Uiso   1.00
C659   C     0.82315   0.05608   0.75970   0.00000  Uiso   1.00
C660   C     0.84291   0.27784   0.74041   0.00000  Uiso   1.00
C661   C     0.80845   0.25014   0.97872   0.00000  Uiso   1.00
C662   C     0.85189   0.14798   0.62952   0.00000  Uiso   1.00
C663   C     0.81460   0.18422   0.87099   0.00000  Uiso   1.00
C664   C     0.87644   0.09542   0.51446   0.00000  Uiso   1.00
C665   C     0.85687   0.14136   0.58157   0.00000  Uiso   1.00
C666   C     0.80195   0.23515   0.93700   0.00000  Uiso   1.00
C667   C     0.78014   0.33104   0.79910   0.00000  Uiso   1.00
C668   C     0.84940   0.05982   0.93097   0.00000  Uiso   1.00
C669   C     0.89949   0.06074   0.99315   0.00000  Uiso   1.00
C670   C     0.80401   0.18955   0.58910   0.00000  Uiso   1.00
C671   C     0.80301   0.29262   0.99549   0.00000  Uiso   1.00
C672   C     0.82244   0.22464   0.50329   0.00000  Uiso   1.00
C673   C     0.82573   0.18215   0.98898   0.00000  Uiso   1.00
C674   C     0.81949   0.16720   0.94633   0.00000  Uiso   1.00
C675   C     0.83831   0.15499   0.51443   0.00000  Uiso   1.00
C676   C     0.85355   0.11682   0.99290   0.00000  Uiso   1.00
C677   C     0.84339   0.10126   0.95193   0.00000  Uiso   1.00
C678   C     0.82385   0.12538   0.93125   0.00000  Uiso   1.00
H679   H     0.89551   0.09207   0.57480   0.00000  Uiso   1.00
H680   H     0.98526   0.14104   0.79054   0.00000  Uiso   1.00
H681   H     0.87245   0.00322   0.71259   0.00000  Uiso   1.00
H682   H     0.79389   0.25619   0.91697   0.00000  Uiso   1.00
H683   H     0.83241   0.23914   0.53253   0.00000  Uiso   1.00
H684   H     0.81292   0.11114   0.90237   0.00000  Uiso   1.00
H685   H     0.67548   0.20911   0.68363   0.00000  Uiso   1.00
N686   N     0.75053   0.31929   0.82661   0.00000  Uiso   1.00
N687   N     0.85401   0.02674   0.91378   0.00000  Uiso   1.00
N688   N     0.91813   0.03301   0.97639   0.00000  Uiso   1.00
N689   N     0.77912   0.20996   0.61180   0.00000  Uiso   1.00
N690   N     0.79855   0.32668   0.50915   0.00000  Uiso   1.00
O691   O     0.83333   0.16667   0.75000   0.00000  Uiso   1.00
O692   O     0.82118   0.12637   0.65458   0.00000  Uiso   1.00
O693   O     0.79607   0.20391   0.84968   0.00000  Uiso   1.00
O694   O     0.87491   0.17759   0.64606   0.00000  Uiso   1.00
O695   O     0.84118   0.15880   0.84968   0.00000  Uiso   1.00
O696   O     0.69063   0.19750   0.70213   0.00000  Uiso   1.00
O697   O     0.84597   0.08019   0.78213   0.00000  Uiso   1.00
O698   O     0.81298   0.26085   0.77013   0.00000  Uiso   1.00
O699   O     0.74078   0.13291   0.73413   0.00000  Uiso   1.00
O700   O     0.93360   0.19272   0.71360   0.00000  Uiso   1.00
O701   O     0.73738   0.18878   0.78213   0.00000  Uiso   1.00
O702   O     0.92158   0.15226   0.77013   0.00000  Uiso   1.00
O703   O     0.80426   0.06944   0.73413   0.00000  Uiso   1.00
O704   O     0.87012   0.25620   0.71360   0.00000  Uiso   1.00
Zn705  Zn    0.86005   0.13994   0.78734   0.00000  Uiso   1.00
Zn706  Zn    0.80046   0.12458   0.71875   0.00000  Uiso   1.00
Zn707  Zn    0.87723   0.19775   0.70657   0.00000  Uiso   1.00
Zn708  Zn    0.79560   0.20439   0.78733   0.00000  Uiso   1.00
C709   C     0.05262   0.49267   0.76055   0.00000  Uiso   1.00
C710   C     0.16853   0.49703   0.56082   0.00000  Uiso   1.00
C711   C     0.21209   0.44213   0.55802   0.00000  Uiso   1.00
C712   C     0.28087   0.50714   0.73980   0.00000  Uiso   1.00
C713   C     0.14309   0.52792   0.91937   0.00000  Uiso   1.00
C714   C     0.32733   0.50973   0.73514   0.00000  Uiso   1.00
C715   C     0.00745   0.49094   0.76383   0.00000  Uiso   1.00
C716   C     0.17914   0.65566   0.73764   0.00000  Uiso   1.00
C717   C     0.15052   0.34595   0.76470   0.00000  Uiso   1.00
C718   C     0.15648   0.38942   0.75970   0.00000  Uiso   1.00
C719   C     0.17625   0.61118   0.74041   0.00000  Uiso   1.00
C720   C     0.14178   0.58347   0.97872   0.00000  Uiso   1.00
C721   C     0.18522   0.48131   0.62952   0.00000  Uiso   1.00
C722   C     0.14794   0.51755   0.87099   0.00000  Uiso   1.00
C723   C     0.20977   0.42876   0.51446   0.00000  Uiso   1.00
C724   C     0.19020   0.47469   0.58157   0.00000  Uiso   1.00
C725   C     0.13529   0.56848   0.93700   0.00000  Uiso   1.00
C726   C     0.11347   0.66437   0.79910   0.00000  Uiso   1.00
C727   C     0.18273   0.39315   0.93097   0.00000  Uiso   1.00
C728   C     0.23282   0.39408   0.99315   0.00000  Uiso   1.00
C729   C     0.13734   0.52288   0.58910   0.00000  Uiso   1.00
C730   C     0.13635   0.62595   0.99549   0.00000  Uiso   1.00
C731   C     0.15577   0.55798   0.50329   0.00000  Uiso   1.00
C732   C     0.15906   0.51549   0.98898   0.00000  Uiso   1.00
C733   C     0.15282   0.50053   0.94633   0.00000  Uiso   1.00
C734   C     0.17165   0.48832   0.51443   0.00000  Uiso   1.00
C735   C     0.18688   0.45015   0.99290   0.00000  Uiso   1.00
C736   C     0.17672   0.43460   0.95193   0.00000  Uiso   1.00
C737   C     0.15718   0.45872   0.93125   0.00000  Uiso   1.00
H738   H     0.22884   0.42540   0.57480   0.00000  Uiso   1.00
H739   H     0.31860   0.47437   0.79054   0.00000  Uiso   1.00
H740   H     0.20578   0.33655   0.71259   0.00000  Uiso   1.00
H741   H     0.12722   0.58952   0.91697   0.00000  Uiso   1.00
H742   H     0.16574   0.57248   0.53253   0.00000  Uiso   1.00
H743   H     0.14626   0.44447   0.90237   0.00000  Uiso   1.00
H744   H     0.00881   0.54245   0.68363   0.00000  Uiso   1.00
N745   N     0.08386   0.65262   0.82661   0.00000  Uiso   1.00
N746   N     0.18734   0.36008   0.91378   0.00000  Uiso   1.00
N747   N     0.25146   0.36634   0.97639   0.00000  Uiso   1.00
N748   N     0.11246   0.54330   0.61180   0.00000  Uiso   1.00
N749   N     0.13189   0.66001   0.50915   0.00000  Uiso   1.00
O750   O     0.16667   0.50000   0.75000   0.00000  Uiso   1.00
O751   O     0.15451   0.45970   0.65458   0.00000  Uiso   1.00
O752   O     0.12940   0.53724   0.84968   0.00000  Uiso   1.00
O753   O     0.20824   0.51092   0.64606   0.00000  Uiso   1.00
O754   O     0.17451   0.49213   0.84968   0.00000  Uiso   1.00
O755   O     0.02397   0.53083   0.70213   0.00000  Uiso   1.00
O756   O     0.17930   0.41352   0.78213   0.00000  Uiso   1.00
O757   O     0.14632   0.59418   0.77013   0.00000  Uiso   1.00
O758   O     0.07412   0.46625   0.73413   0.00000  Uiso   1.00
O759   O     0.26693   0.52605   0.71360   0.00000  Uiso   1.00
O760   O     0.07071   0.52211   0.78213   0.00000  Uiso   1.00
O761   O     0.25491   0.48559   0.77013   0.00000  Uiso   1.00
O762   O     0.13760   0.40277   0.73413   0.00000  Uiso   1.00
O763   O     0.20345   0.58953   0.71360   0.00000  Uiso   1.00
Zn764  Zn    0.19338   0.47327   0.78734   0.00000  Uiso   1.00
Zn765  Zn    0.13379   0.45791   0.71875   0.00000  Uiso   1.00
Zn766  Zn    0.21056   0.53109   0.70657   0.00000  Uiso   1.00
Zn767  Zn    0.12893   0.53773   0.78733   0.00000  Uiso   1.00
C768   C     0.38595   0.49267   0.76055   0.00000  Uiso   1.00
C769   C     0.50187   0.49703   0.56082   0.00000  Uiso   1.00
C770   C     0.54542   0.44213   0.55802   0.00000  Uiso   1.00
C771   C     0.61420   0.50714   0.73980   0.00000  Uiso   1.00
C772   C     0.47642   0.52792   0.91937   0.00000  Uiso   1.00
C773   C     0.66066   0.50973   0.73514   0.00000  Uiso   1.00
C774   C     0.34078   0.49094   0.76383   0.00000  Uiso   1.00
C775   C     0.51248   0.65566   0.73764   0.00000  Uiso   1.00
C776   C     0.48385   0.34595   0.76470   0.00000  Uiso   1.00
C777   C     0.48982   0.38942   0.75970   0.00000  Uiso   1.00
C778   C     0.50958   0.61118   0.74041   0.00000  Uiso   1.00
C779   C     0.47512   0.58347   0.97872   0.00000  Uiso   1.00
C780   C     0.51855   0.48131   0.62952   0.00000  Uiso   1.00
C781   C     0.48127   0.51755   0.87099   0.00000  Uiso   1.00
C782   C     0.54311   0.42876   0.51446   0.00000  Uiso   1.00
C783   C     0.52353   0.47469   0.58157   0.00000  Uiso   1.00
C784   C     0.46862   0.56848   0.93700   0.00000  Uiso   1.00
C785   C     0.44681   0.66437   0.79910   0.00000  Uiso   1.00
C786   C     0.51606   0.39315   0.93097   0.00000  Uiso   1.00
C787   C     0.56616   0.39408   0.99315   0.00000  Uiso   1.00
C788   C     0.47068   0.52288   0.58910   0.00000  Uiso   1.00
C789   C     0.46968   0.62595   0.99549   0.00000  Uiso   1.00
C790   C     0.48910   0.55798   0.50329   0.00000  Uiso   1.00
C791   C     0.49239   0.51549   0.98898   0.00000  Uiso   1.00
C792   C     0.48615   0.50053   0.94633   0.00000  Uiso   1.00
C793   C     0.50498   0.48832   0.51443   0.00000  Uiso   1.00
C794   C     0.52021   0.45015   0.99290   0.00000  Uiso   1.00
C795   C     0.51006   0.43460   0.95193   0.00000  Uiso   1.00
C796   C     0.49051   0.45872   0.93125   0.00000  Uiso   1.00
H797   H     0.56218   0.42540   0.57480   0.00000  Uiso   1.00
H798   H     0.65193   0.47437   0.79054   0.00000  Uiso   1.00
H799   H     0.53912   0.33655   0.71259   0.00000  Uiso   1.00
H800   H     0.46056   0.58952   0.91697   0.00000  Uiso   1.00
H801   H     0.49908   0.57248   0.53253   0.00000  Uiso   1.00
H802   H     0.47959   0.44447   0.90237   0.00000  Uiso   1.00
H803   H     0.34214   0.54245   0.68363   0.00000  Uiso   1.00
N804   N     0.41719   0.65262   0.82661   0.00000  Uiso   1.00
N805   N     0.52068   0.36008   0.91378   0.00000  Uiso   1.00
N806   N     0.58479   0.36634   0.97639   0.00000  Uiso   1.00
N807   N     0.44579   0.54330   0.61180   0.00000  Uiso   1.00
N808   N     0.46522   0.66001   0.50915   0.00000  Uiso   1.00
O809   O     0.50000   0.50000   0.75000   0.00000  Uiso   1.00
O810   O     0.48784   0.45970   0.65458   0.00000  Uiso   1.00
O811   O     0.46274   0.53724   0.84968   0.00000  Uiso   1.00
O812   O     0.54157   0.51092   0.64606   0.00000  Uiso   1.00
O813   O     0.50785   0.49213   0.84968   0.00000  Uiso   1.00
O814   O     0.35730   0.53083   0.70213   0.00000  Uiso   1.00
O815   O     0.51264   0.41352   0.78213   0.00000  Uiso   1.00
O816   O     0.47965   0.59418   0.77013   0.00000  Uiso   1.00
O817   O     0.40745   0.46625   0.73413   0.00000  Uiso   1.00
O818   O     0.60026   0.52605   0.71360   0.00000  Uiso   1.00
O819   O     0.40405   0.52211   0.78213   0.00000  Uiso   1.00
O820   O     0.58824   0.48559   0.77013   0.00000  Uiso   1.00
O821   O     0.47093   0.40277   0.73413   0.00000  Uiso   1.00
O822   O     0.53678   0.58953   0.71360   0.00000  Uiso   1.00
Zn823  Zn    0.52672   0.47327   0.78734   0.00000  Uiso   1.00
Zn824  Zn    0.46713   0.45791   0.71875   0.00000  Uiso   1.00
Zn825  Zn    0.54389   0.53109   0.70657   0.00000  Uiso   1.00
Zn826  Zn    0.46226   0.53773   0.78733   0.00000  Uiso   1.00
C827   C     0.71928   0.49267   0.76055   0.00000  Uiso   1.00
C828   C     0.83520   0.49703   0.56082   0.00000  Uiso   1.00
C829   C     0.87875   0.44213   0.55802   0.00000  Uiso   1.00
C830   C     0.94754   0.50714   0.73980   0.00000  Uiso   1.00
C831   C     0.80976   0.52792   0.91937   0.00000  Uiso   1.00
C832   C     0.99400   0.50973   0.73514   0.00000  Uiso   1.00
C833   C     0.67411   0.49094   0.76383   0.00000  Uiso   1.00
C834   C     0.84581   0.65566   0.73764   0.00000  Uiso   1.00
C835   C     0.81718   0.34595   0.76470   0.00000  Uiso   1.00
C836   C     0.82315   0.38942   0.75970   0.00000  Uiso   1.00
C837   C     0.84291   0.61118   0.74041   0.00000  Uiso   1.00
C838   C     0.80845   0.58347   0.97872   0.00000  Uiso   1.00
C839   C     0.85189   0.48131   0.62952   0.00000  Uiso   1.00
C840   C     0.81460   0.51755   0.87099   0.00000  Uiso   1.00
C841   C     0.87644   0.42876   0.51446   0.00000  Uiso   1.00
C842   C     0.85687   0.47469   0.58157   0.00000  Uiso   1.00
C843   C     0.80195   0.56848   0.93700   0.00000  Uiso   1.00
C844   C     0.78014   0.66437   0.79910   0.00000  Uiso   1.00
C845   C     0.84940   0.39315   0.93097   0.00000  Uiso   1.00
C846   C     0.89949   0.39408   0.99315   0.00000  Uiso   1.00
C847   C     0.80401   0.52288   0.58910   0.00000  Uiso   1.00
C848   C     0.80301   0.62595   0.99549   0.00000  Uiso   1.00
C849   C     0.82244   0.55798   0.50329   0.00000  Uiso   1.00
C850   C     0.82573   0.51549   0.98898   0.00000  Uiso   1.00
C851   C     0.81949   0.50053   0.94633   0.00000  Uiso   1.00
C852   C     0.83831   0.48832   0.51443   0.00000  Uiso   1.00
C853   C     0.85355   0.45015   0.99290   0.00000  Uiso   1.00
C854   C     0.84339   0.43460   0.95193   0.00000  Uiso   1.00
C855   C     0.82385   0.45872   0.93125   0.00000  Uiso   1.00
H856   H     0.89551   0.42540   0.57480   0.00000  Uiso   1.00
H857   H     0.98526   0.47437   0.79054   0.00000  Uiso   1.00
H858   H     0.87245   0.33655   0.71259   0.00000  Uiso   1.00
H859   H     0.79389   0.58952   0.91697   0.00000  Uiso   1.00
H860   H     0.83241   0.57248   0.53253   0.00000  Uiso   1.00
H861   H     0.81292   0.44447   0.90237   0.00000  Uiso   1.00
H862   H     0.67548   0.54245   0.68363   0.00000  Uiso   1.00
N863   N     0.75053   0.65262   0.82661   0.00000  Uiso   1.00
N864   N     0.85401   0.36008   0.91378   0.00000  Uiso   1.00
N865   N     0.91813   0.36634   0.97639   0.00000  Uiso   1.00
N866   N     0.77912   0.54330   0.61180   0.00000  Uiso   1.00
N867   N     0.79855   0.66001   0.50915   0.00000  Uiso   1.00
O868   O     0.83333   0.50000   0.75000   0.00000  Uiso   1.00
O869   O     0.82118   0.45970   0.65458   0.00000  Uiso   1.00
O870   O     0.79607   0.53724   0.84968   0.00000  Uiso   1.00
O871   O     0.87491   0.51092   0.64606   0.00000  Uiso   1.00
O872   O     0.84118   0.49213   0.84968   0.00000  Uiso   1.00
O873   O     0.69063   0.53083   0.70213   0.00000  Uiso   1.00
O874   O     0.84597   0.41352   0.78213   0.00000  Uiso   1.00
O875   O     0.81298   0.59418   0.77013   0.00000  Uiso   1.00
O876   O     0.74078   0.46625   0.73413   0.00000  Uiso   1.00
O877   O     0.93360   0.52605   0.71360   0.00000  Uiso   1.00
O878   O     0.73738   0.52211   0.78213   0.00000  Uiso   1.00
O879   O     0.92158   0.48559   0.77013   0.00000  Uiso   1.00
O880   O     0.80426   0.40277   0.73413   0.00000  Uiso   1.00
O881   O     0.87012   0.58953   0.71360   0.00000  Uiso   1.00
Zn882  Zn    0.86005   0.47327   0.78734   0.00000  Uiso   1.00
Zn883  Zn    0.80046   0.45791   0.71875   0.00000  Uiso   1.00
Zn884  Zn    0.87723   0.53109   0.70657   0.00000  Uiso   1.00
Zn885  Zn    0.79560   0.53773   0.78733   0.00000  Uiso   1.00
C886   C     0.05262   0.82600   0.76055   0.00000  Uiso   1.00
C887   C     0.16853   0.83036   0.56082   0.00000  Uiso   1.00
C888   C     0.21209   0.77546   0.55802   0.00000  Uiso   1.00
C889   C     0.28087   0.84047   0.73980   0.00000  Uiso   1.00
C890   C     0.14309   0.86126   0.91937   0.00000  Uiso   1.00
C891   C     0.32733   0.84306   0.73514   0.00000  Uiso   1.00
C892   C     0.00745   0.82427   0.76383   0.00000  Uiso   1.00
C893   C     0.17914   0.98899   0.73764   0.00000  Uiso   1.00
C894   C     0.15052   0.67928   0.76470   0.00000  Uiso   1.00
C895   C     0.15648   0.72275   0.75970   0.00000  Uiso   1.00
C896   C     0.17625   0.94451   0.74041   0.00000  Uiso   1.00
C897   C     0.14178   0.91680   0.97872   0.00000  Uiso   1.00
C898   C     0.18522   0.81465   0.62952   0.00000  Uiso   1.00
C899   C     0.14794   0.85088   0.87099   0.00000  Uiso   1.00
C900   C     0.20977   0.76209   0.51446   0.00000  Uiso   1.00
C901   C     0.19020   0.80802   0.58157   0.00000  Uiso   1.00
C902   C     0.13529   0.90181   0.93700   0.00000  Uiso   1.00
C903   C     0.11347   0.99770   0.79910   0.00000  Uiso   1.00
C904   C     0.18273   0.72648   0.93097   0.00000  Uiso   1.00
C905   C     0.23282   0.72741   0.99315   0.00000  Uiso   1.00
C906   C     0.13734   0.85621   0.58910   0.00000  Uiso   1.00
C907   C     0.13635   0.95928   0.99549   0.00000  Uiso   1.00
C908   C     0.15577   0.89131   0.50329   0.00000  Uiso   1.00
C909   C     0.15906   0.84882   0.98898   0.00000  Uiso   1.00
C910   C     0.15282   0.83386   0.94633   0.00000  Uiso   1.00
C911   C     0.17165   0.82166   0.51443   0.00000  Uiso   1.00
C912   C     0.18688   0.78349   0.99290   0.00000  Uiso   1.00
C913   C     0.17672   0.76793   0.95193   0.00000  Uiso   1.00
C914   C     0.15718   0.79205   0.93125   0.00000  Uiso   1.00
H915   H     0.22884   0.75873   0.57480   0.00000  Uiso   1.00
H916   H     0.31860   0.80770   0.79054   0.00000  Uiso   1.00
H917   H     0.20578   0.66989   0.71259   0.00000  Uiso   1.00
H918   H     0.12722   0.92286   0.91697   0.00000  Uiso   1.00
H919   H     0.16574   0.90581   0.53253   0.00000  Uiso   1.00
H920   H     0.14626   0.77780   0.90237   0.00000  Uiso   1.00
H921   H     0.00881   0.87578   0.68363   0.00000  Uiso   1.00
N922   N     0.08386   0.98596   0.82661   0.00000  Uiso   1.00
N923   N     0.18734   0.69341   0.91378   0.00000  Uiso   1.00
N924   N     0.25146   0.69967   0.97639   0.00000  Uiso   1.00
N925   N     0.11246   0.87663   0.61180   0.00000  Uiso   1.00
N926   N     0.13189   0.99334   0.50915   0.00000  Uiso   1.00
O927   O     0.16667   0.83333   0.75000   0.00000  Uiso   1.00
O928   O     0.15451   0.79304   0.65458   0.00000  Uiso   1.00
O929   O     0.12940   0.87058   0.84968   0.00000  Uiso   1.00
O930   O     0.20824   0.84425   0.64606   0.00000  Uiso   1.00
O931   O     0.17451   0.82546   0.84968   0.00000  Uiso   1.00
O932   O     0.02397   0.86416   0.70213   0.00000  Uiso   1.00
O933   O     0.17930   0.74686   0.78213   0.00000  Uiso   1.00
O934   O     0.14632   0.92751   0.77013   0.00000  Uiso   1.00
O935   O     0.07412   0.79958   0.73413   0.00000  Uiso   1.00
O936   O     0.26693   0.85939   0.71360   0.00000  Uiso   1.00
O937   O     0.07071   0.85544   0.78213   0.00000  Uiso   1.00
O938   O     0.25491   0.81892   0.77013   0.00000  Uiso   1.00
O939   O     0.13760   0.73610   0.73413   0.00000  Uiso   1.00
O940   O     0.20345   0.92286   0.71360   0.00000  Uiso   1.00
Zn941  Zn    0.19338   0.80661   0.78734   0.00000  Uiso   1.00
Zn942  Zn    0.13379   0.79124   0.71875   0.00000  Uiso   1.00
Zn943  Zn    0.21056   0.86442   0.70657   0.00000  Uiso   1.00
Zn944  Zn    0.12893   0.87106   0.78733   0.00000  Uiso   1.00
C945   C     0.38595   0.82600   0.76055   0.00000  Uiso   1.00
C946   C     0.50187   0.83036   0.56082   0.00000  Uiso   1.00
C947   C     0.54542   0.77546   0.55802   0.00000  Uiso   1.00
C948   C     0.61420   0.84047   0.73980   0.00000  Uiso   1.00
C949   C     0.47642   0.86126   0.91937   0.00000  Uiso   1.00
C950   C     0.66066   0.84306   0.73514   0.00000  Uiso   1.00
C951   C     0.34078   0.82427   0.76383   0.00000  Uiso   1.00
C952   C     0.51248   0.98899   0.73764   0.00000  Uiso   1.00
C953   C     0.48385   0.67928   0.76470   0.00000  Uiso   1.00
C954   C     0.48982   0.72275   0.75970   0.00000  Uiso   1.00
C955   C     0.50958   0.94451   0.74041   0.00000  Uiso   1.00
C956   C     0.47512   0.91680   0.97872   0.00000  Uiso   1.00
C957   C     0.51855   0.81465   0.62952   0.00000  Uiso   1.00
C958   C     0.48127   0.85088   0.87099   0.00000  Uiso   1.00
C959   C     0.54311   0.76209   0.51446   0.00000  Uiso   1.00
C960   C     0.52353   0.80802   0.58157   0.00000  Uiso   1.00
C961   C     0.46862   0.90181   0.93700   0.00000  Uiso   1.00
C962   C     0.44681   0.99770   0.79910   0.00000  Uiso   1.00
C963   C     0.51606   0.72648   0.93097   0.00000  Uiso   1.00
C964   C     0.56616   0.72741   0.99315   0.00000  Uiso   1.00
C965   C     0.47068   0.85621   0.58910   0.00000  Uiso   1.00
C966   C     0.46968   0.95928   0.99549   0.00000  Uiso   1.00
C967   C     0.48910   0.89131   0.50329   0.00000  Uiso   1.00
C968   C     0.49239   0.84882   0.98898   0.00000  Uiso   1.00
C969   C     0.48615   0.83386   0.94633   0.00000  Uiso   1.00
C970   C     0.50498   0.82166   0.51443   0.00000  Uiso   1.00
C971   C     0.52021   0.78349   0.99290   0.00000  Uiso   1.00
C972   C     0.51006   0.76793   0.95193   0.00000  Uiso   1.00
C973   C     0.49051   0.79205   0.93125   0.00000  Uiso   1.00
H974   H     0.56218   0.75873   0.57480   0.00000  Uiso   1.00
H975   H     0.65193   0.80770   0.79054   0.00000  Uiso   1.00
H976   H     0.53912   0.66989   0.71259   0.00000  Uiso   1.00
H977   H     0.46056   0.92286   0.91697   0.00000  Uiso   1.00
H978   H     0.49908   0.90581   0.53253   0.00000  Uiso   1.00
H979   H     0.47959   0.77780   0.90237   0.00000  Uiso   1.00
H980   H     0.34214   0.87578   0.68363   0.00000  Uiso   1.00
N981   N     0.41719   0.98596   0.82661   0.00000  Uiso   1.00
N982   N     0.52068   0.69341   0.91378   0.00000  Uiso   1.00
N983   N     0.58479   0.69967   0.97639   0.00000  Uiso   1.00
N984   N     0.44579   0.87663   0.61180   0.00000  Uiso   1.00
N985   N     0.46522   0.99334   0.50915   0.00000  Uiso   1.00
O986   O     0.50000   0.83333   0.75000   0.00000  Uiso   1.00
O987   O     0.48784   0.79304   0.65458   0.00000  Uiso   1.00
O988   O     0.46274   0.87058   0.84968   0.00000  Uiso   1.00
O989   O     0.54157   0.84425   0.64606   0.00000  Uiso   1.00
O990   O     0.50785   0.82546   0.84968   0.00000  Uiso   1.00
O991   O     0.35730   0.86416   0.70213   0.00000  Uiso   1.00
O992   O     0.51264   0.74686   0.78213   0.00000  Uiso   1.00
O993   O     0.47965   0.92751   0.77013   0.00000  Uiso   1.00
O994   O     0.40745   0.79958   0.73413   0.00000  Uiso   1.00
O995   O     0.60026   0.85939   0.71360   0.00000  Uiso   1.00
O996   O     0.40405   0.85544   0.78213   0.00000  Uiso   1.00
O997   O     0.58824   0.81892   0.77013   0.00000  Uiso   1.00
O998   O     0.47093   0.73610   0.73413   0.00000  Uiso   1.00
O999   O     0.53678   0.92286   0.71360   0.00000  Uiso   1.00
Zn1000 Zn    0.52672   0.80661   0.78734   0.00000  Uiso   1.00
Zn1001 Zn    0.46713   0.79124   0.71875   0.00000  Uiso   1.00
Zn1002 Zn    0.54389   0.86442   0.70657   0.00000  Uiso   1.00
Zn1003 Zn    0.46226   0.87106   0.78733   0.00000  Uiso   1.00
C1004  C     0.71928   0.82600   0.76055   0.00000  Uiso   1.00
C1005  C     0.83520   0.83036   0.56082   0.00000  Uiso   1.00
C1006  C     0.87875   0.77546   0.55802   0.00000  Uiso   1.00
C1007  C     0.94754   0.84047   0.73980   0.00000  Uiso   1.00
C1008  C     0.80976   0.86126   0.91937   0.00000  Uiso   1.00
C1009  C     0.99400   0.84306   0.73514   0.00000  Uiso   1.00
C1010  C     0.67411   0.82427   0.76383   0.00000  Uiso   1.00
C1011  C     0.84581   0.98899   0.73764   0.00000  Uiso   1.00
C1012  C     0.81718   0.67928   0.76470   0.00000  Uiso   1.00
C1013  C     0.82315   0.72275   0.75970   0.00000  Uiso   1.00
C1014  C     0.84291   0.94451   0.74041   0.00000  Uiso   1.00
C1015  C     0.80845   0.91680   0.97872   0.00000  Uiso   1.00
C1016  C     0.85189   0.81465   0.62952   0.00000  Uiso   1.00
C1017  C     0.81460   0.85088   0.87099   0.00000  Uiso   1.00
C1018  C     0.87644   0.76209   0.51446   0.00000  Uiso   1.00
C1019  C     0.85687   0.80802   0.58157   0.00000  Uiso   1.00
C1020  C     0.80195   0.90181   0.93700   0.00000  Uiso   1.00
C1021  C     0.78014   0.99770   0.79910   0.00000  Uiso   1.00
C1022  C     0.84940   0.72648   0.93097   0.00000  Uiso   1.00
C1023  C     0.89949   0.72741   0.99315   0.00000  Uiso   1.00
C1024  C     0.80401   0.85621   0.58910   0.00000  Uiso   1.00
C1025  C     0.80301   0.95928   0.99549   0.00000  Uiso   1.00
C1026  C     0.82244   0.89131   0.50329   0.00000  Uiso   1.00
C1027  C     0.82573   0.84882   0.98898   0.00000  Uiso   1.00
C1028  C     0.81949   0.83386   0.94633   0.00000  Uiso   1.00
C1029  C     0.83831   0.82166   0.51443   0.00000  Uiso   1.00
C1030  C     0.85355   0.78349   0.99290   0.00000  Uiso   1.00
C1031  C     0.84339   0.76793   0.95193   0.00000  Uiso   1.00
C1032  C     0.82385   0.79205   0.93125   0.00000  Uiso   1.00
H1033  H     0.89551   0.75873   0.57480   0.00000  Uiso   1.00
H1034  H     0.98526   0.80770   0.79054   0.00000  Uiso   1.00
H1035  H     0.87245   0.66989   0.71259   0.00000  Uiso   1.00
H1036  H     0.79389   0.92286   0.91697   0.00000  Uiso   1.00
H1037  H     0.83241   0.90581   0.53253   0.00000  Uiso   1.00
H1038  H     0.81292   0.77780   0.90237   0.00000  Uiso   1.00
H1039  H     0.67548   0.87578   0.68363   0.00000  Uiso   1.00
N1040  N     0.75053   0.98596   0.82661   0.00000  Uiso   1.00
N1041  N     0.85401   0.69341   0.91378   0.00000  Uiso   1.00
N1042  N     0.91813   0.69967   0.97639   0.00000  Uiso   1.00
N1043  N     0.77912   0.87663   0.61180   0.00000  Uiso   1.00
N1044  N     0.79855   0.99334   0.50915   0.00000  Uiso   1.00
O1045  O     0.83333   0.83333   0.75000   0.00000  Uiso   1.00
O1046  O     0.82118   0.79304   0.65458   0.00000  Uiso   1.00
O1047  O     0.79607   0.87058   0.84968   0.00000  Uiso   1.00
O1048  O     0.87491   0.84425   0.64606   0.00000  Uiso   1.00
O1049  O     0.84118   0.82546   0.84968   0.00000  Uiso   1.00
O1050  O     0.69063   0.86416   0.70213   0.00000  Uiso   1.00
O1051  O     0.84597   0.74686   0.78213   0.00000  Uiso   1.00
O1052  O     0.81298   0.92751   0.77013   0.00000  Uiso   1.00
O1053  O     0.74078   0.79958   0.73413   0.00000  Uiso   1.00
O1054  O     0.93360   0.85939   0.71360   0.00000  Uiso   1.00
O1055  O     0.73738   0.85544   0.78213   0.00000  Uiso   1.00
O1056  O     0.92158   0.81892   0.77013   0.00000  Uiso   1.00
O1057  O     0.80426   0.73610   0.73413   0.00000  Uiso   1.00
O1058  O     0.87012   0.92286   0.71360   0.00000  Uiso   1.00
Zn1059 Zn    0.86005   0.80661   0.78734   0.00000  Uiso   1.00
Zn1060 Zn    0.80046   0.79124   0.71875   0.00000  Uiso   1.00
Zn1061 Zn    0.87723   0.86442   0.70657   0.00000  Uiso   1.00
Zn1062 Zn    0.79560   0.87106   0.78733   0.00000  Uiso   1.00
loop_
_geom_bond_atom_site_label_1
_geom_bond_atom_site_label_2
_geom_bond_distance
_geom_bond_site_symmetry_2
_ccdc_geom_bond_type
C1     O52     1.268   .     A
C1     O50     1.269   .     A
C1     C7      1.438   .     S
C2     C16     1.399   .     A
C2     C21     1.454   .     S
C2     C26     1.418   .     A
C3     H30     1.086   .     S
C3     C15     1.392   .     A
C3     C16     1.390   .     A
C4     O53     1.289   .     A
C4     C6      1.470   .     S
C4     O51     1.287   .     A
C5     C14     1.475   .     S
C5     C25     1.420   .     A
C5     C17     1.403   .     A
C6     C66     1.337   .     S
C6     O106    1.386   .     S
C7     C124    1.337   1_455 S
C7     H149    1.086   1_455 S
C8     C11     1.454   .     S
C8     C186    1.345   .     S
C8     H209    1.088   .     S
C9     C10     1.426   .     S
C9     C362    1.345   1_545 S
C9     C372    1.450   1_545 S
C10    O48     1.276   .     A
C10    O54     1.276   .     A
C11    O49     1.264   .     A
C11    O55     1.276   .     A
C12    C17     1.390   .     A
C12    C22     1.441   .     S
C12    C554    1.393   .     S
C13    C16     1.452   .     S
C13    O45     1.277   .     A
C13    O43     1.271   .     A
C14    O44     1.285   .     A
C14    O46     1.285   .     A
C15    C551    1.445   1_554 S
C15    C558    1.425   1_554 S
C17    H33     1.085   .     S
C18    N37     1.158   .     T
C18    C186    1.450   .     S
C19    C28     1.446   .     S
C19    N38     1.158   .     T
C20    N39     1.158   .     T
C20    C546    1.445   .     S
C21    N40     1.158   .     T
C22    N572    1.157   .     S
C23    H34     1.080   .     S
C23    C543    1.393   1_554 S
C23    C555    1.416   1_554 S
C24    C25     1.415   .     A
C24    C554    1.416   .     S
C24    C557    1.427   .     S
C25    C29     1.404   .     A
C26    C555    1.427   1_554 S
C26    C558    1.433   1_554 S
C27    C28     1.419   .     A
C27    C557    1.433   .     S
C27    C546    1.425   .     S
C28    C29     1.389   .     A
C29    H35     1.082   .     S
H31    C66     1.086   .     S
H32    C362    1.088   1_545 S
H36    O47     0.990   .     S
N41    C553    1.157   1_554 S
O42    Zn59    1.928   .     S
O42    Zn58    1.943   .     S
O42    Zn57    1.942   .     S
O42    Zn56    1.970   .     S
O43    Zn57    1.937   .     S
O44    Zn59    1.948   .     S
O45    Zn58    1.937   .     S
O46    Zn56    1.927   .     S
O47    C124    1.386   1_455 S
O48    Zn56    1.934   .     S
O49    Zn59    1.943   .     S
O50    Zn57    1.924   .     S
O51    Zn58    1.936   .     S
O52    Zn59    1.931   .     S
O53    Zn56    1.922   .     S
O54    Zn57    1.949   .     S
O55    Zn58    1.936   .     S
C60    O111    1.268   .     A
C60    O109    1.269   .     A
C60    C66     1.438   .     S
C61    C75     1.399   .     A
C61    C80     1.454   .     S
C61    C85     1.418   .     A
C62    H89     1.086   .     S
C62    C74     1.392   .     A
C62    C75     1.390   .     A
C63    O112    1.289   .     A
C63    C65     1.470   .     S
C63    O110    1.287   .     A
C64    C73     1.475   .     S
C64    C84     1.420   .     A
C64    C76     1.403   .     A
C65    C125    1.337   .     S
C65    O165    1.386   .     S
C67    C70     1.454   .     S
C67    C245    1.345   .     S
C67    H268    1.088   .     S
C68    C69     1.426   .     S
C68    C421    1.345   1_545 S
C68    C431    1.450   1_545 S
C69    O107    1.276   .     A
C69    O113    1.276   .     A
C70    O108    1.264   .     A
C70    O114    1.276   .     A
C71    C76     1.390   .     A
C71    C81     1.441   .     S
C71    C613    1.393   .     S
C72    C75     1.452   .     S
C72    O104    1.277   .     A
C72    O102    1.271   .     A
C73    O103    1.285   .     A
C73    O105    1.285   .     A
C74    C610    1.445   1_554 S
C74    C617    1.425   1_554 S
C76    H92     1.085   .     S
C77    N96     1.158   .     T
C77    C245    1.450   .     S
C78    C87     1.446   .     S
C78    N97     1.158   .     T
C79    N98     1.158   .     T
C79    C605    1.445   .     S
C80    N99     1.158   .     T
C81    N631    1.157   .     S
C82    H93     1.080   .     S
C82    C602    1.393   1_554 S
C82    C614    1.416   1_554 S
C83    C84     1.415   .     A
C83    C613    1.416   .     S
C83    C616    1.427   .     S
C84    C88     1.404   .     A
C85    C614    1.427   1_554 S
C85    C617    1.433   1_554 S
C86    C87     1.419   .     A
C86    C616    1.433   .     S
C86    C605    1.425   .     S
C87    C88     1.389   .     A
C88    H94     1.082   .     S
H90    C125    1.086   .     S
H91    C421    1.088   1_545 S
H95    O106    0.990   .     S
N100   C612    1.157   1_554 S
O101   Zn118   1.928   .     S
O101   Zn117   1.943   .     S
O101   Zn116   1.942   .     S
O101   Zn115   1.970   .     S
O102   Zn116   1.937   .     S
O103   Zn118   1.948   .     S
O104   Zn117   1.937   .     S
O105   Zn115   1.927   .     S
O107   Zn115   1.934   .     S
O108   Zn118   1.943   .     S
O109   Zn116   1.924   .     S
O110   Zn117   1.936   .     S
O111   Zn118   1.931   .     S
O112   Zn115   1.922   .     S
O113   Zn116   1.949   .     S
O114   Zn117   1.936   .     S
C119   O170    1.268   .     A
C119   O168    1.269   .     A
C119   C125    1.438   .     S
C120   C134    1.399   .     A
C120   C139    1.454   .     S
C120   C144    1.418   .     A
C121   H148    1.086   .     S
C121   C133    1.392   .     A
C121   C134    1.390   .     A
C122   O171    1.289   .     A
C122   C124    1.470   .     S
C122   O169    1.287   .     A
C123   C132    1.475   .     S
C123   C143    1.420   .     A
C123   C135    1.403   .     A
C124   C7      1.337   1_655 S
C124   O47     1.386   1_655 S
C126   C129    1.454   .     S
C126   C304    1.345   .     S
C126   H327    1.088   .     S
C127   C128    1.426   .     S
C127   C480    1.345   1_545 S
C127   C490    1.450   1_545 S
C128   O166    1.276   .     A
C128   O172    1.276   .     A
C129   O167    1.264   .     A
C129   O173    1.276   .     A
C130   C135    1.390   .     A
C130   C140    1.441   .     S
C130   C672    1.393   .     S
C131   C134    1.452   .     S
C131   O163    1.277   .     A
C131   O161    1.271   .     A
C132   O162    1.285   .     A
C132   O164    1.285   .     A
C133   C669    1.445   1_554 S
C133   C676    1.425   1_554 S
C135   H151    1.085   .     S
C136   N155    1.158   .     T
C136   C304    1.450   .     S
C137   C146    1.446   .     S
C137   N156    1.158   .     T
C138   N157    1.158   .     T
C138   C664    1.445   .     S
C139   N158    1.158   .     T
C140   N690    1.157   .     S
C141   H152    1.080   .     S
C141   C661    1.393   1_554 S
C141   C673    1.416   1_554 S
C142   C143    1.415   .     A
C142   C672    1.416   .     S
C142   C675    1.427   .     S
C143   C147    1.404   .     A
C144   C673    1.427   1_554 S
C144   C676    1.433   1_554 S
C145   C146    1.419   .     A
C145   C675    1.433   .     S
C145   C664    1.425   .     S
C146   C147    1.389   .     A
C147   H153    1.082   .     S
H149   C7      1.086   1_655 S
H150   C480    1.088   1_545 S
H154   O165    0.990   .     S
N159   C671    1.157   1_554 S
O160   Zn177   1.928   .     S
O160   Zn176   1.943   .     S
O160   Zn175   1.942   .     S
O160   Zn174   1.970   .     S
O161   Zn175   1.937   .     S
O162   Zn177   1.948   .     S
O163   Zn176   1.937   .     S
O164   Zn174   1.927   .     S
O166   Zn174   1.934   .     S
O167   Zn177   1.943   .     S
O168   Zn175   1.924   .     S
O169   Zn176   1.936   .     S
O170   Zn177   1.931   .     S
O171   Zn174   1.922   .     S
O172   Zn175   1.949   .     S
O173   Zn176   1.936   .     S
C178   O229    1.268   .     A
C178   O227    1.269   .     A
C178   C184    1.438   .     S
C179   C193    1.399   .     A
C179   C198    1.454   .     S
C179   C203    1.418   .     A
C180   H207    1.086   .     S
C180   C192    1.392   .     A
C180   C193    1.390   .     A
C181   O230    1.289   .     A
C181   C183    1.470   .     S
C181   O228    1.287   .     A
C182   C191    1.475   .     S
C182   C202    1.420   .     A
C182   C194    1.403   .     A
C183   C243    1.337   .     S
C183   O283    1.386   .     S
C184   C301    1.337   1_455 S
C184   H326    1.086   1_455 S
C185   C188    1.454   .     S
C185   C363    1.345   .     S
C185   H386    1.088   .     S
C186   C187    1.426   .     S
C187   O225    1.276   .     A
C187   O231    1.276   .     A
C188   O226    1.264   .     A
C188   O232    1.276   .     A
C189   C194    1.390   .     A
C189   C199    1.441   .     S
C189   C731    1.393   .     S
C190   C193    1.452   .     S
C190   O222    1.277   .     A
C190   O220    1.271   .     A
C191   O221    1.285   .     A
C191   O223    1.285   .     A
C192   C728    1.445   1_554 S
C192   C735    1.425   1_554 S
C194   H210    1.085   .     S
C195   N214    1.158   .     T
C195   C363    1.450   .     S
C196   C205    1.446   .     S
C196   N215    1.158   .     T
C197   N216    1.158   .     T
C197   C723    1.445   .     S
C198   N217    1.158   .     T
C199   N749    1.157   .     S
C200   H211    1.080   .     S
C200   C720    1.393   1_554 S
C200   C732    1.416   1_554 S
C201   C202    1.415   .     A
C201   C731    1.416   .     S
C201   C734    1.427   .     S
C202   C206    1.404   .     A
C203   C732    1.427   1_554 S
C203   C735    1.433   1_554 S
C204   C205    1.419   .     A
C204   C734    1.433   .     S
C204   C723    1.425   .     S
C205   C206    1.389   .     A
C206   H212    1.082   .     S
H208   C243    1.086   .     S
H213   O224    0.990   .     S
N218   C730    1.157   1_554 S
O219   Zn236   1.928   .     S
O219   Zn235   1.943   .     S
O219   Zn234   1.942   .     S
O219   Zn233   1.970   .     S
O220   Zn234   1.937   .     S
O221   Zn236   1.948   .     S
O222   Zn235   1.937   .     S
O223   Zn233   1.927   .     S
O224   C301    1.386   1_455 S
O225   Zn233   1.934   .     S
O226   Zn236   1.943   .     S
O227   Zn234   1.924   .     S
O228   Zn235   1.936   .     S
O229   Zn236   1.931   .     S
O230   Zn233   1.922   .     S
O231   Zn234   1.949   .     S
O232   Zn235   1.936   .     S
C237   O288    1.268   .     A
C237   O286    1.269   .     A
C237   C243    1.438   .     S
C238   C252    1.399   .     A
C238   C257    1.454   .     S
C238   C262    1.418   .     A
C239   H266    1.086   .     S
C239   C251    1.392   .     A
C239   C252    1.390   .     A
C240   O289    1.289   .     A
C240   C242    1.470   .     S
C240   O287    1.287   .     A
C241   C250    1.475   .     S
C241   C261    1.420   .     A
C241   C253    1.403   .     A
C242   C302    1.337   .     S
C242   O342    1.386   .     S
C244   C247    1.454   .     S
C244   C422    1.345   .     S
C244   H445    1.088   .     S
C245   C246    1.426   .     S
C246   O284    1.276   .     A
C246   O290    1.276   .     A
C247   O285    1.264   .     A
C247   O291    1.276   .     A
C248   C253    1.390   .     A
C248   C258    1.441   .     S
C248   C790    1.393   .     S
C249   C252    1.452   .     S
C249   O281    1.277   .     A
C249   O279    1.271   .     A
C250   O280    1.285   .     A
C250   O282    1.285   .     A
C251   C787    1.445   1_554 S
C251   C794    1.425   1_554 S
C253   H269    1.085   .     S
C254   N273    1.158   .     T
C254   C422    1.450   .     S
C255   C264    1.446   .     S
C255   N274    1.158   .     T
C256   N275    1.158   .     T
C256   C782    1.445   .     S
C257   N276    1.158   .     T
C258   N808    1.157   .     S
C259   H270    1.080   .     S
C259   C779    1.393   1_554 S
C259   C791    1.416   1_554 S
C260   C261    1.415   .     A
C260   C790    1.416   .     S
C260   C793    1.427   .     S
C261   C265    1.404   .     A
C262   C791    1.427   1_554 S
C262   C794    1.433   1_554 S
C263   C264    1.419   .     A
C263   C793    1.433   .     S
C263   C782    1.425   .     S
C264   C265    1.389   .     A
C265   H271    1.082   .     S
H267   C302    1.086   .     S
H272   O283    0.990   .     S
N277   C789    1.157   1_554 S
O278   Zn295   1.928   .     S
O278   Zn294   1.943   .     S
O278   Zn293   1.942   .     S
O278   Zn292   1.970   .     S
O279   Zn293   1.937   .     S
O280   Zn295   1.948   .     S
O281   Zn294   1.937   .     S
O282   Zn292   1.927   .     S
O284   Zn292   1.934   .     S
O285   Zn295   1.943   .     S
O286   Zn293   1.924   .     S
O287   Zn294   1.936   .     S
O288   Zn295   1.931   .     S
O289   Zn292   1.922   .     S
O290   Zn293   1.949   .     S
O291   Zn294   1.936   .     S
C296   O347    1.268   .     A
C296   O345    1.269   .     A
C296   C302    1.438   .     S
C297   C311    1.399   .     A
C297   C316    1.454   .     S
C297   C321    1.418   .     A
C298   H325    1.086   .     S
C298   C310    1.392   .     A
C298   C311    1.390   .     A
C299   O348    1.289   .     A
C299   C301    1.470   .     S
C299   O346    1.287   .     A
C300   C309    1.475   .     S
C300   C320    1.420   .     A
C300   C312    1.403   .     A
C301   C184    1.337   1_655 S
C301   O224    1.386   1_655 S
C303   C306    1.454   .     S
C303   C481    1.345   .     S
C303   H504    1.088   .     S
C304   C305    1.426   .     S
C305   O343    1.276   .     A
C305   O349    1.276   .     A
C306   O344    1.264   .     A
C306   O350    1.276   .     A
C307   C312    1.390   .     A
C307   C317    1.441   .     S
C307   C849    1.393   .     S
C308   C311    1.452   .     S
C308   O340    1.277   .     A
C308   O338    1.271   .     A
C309   O339    1.285   .     A
C309   O341    1.285   .     A
C310   C846    1.445   1_554 S
C310   C853    1.425   1_554 S
C312   H328    1.085   .     S
C313   N332    1.158   .     T
C313   C481    1.450   .     S
C314   C323    1.446   .     S
C314   N333    1.158   .     T
C315   N334    1.158   .     T
C315   C841    1.445   .     S
C316   N335    1.158   .     T
C317   N867    1.157   .     S
C318   H329    1.080   .     S
C318   C838    1.393   1_554 S
C318   C850    1.416   1_554 S
C319   C320    1.415   .     A
C319   C849    1.416   .     S
C319   C852    1.427   .     S
C320   C324    1.404   .     A
C321   C850    1.427   1_554 S
C321   C853    1.433   1_554 S
C322   C323    1.419   .     A
C322   C852    1.433   .     S
C322   C841    1.425   .     S
C323   C324    1.389   .     A
C324   H330    1.082   .     S
H326   C184    1.086   1_655 S
H331   O342    0.990   .     S
N336   C848    1.157   1_554 S
O337   Zn354   1.928   .     S
O337   Zn353   1.943   .     S
O337   Zn352   1.942   .     S
O337   Zn351   1.970   .     S
O338   Zn352   1.937   .     S
O339   Zn354   1.948   .     S
O340   Zn353   1.937   .     S
O341   Zn351   1.927   .     S
O343   Zn351   1.934   .     S
O344   Zn354   1.943   .     S
O345   Zn352   1.924   .     S
O346   Zn353   1.936   .     S
O347   Zn354   1.931   .     S
O348   Zn351   1.922   .     S
O349   Zn352   1.949   .     S
O350   Zn353   1.936   .     S
C355   O406    1.268   .     A
C355   O404    1.269   .     A
C355   C361    1.438   .     S
C356   C370    1.399   .     A
C356   C375    1.454   .     S
C356   C380    1.418   .     A
C357   H384    1.086   .     S
C357   C369    1.392   .     A
C357   C370    1.390   .     A
C358   O407    1.289   .     A
C358   C360    1.470   .     S
C358   O405    1.287   .     A
C359   C368    1.475   .     S
C359   C379    1.420   .     A
C359   C371    1.403   .     A
C360   C420    1.337   .     S
C360   O460    1.386   .     S
C361   C478    1.337   1_455 S
C361   H503    1.086   1_455 S
C362   C365    1.454   .     S
C362   C9      1.345   1_565 S
C362   H32     1.088   1_565 S
C363   C364    1.426   .     S
C364   O402    1.276   .     A
C364   O408    1.276   .     A
C365   O403    1.264   .     A
C365   O409    1.276   .     A
C366   C371    1.390   .     A
C366   C376    1.441   .     S
C366   C908    1.393   .     S
C367   C370    1.452   .     S
C367   O399    1.277   .     A
C367   O397    1.271   .     A
C368   O398    1.285   .     A
C368   O400    1.285   .     A
C369   C905    1.445   1_554 S
C369   C912    1.425   1_554 S
C371   H387    1.085   .     S
C372   N391    1.158   .     T
C372   C9      1.450   1_565 S
C373   C382    1.446   .     S
C373   N392    1.158   .     T
C374   N393    1.158   .     T
C374   C900    1.445   .     S
C375   N394    1.158   .     T
C376   N926    1.157   .     S
C377   H388    1.080   .     S
C377   C897    1.393   1_554 S
C377   C909    1.416   1_554 S
C378   C379    1.415   .     A
C378   C908    1.416   .     S
C378   C911    1.427   .     S
C379   C383    1.404   .     A
C380   C909    1.427   1_554 S
C380   C912    1.433   1_554 S
C381   C382    1.419   .     A
C381   C911    1.433   .     S
C381   C900    1.425   .     S
C382   C383    1.389   .     A
C383   H389    1.082   .     S
H385   C420    1.086   .     S
H390   O401    0.990   .     S
N395   C907    1.157   1_554 S
O396   Zn413   1.928   .     S
O396   Zn412   1.943   .     S
O396   Zn411   1.942   .     S
O396   Zn410   1.970   .     S
O397   Zn411   1.937   .     S
O398   Zn413   1.948   .     S
O399   Zn412   1.937   .     S
O400   Zn410   1.927   .     S
O401   C478    1.386   1_455 S
O402   Zn410   1.934   .     S
O403   Zn413   1.943   .     S
O404   Zn411   1.924   .     S
O405   Zn412   1.936   .     S
O406   Zn413   1.931   .     S
O407   Zn410   1.922   .     S
O408   Zn411   1.949   .     S
O409   Zn412   1.936   .     S
C414   O465    1.268   .     A
C414   O463    1.269   .     A
C414   C420    1.438   .     S
C415   C429    1.399   .     A
C415   C434    1.454   .     S
C415   C439    1.418   .     A
C416   H443    1.086   .     S
C416   C428    1.392   .     A
C416   C429    1.390   .     A
C417   O466    1.289   .     A
C417   C419    1.470   .     S
C417   O464    1.287   .     A
C418   C427    1.475   .     S
C418   C438    1.420   .     A
C418   C430    1.403   .     A
C419   C479    1.337   .     S
C419   O519    1.386   .     S
C421   C424    1.454   .     S
C421   C68     1.345   1_565 S
C421   H91     1.088   1_565 S
C422   C423    1.426   .     S
C423   O461    1.276   .     A
C423   O467    1.276   .     A
C424   O462    1.264   .     A
C424   O468    1.276   .     A
C425   C430    1.390   .     A
C425   C435    1.441   .     S
C425   C967    1.393   .     S
C426   C429    1.452   .     S
C426   O458    1.277   .     A
C426   O456    1.271   .     A
C427   O457    1.285   .     A
C427   O459    1.285   .     A
C428   C964    1.445   1_554 S
C428   C971    1.425   1_554 S
C430   H446    1.085   .     S
C431   N450    1.158   .     T
C431   C68     1.450   1_565 S
C432   C441    1.446   .     S
C432   N451    1.158   .     T
C433   N452    1.158   .     T
C433   C959    1.445   .     S
C434   N453    1.158   .     T
C435   N985    1.157   .     S
C436   H447    1.080   .     S
C436   C956    1.393   1_554 S
C436   C968    1.416   1_554 S
C437   C438    1.415   .     A
C437   C967    1.416   .     S
C437   C970    1.427   .     S
C438   C442    1.404   .     A
C439   C968    1.427   1_554 S
C439   C971    1.433   1_554 S
C440   C441    1.419   .     A
C440   C970    1.433   .     S
C440   C959    1.425   .     S
C441   C442    1.389   .     A
C442   H448    1.082   .     S
H444   C479    1.086   .     S
H449   O460    0.990   .     S
N454   C966    1.157   1_554 S
O455   Zn472   1.928   .     S
O455   Zn471   1.943   .     S
O455   Zn470   1.942   .     S
O455   Zn469   1.970   .     S
O456   Zn470   1.937   .     S
O457   Zn472   1.948   .     S
O458   Zn471   1.937   .     S
O459   Zn469   1.927   .     S
O461   Zn469   1.934   .     S
O462   Zn472   1.943   .     S
O463   Zn470   1.924   .     S
O464   Zn471   1.936   .     S
O465   Zn472   1.931   .     S
O466   Zn469   1.922   .     S
O467   Zn470   1.949   .     S
O468   Zn471   1.936   .     S
C473   O524    1.268   .     A
C473   O522    1.269   .     A
C473   C479    1.438   .     S
C474   C488    1.399   .     A
C474   C493    1.454   .     S
C474   C498    1.418   .     A
C475   H502    1.086   .     S
C475   C487    1.392   .     A
C475   C488    1.390   .     A
C476   O525    1.289   .     A
C476   C478    1.470   .     S
C476   O523    1.287   .     A
C477   C486    1.475   .     S
C477   C497    1.420   .     A
C477   C489    1.403   .     A
C478   C361    1.337   1_655 S
C478   O401    1.386   1_655 S
C480   C483    1.454   .     S
C480   C127    1.345   1_565 S
C480   H150    1.088   1_565 S
C481   C482    1.426   .     S
C482   O520    1.276   .     A
C482   O526    1.276   .     A
C483   O521    1.264   .     A
C483   O527    1.276   .     A
C484   C489    1.390   .     A
C484   C494    1.441   .     S
C484   C1026   1.393   .     S
C485   C488    1.452   .     S
C485   O517    1.277   .     A
C485   O515    1.271   .     A
C486   O516    1.285   .     A
C486   O518    1.285   .     A
C487   C1023   1.445   1_554 S
C487   C1030   1.425   1_554 S
C489   H505    1.085   .     S
C490   N509    1.158   .     T
C490   C127    1.450   1_565 S
C491   C500    1.446   .     S
C491   N510    1.158   .     T
C492   N511    1.158   .     T
C492   C1018   1.445   .     S
C493   N512    1.158   .     T
C494   N1044   1.157   .     S
C495   H506    1.080   .     S
C495   C1015   1.393   1_554 S
C495   C1027   1.416   1_554 S
C496   C497    1.415   .     A
C496   C1026   1.416   .     S
C496   C1029   1.427   .     S
C497   C501    1.404   .     A
C498   C1027   1.427   1_554 S
C498   C1030   1.433   1_554 S
C499   C500    1.419   .     A
C499   C1029   1.433   .     S
C499   C1018   1.425   .     S
C500   C501    1.389   .     A
C501   H507    1.082   .     S
H503   C361    1.086   1_655 S
H508   O519    0.990   .     S
N513   C1025   1.157   1_554 S
O514   Zn531   1.928   .     S
O514   Zn530   1.943   .     S
O514   Zn529   1.942   .     S
O514   Zn528   1.970   .     S
O515   Zn529   1.937   .     S
O516   Zn531   1.948   .     S
O517   Zn530   1.937   .     S
O518   Zn528   1.927   .     S
O520   Zn528   1.934   .     S
O521   Zn531   1.943   .     S
O522   Zn529   1.924   .     S
O523   Zn530   1.936   .     S
O524   Zn531   1.931   .     S
O525   Zn528   1.922   .     S
O526   Zn529   1.949   .     S
O527   Zn530   1.936   .     S
C532   O583    1.268   .     A
C532   O581    1.269   .     A
C532   C538    1.438   .     S
C533   C547    1.399   .     A
C533   C552    1.454   .     S
C533   C557    1.418   .     A
C534   H561    1.086   .     S
C534   C546    1.392   .     A
C534   C547    1.390   .     A
C535   O584    1.289   .     A
C535   C537    1.470   .     S
C535   O582    1.287   .     A
C536   C545    1.475   .     S
C536   C556    1.420   .     A
C536   C548    1.403   .     A
C537   C597    1.337   .     S
C537   O637    1.386   .     S
C538   C655    1.337   1_455 S
C538   H680    1.086   1_455 S
C539   C542    1.454   .     S
C539   C717    1.345   .     S
C539   H740    1.088   .     S
C540   C541    1.426   .     S
C540   C893    1.345   1_545 S
C540   C903    1.450   1_545 S
C541   O579    1.276   .     A
C541   O585    1.276   .     A
C542   O580    1.264   .     A
C542   O586    1.276   .     A
C543   C548    1.390   .     A
C543   C553    1.441   .     S
C543   C23     1.393   1_556 S
C544   C547    1.452   .     S
C544   O576    1.277   .     A
C544   O574    1.271   .     A
C545   O575    1.285   .     A
C545   O577    1.285   .     A
C548   H564    1.085   .     S
C549   N568    1.158   .     T
C549   C717    1.450   .     S
C550   C559    1.446   .     S
C550   N569    1.158   .     T
C551   N570    1.158   .     T
C551   C15     1.445   1_556 S
C552   N571    1.158   .     T
C553   N41     1.157   1_556 S
C554   H565    1.080   .     S
C555   C556    1.415   .     A
C555   C23     1.416   1_556 S
C555   C26     1.427   1_556 S
C556   C560    1.404   .     A
C558   C559    1.419   .     A
C558   C26     1.433   1_556 S
C558   C15     1.425   1_556 S
C559   C560    1.389   .     A
C560   H566    1.082   .     S
H562   C597    1.086   .     S
H563   C893    1.088   1_545 S
H567   O578    0.990   .     S
O573   Zn590   1.928   .     S
O573   Zn589   1.943   .     S
O573   Zn588   1.942   .     S
O573   Zn587   1.970   .     S
O574   Zn588   1.937   .     S
O575   Zn590   1.948   .     S
O576   Zn589   1.937   .     S
O577   Zn587   1.927   .     S
O578   C655    1.386   1_455 S
O579   Zn587   1.934   .     S
O580   Zn590   1.943   .     S
O581   Zn588   1.924   .     S
O582   Zn589   1.936   .     S
O583   Zn590   1.931   .     S
O584   Zn587   1.922   .     S
O585   Zn588   1.949   .     S
O586   Zn589   1.936   .     S
C591   O642    1.268   .     A
C591   O640    1.269   .     A
C591   C597    1.438   .     S
C592   C606    1.399   .     A
C592   C611    1.454   .     S
C592   C616    1.418   .     A
C593   H620    1.086   .     S
C593   C605    1.392   .     A
C593   C606    1.390   .     A
C594   O643    1.289   .     A
C594   C596    1.470   .     S
C594   O641    1.287   .     A
C595   C604    1.475   .     S
C595   C615    1.420   .     A
C595   C607    1.403   .     A
C596   C656    1.337   .     S
C596   O696    1.386   .     S
C598   C601    1.454   .     S
C598   C776    1.345   .     S
C598   H799    1.088   .     S
C599   C600    1.426   .     S
C599   C952    1.345   1_545 S
C599   C962    1.450   1_545 S
C600   O638    1.276   .     A
C600   O644    1.276   .     A
C601   O639    1.264   .     A
C601   O645    1.276   .     A
C602   C607    1.390   .     A
C602   C612    1.441   .     S
C602   C82     1.393   1_556 S
C603   C606    1.452   .     S
C603   O635    1.277   .     A
C603   O633    1.271   .     A
C604   O634    1.285   .     A
C604   O636    1.285   .     A
C607   H623    1.085   .     S
C608   N627    1.158   .     T
C608   C776    1.450   .     S
C609   C618    1.446   .     S
C609   N628    1.158   .     T
C610   N629    1.158   .     T
C610   C74     1.445   1_556 S
C611   N630    1.158   .     T
C612   N100    1.157   1_556 S
C613   H624    1.080   .     S
C614   C615    1.415   .     A
C614   C82     1.416   1_556 S
C614   C85     1.427   1_556 S
C615   C619    1.404   .     A
C617   C618    1.419   .     A
C617   C85     1.433   1_556 S
C617   C74     1.425   1_556 S
C618   C619    1.389   .     A
C619   H625    1.082   .     S
H621   C656    1.086   .     S
H622   C952    1.088   1_545 S
H626   O637    0.990   .     S
O632   Zn649   1.928   .     S
O632   Zn648   1.943   .     S
O632   Zn647   1.942   .     S
O632   Zn646   1.970   .     S
O633   Zn647   1.937   .     S
O634   Zn649   1.948   .     S
O635   Zn648   1.937   .     S
O636   Zn646   1.927   .     S
O638   Zn646   1.934   .     S
O639   Zn649   1.943   .     S
O640   Zn647   1.924   .     S
O641   Zn648   1.936   .     S
O642   Zn649   1.931   .     S
O643   Zn646   1.922   .     S
O644   Zn647   1.949   .     S
O645   Zn648   1.936   .     S
C650   O701    1.268   .     A
C650   O699    1.269   .     A
C650   C656    1.438   .     S
C651   C665    1.399   .     A
C651   C670    1.454   .     S
C651   C675    1.418   .     A
C652   H679    1.086   .     S
C652   C664    1.392   .     A
C652   C665    1.390   .     A
C653   O702    1.289   .     A
C653   C655    1.470   .     S
C653   O700    1.287   .     A
C654   C663    1.475   .     S
C654   C674    1.420   .     A
C654   C666    1.403   .     A
C655   C538    1.337   1_655 S
C655   O578    1.386   1_655 S
C657   C660    1.454   .     S
C657   C835    1.345   .     S
C657   H858    1.088   .     S
C658   C659    1.426   .     S
C658   C1011   1.345   1_545 S
C658   C1021   1.450   1_545 S
C659   O697    1.276   .     A
C659   O703    1.276   .     A
C660   O698    1.264   .     A
C660   O704    1.276   .     A
C661   C666    1.390   .     A
C661   C671    1.441   .     S
C661   C141    1.393   1_556 S
C662   C665    1.452   .     S
C662   O694    1.277   .     A
C662   O692    1.271   .     A
C663   O693    1.285   .     A
C663   O695    1.285   .     A
C666   H682    1.085   .     S
C667   N686    1.158   .     T
C667   C835    1.450   .     S
C668   C677    1.446   .     S
C668   N687    1.158   .     T
C669   N688    1.158   .     T
C669   C133    1.445   1_556 S
C670   N689    1.158   .     T
C671   N159    1.157   1_556 S
C672   H683    1.080   .     S
C673   C674    1.415   .     A
C673   C141    1.416   1_556 S
C673   C144    1.427   1_556 S
C674   C678    1.404   .     A
C676   C677    1.419   .     A
C676   C144    1.433   1_556 S
C676   C133    1.425   1_556 S
C677   C678    1.389   .     A
C678   H684    1.082   .     S
H680   C538    1.086   1_655 S
H681   C1011   1.088   1_545 S
H685   O696    0.990   .     S
O691   Zn708   1.928   .     S
O691   Zn707   1.943   .     S
O691   Zn706   1.942   .     S
O691   Zn705   1.970   .     S
O692   Zn706   1.937   .     S
O693   Zn708   1.948   .     S
O694   Zn707   1.937   .     S
O695   Zn705   1.927   .     S
O697   Zn705   1.934   .     S
O698   Zn708   1.943   .     S
O699   Zn706   1.924   .     S
O700   Zn707   1.936   .     S
O701   Zn708   1.931   .     S
O702   Zn705   1.922   .     S
O703   Zn706   1.949   .     S
O704   Zn707   1.936   .     S
C709   O760    1.268   .     A
C709   O758    1.269   .     A
C709   C715    1.438   .     S
C710   C724    1.399   .     A
C710   C729    1.454   .     S
C710   C734    1.418   .     A
C711   H738    1.086   .     S
C711   C723    1.392   .     A
C711   C724    1.390   .     A
C712   O761    1.289   .     A
C712   C714    1.470   .     S
C712   O759    1.287   .     A
C713   C722    1.475   .     S
C713   C733    1.420   .     A
C713   C725    1.403   .     A
C714   C774    1.337   .     S
C714   O814    1.386   .     S
C715   C832    1.337   1_455 S
C715   H857    1.086   1_455 S
C716   C719    1.454   .     S
C716   C894    1.345   .     S
C716   H917    1.088   .     S
C717   C718    1.426   .     S
C718   O756    1.276   .     A
C718   O762    1.276   .     A
C719   O757    1.264   .     A
C719   O763    1.276   .     A
C720   C725    1.390   .     A
C720   C730    1.441   .     S
C720   C200    1.393   1_556 S
C721   C724    1.452   .     S
C721   O753    1.277   .     A
C721   O751    1.271   .     A
C722   O752    1.285   .     A
C722   O754    1.285   .     A
C725   H741    1.085   .     S
C726   N745    1.158   .     T
C726   C894    1.450   .     S
C727   C736    1.446   .     S
C727   N746    1.158   .     T
C728   N747    1.158   .     T
C728   C192    1.445   1_556 S
C729   N748    1.158   .     T
C730   N218    1.157   1_556 S
C731   H742    1.080   .     S
C732   C733    1.415   .     A
C732   C200    1.416   1_556 S
C732   C203    1.427   1_556 S
C733   C737    1.404   .     A
C735   C736    1.419   .     A
C735   C203    1.433   1_556 S
C735   C192    1.425   1_556 S
C736   C737    1.389   .     A
C737   H743    1.082   .     S
H739   C774    1.086   .     S
H744   O755    0.990   .     S
O750   Zn767   1.928   .     S
O750   Zn766   1.943   .     S
O750   Zn765   1.942   .     S
O750   Zn764   1.970   .     S
O751   Zn765   1.937   .     S
O752   Zn767   1.948   .     S
O753   Zn766   1.937   .     S
O754   Zn764   1.927   .     S
O755   C832    1.386   1_455 S
O756   Zn764   1.934   .     S
O757   Zn767   1.943   .     S
O758   Zn765   1.924   .     S
O759   Zn766   1.936   .     S
O760   Zn767   1.931   .     S
O761   Zn764   1.922   .     S
O762   Zn765   1.949   .     S
O763   Zn766   1.936   .     S
C768   O819    1.268   .     A
C768   O817    1.269   .     A
C768   C774    1.438   .     S
C769   C783    1.399   .     A
C769   C788    1.454   .     S
C769   C793    1.418   .     A
C770   H797    1.086   .     S
C770   C782    1.392   .     A
C770   C783    1.390   .     A
C771   O820    1.289   .     A
C771   C773    1.470   .     S
C771   O818    1.287   .     A
C772   C781    1.475   .     S
C772   C792    1.420   .     A
C772   C784    1.403   .     A
C773   C833    1.337   .     S
C773   O873    1.386   .     S
C775   C778    1.454   .     S
C775   C953    1.345   .     S
C775   H976    1.088   .     S
C776   C777    1.426   .     S
C777   O815    1.276   .     A
C777   O821    1.276   .     A
C778   O816    1.264   .     A
C778   O822    1.276   .     A
C779   C784    1.390   .     A
C779   C789    1.441   .     S
C779   C259    1.393   1_556 S
C780   C783    1.452   .     S
C780   O812    1.277   .     A
C780   O810    1.271   .     A
C781   O811    1.285   .     A
C781   O813    1.285   .     A
C784   H800    1.085   .     S
C785   N804    1.158   .     T
C785   C953    1.450   .     S
C786   C795    1.446   .     S
C786   N805    1.158   .     T
C787   N806    1.158   .     T
C787   C251    1.445   1_556 S
C788   N807    1.158   .     T
C789   N277    1.157   1_556 S
C790   H801    1.080   .     S
C791   C792    1.415   .     A
C791   C259    1.416   1_556 S
C791   C262    1.427   1_556 S
C792   C796    1.404   .     A
C794   C795    1.419   .     A
C794   C262    1.433   1_556 S
C794   C251    1.425   1_556 S
C795   C796    1.389   .     A
C796   H802    1.082   .     S
H798   C833    1.086   .     S
H803   O814    0.990   .     S
O809   Zn826   1.928   .     S
O809   Zn825   1.943   .     S
O809   Zn824   1.942   .     S
O809   Zn823   1.970   .     S
O810   Zn824   1.937   .     S
O811   Zn826   1.948   .     S
O812   Zn825   1.937   .     S
O813   Zn823   1.927   .     S
O815   Zn823   1.934   .     S
O816   Zn826   1.943   .     S
O817   Zn824   1.924   .     S
O818   Zn825   1.936   .     S
O819   Zn826   1.931   .     S
O820   Zn823   1.922   .     S
O821   Zn824   1.949   .     S
O822   Zn825   1.936   .     S
C827   O878    1.268   .     A
C827   O876    1.269   .     A
C827   C833    1.438   .     S
C828   C842    1.399   .     A
C828   C847    1.454   .     S
C828   C852    1.418   .     A
C829   H856    1.086   .     S
C829   C841    1.392   .     A
C829   C842    1.390   .     A
C830   O879    1.289   .     A
C830   C832    1.470   .     S
C830   O877    1.287   .     A
C831   C840    1.475   .     S
C831   C851    1.420   .     A
C831   C843    1.403   .     A
C832   C715    1.337   1_655 S
C832   O755    1.386   1_655 S
C834   C837    1.454   .     S
C834   C1012   1.345   .     S
C834   H1035   1.088   .     S
C835   C836    1.426   .     S
C836   O874    1.276   .     A
C836   O880    1.276   .     A
C837   O875    1.264   .     A
C837   O881    1.276   .     A
C838   C843    1.390   .     A
C838   C848    1.441   .     S
C838   C318    1.393   1_556 S
C839   C842    1.452   .     S
C839   O871    1.277   .     A
C839   O869    1.271   .     A
C840   O870    1.285   .     A
C840   O872    1.285   .     A
C843   H859    1.085   .     S
C844   N863    1.158   .     T
C844   C1012   1.450   .     S
C845   C854    1.446   .     S
C845   N864    1.158   .     T
C846   N865    1.158   .     T
C846   C310    1.445   1_556 S
C847   N866    1.158   .     T
C848   N336    1.157   1_556 S
C849   H860    1.080   .     S
C850   C851    1.415   .     A
C850   C318    1.416   1_556 S
C850   C321    1.427   1_556 S
C851   C855    1.404   .     A
C853   C854    1.419   .     A
C853   C321    1.433   1_556 S
C853   C310    1.425   1_556 S
C854   C855    1.389   .     A
C855   H861    1.082   .     S
H857   C715    1.086   1_655 S
H862   O873    0.990   .     S
O868   Zn885   1.928   .     S
O868   Zn884   1.943   .     S
O868   Zn883   1.942   .     S
O868   Zn882   1.970   .     S
O869   Zn883   1.937   .     S
O870   Zn885   1.948   .     S
O871   Zn884   1.937   .     S
O872   Zn882   1.927   .     S
O874   Zn882   1.934   .     S
O875   Zn885   1.943   .     S
O876   Zn883   1.924   .     S
O877   Zn884   1.936   .     S
O878   Zn885   1.931   .     S
O879   Zn882   1.922   .     S
O880   Zn883   1.949   .     S
O881   Zn884   1.936   .     S
C886   O937    1.268   .     A
C886   O935    1.269   .     A
C886   C892    1.438   .     S
C887   C901    1.399   .     A
C887   C906    1.454   .     S
C887   C911    1.418   .     A
C888   H915    1.086   .     S
C888   C900    1.392   .     A
C888   C901    1.390   .     A
C889   O938    1.289   .     A
C889   C891    1.470   .     S
C889   O936    1.287   .     A
C890   C899    1.475   .     S
C890   C910    1.420   .     A
C890   C902    1.403   .     A
C891   C951    1.337   .     S
C891   O991    1.386   .     S
C892   C1009   1.337   1_455 S
C892   H1034   1.086   1_455 S
C893   C896    1.454   .     S
C893   C540    1.345   1_565 S
C893   H563    1.088   1_565 S
C894   C895    1.426   .     S
C895   O933    1.276   .     A
C895   O939    1.276   .     A
C896   O934    1.264   .     A
C896   O940    1.276   .     A
C897   C902    1.390   .     A
C897   C907    1.441   .     S
C897   C377    1.393   1_556 S
C898   C901    1.452   .     S
C898   O930    1.277   .     A
C898   O928    1.271   .     A
C899   O929    1.285   .     A
C899   O931    1.285   .     A
C902   H918    1.085   .     S
C903   N922    1.158   .     T
C903   C540    1.450   1_565 S
C904   C913    1.446   .     S
C904   N923    1.158   .     T
C905   N924    1.158   .     T
C905   C369    1.445   1_556 S
C906   N925    1.158   .     T
C907   N395    1.157   1_556 S
C908   H919    1.080   .     S
C909   C910    1.415   .     A
C909   C377    1.416   1_556 S
C909   C380    1.427   1_556 S
C910   C914    1.404   .     A
C912   C913    1.419   .     A
C912   C380    1.433   1_556 S
C912   C369    1.425   1_556 S
C913   C914    1.389   .     A
C914   H920    1.082   .     S
H916   C951    1.086   .     S
H921   O932    0.990   .     S
O927   Zn944   1.928   .     S
O927   Zn943   1.943   .     S
O927   Zn942   1.942   .     S
O927   Zn941   1.970   .     S
O928   Zn942   1.937   .     S
O929   Zn944   1.948   .     S
O930   Zn943   1.937   .     S
O931   Zn941   1.927   .     S
O932   C1009   1.386   1_455 S
O933   Zn941   1.934   .     S
O934   Zn944   1.943   .     S
O935   Zn942   1.924   .     S
O936   Zn943   1.936   .     S
O937   Zn944   1.931   .     S
O938   Zn941   1.922   .     S
O939   Zn942   1.949   .     S
O940   Zn943   1.936   .     S
C945   O996    1.268   .     A
C945   O994    1.269   .     A
C945   C951    1.438   .     S
C946   C960    1.399   .     A
C946   C965    1.454   .     S
C946   C970    1.418   .     A
C947   H974    1.086   .     S
C947   C959    1.392   .     A
C947   C960    1.390   .     A
C948   O997    1.289   .     A
C948   C950    1.470   .     S
C948   O995    1.287   .     A
C949   C958    1.475   .     S
C949   C969    1.420   .     A
C949   C961    1.403   .     A
C950   C1010   1.337   .     S
C950   O1050   1.386   .     S
C952   C955    1.454   .     S
C952   C599    1.345   1_565 S
C952   H622    1.088   1_565 S
C953   C954    1.426   .     S
C954   O992    1.276   .     A
C954   O998    1.276   .     A
C955   O993    1.264   .     A
C955   O999    1.276   .     A
C956   C961    1.390   .     A
C956   C966    1.441   .     S
C956   C436    1.393   1_556 S
C957   C960    1.452   .     S
C957   O989    1.277   .     A
C957   O987    1.271   .     A
C958   O988    1.285   .     A
C958   O990    1.285   .     A
C961   H977    1.085   .     S
C962   N981    1.158   .     T
C962   C599    1.450   1_565 S
C963   C972    1.446   .     S
C963   N982    1.158   .     T
C964   N983    1.158   .     T
C964   C428    1.445   1_556 S
C965   N984    1.158   .     T
C966   N454    1.157   1_556 S
C967   H978    1.080   .     S
C968   C969    1.415   .     A
C968   C436    1.416   1_556 S
C968   C439    1.427   1_556 S
C969   C973    1.404   .     A
C971   C972    1.419   .     A
C971   C439    1.433   1_556 S
C971   C428    1.425   1_556 S
C972   C973    1.389   .     A
C973   H979    1.082   .     S
H975   C1010   1.086   .     S
H980   O991    0.990   .     S
O986   Zn1003  1.928   .     S
O986   Zn1002  1.943   .     S
O986   Zn1001  1.942   .     S
O986   Zn1000  1.970   .     S
O987   Zn1001  1.937   .     S
O988   Zn1003  1.948   .     S
O989   Zn1002  1.937   .     S
O990   Zn1000  1.927   .     S
O992   Zn1000  1.934   .     S
O993   Zn1003  1.943   .     S
O994   Zn1001  1.924   .     S
O995   Zn1002  1.936   .     S
O996   Zn1003  1.931   .     S
O997   Zn1000  1.922   .     S
O998   Zn1001  1.949   .     S
O999   Zn1002  1.936   .     S
C1004  O1055   1.268   .     A
C1004  O1053   1.269   .     A
C1004  C1010   1.438   .     S
C1005  C1019   1.399   .     A
C1005  C1024   1.454   .     S
C1005  C1029   1.418   .     A
C1006  H1033   1.086   .     S
C1006  C1018   1.392   .     A
C1006  C1019   1.390   .     A
C1007  O1056   1.289   .     A
C1007  C1009   1.470   .     S
C1007  O1054   1.287   .     A
C1008  C1017   1.475   .     S
C1008  C1028   1.420   .     A
C1008  C1020   1.403   .     A
C1009  C892    1.337   1_655 S
C1009  O932    1.386   1_655 S
C1011  C1014   1.454   .     S
C1011  C658    1.345   1_565 S
C1011  H681    1.088   1_565 S
C1012  C1013   1.426   .     S
C1013  O1051   1.276   .     A
C1013  O1057   1.276   .     A
C1014  O1052   1.264   .     A
C1014  O1058   1.276   .     A
C1015  C1020   1.390   .     A
C1015  C1025   1.441   .     S
C1015  C495    1.393   1_556 S
C1016  C1019   1.452   .     S
C1016  O1048   1.277   .     A
C1016  O1046   1.271   .     A
C1017  O1047   1.285   .     A
C1017  O1049   1.285   .     A
C1020  H1036   1.085   .     S
C1021  N1040   1.158   .     T
C1021  C658    1.450   1_565 S
C1022  C1031   1.446   .     S
C1022  N1041   1.158   .     T
C1023  N1042   1.158   .     T
C1023  C487    1.445   1_556 S
C1024  N1043   1.158   .     T
C1025  N513    1.157   1_556 S
C1026  H1037   1.080   .     S
C1027  C1028   1.415   .     A
C1027  C495    1.416   1_556 S
C1027  C498    1.427   1_556 S
C1028  C1032   1.404   .     A
C1030  C1031   1.419   .     A
C1030  C498    1.433   1_556 S
C1030  C487    1.425   1_556 S
C1031  C1032   1.389   .     A
C1032  H1038   1.082   .     S
H1034  C892    1.086   1_655 S
H1039  O1050   0.990   .     S
O1045  Zn1062  1.928   .     S
O1045  Zn1061  1.943   .     S
O1045  Zn1060  1.942   .     S
O1045  Zn1059  1.970   .     S
O1046  Zn1060  1.937   .     S
O1047  Zn1062  1.948   .     S
O1048  Zn1061  1.937   .     S
O1049  Zn1059  1.927   .     S
O1051  Zn1059  1.934   .     S
O1052  Zn1062  1.943   .     S
O1053  Zn1060  1.924   .     S
O1054  Zn1061  1.936   .     S
O1055  Zn1062  1.931   .     S
O1056  Zn1059  1.922   .     S
O1057  Zn1060  1.949   .     S
O1058  Zn1061  1.936   .     S
