data_str_m1_o1_o17_pcu_sym.40
_audit_creation_date              2020-01-03
_audit_creation_method            'Materials Studio'
_symmetry_space_group_name_H-M    'P1'
_symmetry_Int_Tables_number       1
_symmetry_cell_setting            triclinic
loop_
_symmetry_equiv_pos_as_xyz
  x,y,z
_cell_length_a                    36.7042
_cell_length_b                    36.7046
_cell_length_c                    34.3587
_cell_angle_alpha                 90.0425
_cell_angle_beta                  90.0327
_cell_angle_gamma                 89.8062
loop_
_atom_site_label
_atom_site_type_symbol
_atom_site_fract_x
_atom_site_fract_y
_atom_site_fract_z
_atom_site_U_iso_or_equiv
_atom_site_adp_type
_atom_site_occupancy
C1     C     0.00740   0.28261   0.41815   0.00000  Uiso   1.00
C2     C     0.23347   0.47106   0.08243   0.00000  Uiso   1.00
C3     C     0.22324   0.47946   0.54066   0.00000  Uiso   1.00
C4     C     0.00487   0.28319   0.45912   0.00000  Uiso   1.00
C5     C     0.49450   0.21666   0.54115   0.00000  Uiso   1.00
C6     C     0.22234   0.48096   0.45850   0.00000  Uiso   1.00
C7     C     0.27908   0.01632   0.54075   0.00000  Uiso   1.00
C8     C     0.23151   0.47196   0.95923   0.00000  Uiso   1.00
C9     C     0.26778   0.02833   0.04148   0.00000  Uiso   1.00
C10    C     0.03333   0.25534   0.95877   0.00000  Uiso   1.00
C11    C     0.46693   0.24471   0.04092   0.00000  Uiso   1.00
C12    C     0.26938   0.02710   0.95944   0.00000  Uiso   1.00
C13    C     0.46744   0.24326   0.91757   0.00000  Uiso   1.00
C14    C     0.23173   0.47155   0.04142   0.00000  Uiso   1.00
C15    C     0.46707   0.24335   0.95866   0.00000  Uiso   1.00
C16    C     0.03340   0.25270   0.04103   0.00000  Uiso   1.00
C17    C     0.09832   0.34806   0.24986   0.00000  Uiso   1.00
C18    C     0.40185   0.15189   0.74998   0.00000  Uiso   1.00
C19    C     0.15190   0.09810   0.25000   0.00000  Uiso   1.00
C20    C     0.34810   0.40196   0.74997   0.00000  Uiso   1.00
C21    C     0.40196   0.15165   0.25017   0.00000  Uiso   1.00
C22    C     0.09823   0.34822   0.75002   0.00000  Uiso   1.00
C23    C     0.34809   0.40189   0.25000   0.00000  Uiso   1.00
C24    C     0.03242   0.25671   0.08188   0.00000  Uiso   1.00
C25    C     0.15197   0.09810   0.75004   0.00000  Uiso   1.00
C26    C     0.09824   0.15195   0.75005   0.00000  Uiso   1.00
C27    C     0.40190   0.34809   0.25000   0.00000  Uiso   1.00
C28    C     0.15193   0.40193   0.74997   0.00000  Uiso   1.00
C29    C     0.34814   0.09803   0.25010   0.00000  Uiso   1.00
C30    C     0.40193   0.34823   0.74995   0.00000  Uiso   1.00
C31    C     0.09810   0.15190   0.25000   0.00000  Uiso   1.00
C32    C     0.34811   0.09810   0.75000   0.00000  Uiso   1.00
C33    C     0.15195   0.40189   0.24992   0.00000  Uiso   1.00
C34    C     0.00097   0.24990   0.47962   0.00000  Uiso   1.00
C35    C     0.22834   0.47498   0.91837   0.00000  Uiso   1.00
C36    C     0.00052   0.24985   0.52076   0.00000  Uiso   1.00
C37    C     0.25106   0.49835   0.47910   0.00000  Uiso   1.00
C38    C     0.25124   0.49785   0.52013   0.00000  Uiso   1.00
C39    C     0.25030   0.49959   0.97991   0.00000  Uiso   1.00
C40    C     0.24986   0.49986   0.02093   0.00000  Uiso   1.00
C41    C     0.00021   0.24913   0.97923   0.00000  Uiso   1.00
C42    C     0.00020   0.24870   0.02037   0.00000  Uiso   1.00
C43    C     0.05255   0.31659   0.38901   0.00000  Uiso   1.00
C44    C     0.07053   0.34526   0.41516   0.00000  Uiso   1.00
C45    C     0.10905   0.35438   0.40185   0.00000  Uiso   1.00
C46    C     0.26616   0.02886   0.08244   0.00000  Uiso   1.00
C47    C     0.01591   0.16778   0.61618   0.00000  Uiso   1.00
C48    C     0.00520   0.12956   0.62969   0.00000  Uiso   1.00
C49    C     0.03702   0.10959   0.64877   0.00000  Uiso   1.00
C50    C     0.16637   0.49604   0.39019   0.00000  Uiso   1.00
C51    C     0.13751   0.48157   0.36215   0.00000  Uiso   1.00
C52    C     0.10683   0.00913   0.35609   0.00000  Uiso   1.00
C53    C     0.28047   0.07944   0.60434   0.00000  Uiso   1.00
C54    C     0.30029   0.10742   0.57912   0.00000  Uiso   1.00
C55    C     0.28674   0.14601   0.58739   0.00000  Uiso   1.00
C56    C     0.44601   0.18529   0.39069   0.00000  Uiso   1.00
C57    C     0.03281   0.25638   0.91765   0.00000  Uiso   1.00
C58    C     0.42821   0.15776   0.41825   0.00000  Uiso   1.00
C59    C     0.38904   0.14940   0.40651   0.00000  Uiso   1.00
C60    C     0.48622   0.33230   0.61662   0.00000  Uiso   1.00
C61    C     0.49882   0.36852   0.63400   0.00000  Uiso   1.00
C62    C     0.46755   0.38917   0.65330   0.00000  Uiso   1.00
C63    C     0.33369   0.00284   0.38789   0.00000  Uiso   1.00
C64    C     0.36198   0.01797   0.35964   0.00000  Uiso   1.00
C65    C     0.39213   0.49030   0.35147   0.00000  Uiso   1.00
C66    C     0.21164   0.42049   0.60350   0.00000  Uiso   1.00
C67    C     0.18458   0.39866   0.62790   0.00000  Uiso   1.00
C68    C     0.46754   0.24226   0.08188   0.00000  Uiso   1.00
C69    C     0.19714   0.35933   0.63339   0.00000  Uiso   1.00
C70    C     0.33035   0.03004   0.89348   0.00000  Uiso   1.00
C71    C     0.35940   0.04876   0.91835   0.00000  Uiso   1.00
C72    C     0.39754   0.03523   0.90800   0.00000  Uiso   1.00
C73    C     0.24618   0.41645   0.11090   0.00000  Uiso   1.00
C74    C     0.23162   0.38810   0.13942   0.00000  Uiso   1.00
C75    C     0.25925   0.35765   0.14641   0.00000  Uiso   1.00
C76    C     0.41772   0.26611   0.88508   0.00000  Uiso   1.00
C77    C     0.37966   0.25544   0.87098   0.00000  Uiso   1.00
C78    C     0.35907   0.28783   0.85386   0.00000  Uiso   1.00
C79    C     0.00015   0.25018   0.39808   0.00000  Uiso   1.00
C80    C     0.06465   0.30413   0.10913   0.00000  Uiso   1.00
C81    C     0.09187   0.32203   0.08129   0.00000  Uiso   1.00
C82    C     0.10013   0.36126   0.09289   0.00000  Uiso   1.00
C83    C     0.16964   0.46530   0.89918   0.00000  Uiso   1.00
C84    C     0.14536   0.44076   0.87434   0.00000  Uiso   1.00
C85    C     0.10633   0.45507   0.87249   0.00000  Uiso   1.00
C86    C     0.25394   0.08373   0.11064   0.00000  Uiso   1.00
C87    C     0.26879   0.11214   0.13899   0.00000  Uiso   1.00
C88    C     0.24141   0.14284   0.14586   0.00000  Uiso   1.00
C89    C     0.08232   0.23659   0.88240   0.00000  Uiso   1.00
C90    C     0.00002   0.24978   0.60219   0.00000  Uiso   1.00
C91    C     0.11859   0.24945   0.86545   0.00000  Uiso   1.00
C92    C     0.13890   0.21865   0.84489   0.00000  Uiso   1.00
C93    C     0.43388   0.19690   0.11105   0.00000  Uiso   1.00
C94    C     0.40543   0.17869   0.08481   0.00000  Uiso   1.00
C95    C     0.39656   0.14011   0.09813   0.00000  Uiso   1.00
C96    C     0.25023   0.49983   0.39781   0.00000  Uiso   1.00
C97    C     0.49373   0.21706   0.58229   0.00000  Uiso   1.00
C98    C     0.25006   0.49968   0.60165   0.00000  Uiso   1.00
C99    C     0.25031   0.49990   0.89836   0.00000  Uiso   1.00
C100   C     0.24989   0.49996   0.10221   0.00000  Uiso   1.00
C101   C     0.00008   0.24996   0.89781   0.00000  Uiso   1.00
C102   C     0.49993   0.24979   0.10191   0.00000  Uiso   1.00
C103   C     0.49588   0.18348   0.47965   0.00000  Uiso   1.00
C104   C     0.01099   0.31584   0.52056   0.00000  Uiso   1.00
C105   C     0.30786   0.03369   0.47948   0.00000  Uiso   1.00
C106   C     0.19398   0.46365   0.52004   0.00000  Uiso   1.00
C107   C     0.00604   0.31626   0.47986   0.00000  Uiso   1.00
C108   C     0.22147   0.48328   0.41757   0.00000  Uiso   1.00
C109   C     0.49060   0.18371   0.52010   0.00000  Uiso   1.00
C110   C     0.19502   0.46197   0.47904   0.00000  Uiso   1.00
C111   C     0.30895   0.03122   0.52025   0.00000  Uiso   1.00
C112   C     0.21528   0.44282   0.97987   0.00000  Uiso   1.00
C113   C     0.28654   0.05574   0.02082   0.00000  Uiso   1.00
C114   C     0.06632   0.25923   0.97975   0.00000  Uiso   1.00
C115   C     0.43385   0.24335   0.02023   0.00000  Uiso   1.00
C116   C     0.28473   0.05663   0.97984   0.00000  Uiso   1.00
C117   C     0.21326   0.44388   0.02070   0.00000  Uiso   1.00
C118   C     0.43427   0.23837   0.97956   0.00000  Uiso   1.00
C119   C     0.27558   0.02073   0.58132   0.00000  Uiso   1.00
C120   C     0.06660   0.25403   0.02024   0.00000  Uiso   1.00
C121   C     0.24999  -0.00000   0.35566   0.00000  Uiso   1.00
C122   C     0.24997   0.49997   0.64412   0.00000  Uiso   1.00
C123   C     0.00002   0.25014   0.35577   0.00000  Uiso   1.00
C124   C    -0.00000   0.24981   0.64433   0.00000  Uiso   1.00
C125   C     0.49994   0.25002   0.85567   0.00000  Uiso   1.00
C126   C     0.49994   0.24997   0.14422   0.00000  Uiso   1.00
C127   C     0.25006   0.00012   0.85588   0.00000  Uiso   1.00
C128   C     0.24998   0.49999   0.14435   0.00000  Uiso   1.00
C129   C     0.17999   0.07001   0.25000   0.00000  Uiso   1.00
C130   C     0.49328   0.21767   0.41806   0.00000  Uiso   1.00
C131   C     0.31999   0.43001   0.75000   0.00000  Uiso   1.00
C132   C     0.42998   0.17988   0.25005   0.00000  Uiso   1.00
C133   C     0.07007   0.32008   0.75001   0.00000  Uiso   1.00
C134   C     0.32001   0.42999   0.25000   0.00000  Uiso   1.00
C135   C     0.18001   0.06999   0.75001   0.00000  Uiso   1.00
C136   C     0.07011   0.32002   0.24995   0.00000  Uiso   1.00
C137   C     0.42997   0.17998   0.74999   0.00000  Uiso   1.00
C138   C     0.17998   0.42998   0.74999   0.00000  Uiso   1.00
C139   C     0.32003   0.07002   0.25002   0.00000  Uiso   1.00
C140   C     0.42999   0.32005   0.74998   0.00000  Uiso   1.00
C141   C     0.00673   0.28246   0.58249   0.00000  Uiso   1.00
C142   C     0.07000   0.18000   0.25000   0.00000  Uiso   1.00
C143   C     0.32003   0.07002   0.75000   0.00000  Uiso   1.00
C144   C     0.17997   0.42998   0.24998   0.00000  Uiso   1.00
C145   C     0.07005   0.18000   0.75002   0.00000  Uiso   1.00
C146   C     0.43000   0.31999   0.25000   0.00000  Uiso   1.00
C147   C     0.12945   0.39723   0.21685   0.00000  Uiso   1.00
C148   C     0.36193   0.11078   0.78563   0.00000  Uiso   1.00
C149   C     0.11268   0.13944   0.21418   0.00000  Uiso   1.00
C150   C     0.39259   0.36550   0.78516   0.00000  Uiso   1.00
C151   C     0.37091   0.10236   0.21724   0.00000  Uiso   1.00
C152   C     0.27958   0.01543   0.41759   0.00000  Uiso   1.00
C153   C     0.11529   0.41203   0.75514   0.00000  Uiso   1.00
C154   C     0.38757   0.36080   0.21417   0.00000  Uiso   1.00
C155   C     0.10791   0.13505   0.78533   0.00000  Uiso   1.00
C156   C     0.13647   0.10962   0.78572   0.00000  Uiso   1.00
C157   C     0.36171   0.38905   0.21433   0.00000  Uiso   1.00
C158   C     0.08846   0.38473   0.75741   0.00000  Uiso   1.00
C159   C     0.39974   0.12701   0.21876   0.00000  Uiso   1.00
C160   C     0.36389   0.39074   0.78560   0.00000  Uiso   1.00
C161   C     0.13858   0.11121   0.21433   0.00000  Uiso   1.00
C162   C     0.38794   0.13878   0.78582   0.00000  Uiso   1.00
C163   C     0.22509   0.47764   0.58168   0.00000  Uiso   1.00
C164   C     0.10076   0.37238   0.21821   0.00000  Uiso   1.00
C165   C     0.38867   0.13795   0.71414   0.00000  Uiso   1.00
C166   C     0.12278   0.35047   0.28141   0.00000  Uiso   1.00
C167   C     0.35940   0.38626   0.71432   0.00000  Uiso   1.00
C168   C     0.13877   0.11141   0.28567   0.00000  Uiso   1.00
C169   C     0.13472   0.33844   0.74262   0.00000  Uiso   1.00
C170   C     0.37749   0.14937   0.28170   0.00000  Uiso   1.00
C171   C     0.14055   0.11370   0.71439   0.00000  Uiso   1.00
C172   C     0.36089   0.38824   0.28566   0.00000  Uiso   1.00
C173   C     0.38916   0.36240   0.28582   0.00000  Uiso   1.00
C174   C     0.27253   0.02451   0.91870   0.00000  Uiso   1.00
C175   C     0.11528   0.14239   0.71481   0.00000  Uiso   1.00
C176   C     0.35263   0.12069   0.28307   0.00000  Uiso   1.00
C177   C     0.16203   0.36528   0.74484   0.00000  Uiso   1.00
C178   C     0.11055   0.13732   0.28581   0.00000  Uiso   1.00
C179   C     0.38478   0.35766   0.71472   0.00000  Uiso   1.00
C180   C     0.14742   0.37932   0.28291   0.00000  Uiso   1.00
C181   C     0.36070   0.11190   0.71435   0.00000  Uiso   1.00
C182   C     0.49716   0.21670   0.45891   0.00000  Uiso   1.00
C183   C     0.00629   0.28296   0.54140   0.00000  Uiso   1.00
C184   C     0.27956   0.01631   0.45865   0.00000  Uiso   1.00
H185   H     0.02077   0.15346   0.44192   0.00000  Uiso   1.00
H186   H     0.32756   0.08912   0.02410   0.00000  Uiso   1.00
H187   H     0.18148   0.41164   0.65691   0.00000  Uiso   1.00
H188   H     0.15754   0.39886   0.61332   0.00000  Uiso   1.00
H189   H     0.20013   0.34563   0.60473   0.00000  Uiso   1.00
H190   H     0.17664   0.34433   0.65087   0.00000  Uiso   1.00
H191   H     0.22360   0.35852   0.64908   0.00000  Uiso   1.00
H192   H     0.33816   0.03299   0.86242   0.00000  Uiso   1.00
H193   H     0.33044   0.00015   0.89980   0.00000  Uiso   1.00
H194   H     0.35812   0.07870   0.91370   0.00000  Uiso   1.00
H195   H     0.35429   0.04298   0.94959   0.00000  Uiso   1.00
H196   H     0.39960   0.00534   0.91261   0.00000  Uiso   1.00
H197   H     0.11792   0.27296   0.97862   0.00000  Uiso   1.00
H198   H     0.41790   0.04894   0.92687   0.00000  Uiso   1.00
H199   H     0.40391   0.04160   0.87715   0.00000  Uiso   1.00
H200   H     0.27103   0.42893   0.12393   0.00000  Uiso   1.00
H201   H     0.25387   0.40264   0.08321   0.00000  Uiso   1.00
H202   H     0.22542   0.40157   0.16764   0.00000  Uiso   1.00
H203   H     0.20607   0.37614   0.12769   0.00000  Uiso   1.00
H204   H     0.26566   0.34343   0.11869   0.00000  Uiso   1.00
H205   H     0.24774   0.33759   0.16718   0.00000  Uiso   1.00
H206   H     0.28470   0.36889   0.15902   0.00000  Uiso   1.00
H207   H     0.43228   0.27981   0.86087   0.00000  Uiso   1.00
H208   H     0.38284   0.25823   0.02173   0.00000  Uiso   1.00
H209   H     0.41472   0.28567   0.90976   0.00000  Uiso   1.00
H210   H     0.38199   0.23395   0.84833   0.00000  Uiso   1.00
H211   H     0.36381   0.24421   0.89573   0.00000  Uiso   1.00
H212   H     0.35852   0.31093   0.87476   0.00000  Uiso   1.00
H213   H     0.33061   0.27974   0.84725   0.00000  Uiso   1.00
H214   H     0.37218   0.29654   0.82633   0.00000  Uiso   1.00
H215   H     0.07413   0.30845   0.13949   0.00000  Uiso   1.00
H216   H     0.03763   0.31805   0.10665   0.00000  Uiso   1.00
H217   H     0.11781   0.30633   0.08127   0.00000  Uiso   1.00
H218   H     0.08045   0.32202   0.05136   0.00000  Uiso   1.00
H219   H     0.29420   0.10875   0.97632   0.00000  Uiso   1.00
H220   H     0.07454   0.37733   0.09533   0.00000  Uiso   1.00
H221   H     0.11773   0.37400   0.07046   0.00000  Uiso   1.00
H222   H     0.11494   0.36179   0.12106   0.00000  Uiso   1.00
H223   H     0.16786   0.49371   0.88790   0.00000  Uiso   1.00
H224   H     0.15935   0.46491   0.92966   0.00000  Uiso   1.00
H225   H     0.15649   0.43919   0.84435   0.00000  Uiso   1.00
H226   H     0.14531   0.41282   0.88681   0.00000  Uiso   1.00
H227   H     0.09438   0.45639   0.90216   0.00000  Uiso   1.00
H228   H     0.08956   0.43651   0.85435   0.00000  Uiso   1.00
H229   H     0.10572   0.48264   0.85919   0.00000  Uiso   1.00
H230   H     0.17920   0.40271   0.02292   0.00000  Uiso   1.00
H231   H     0.22898   0.07156   0.12371   0.00000  Uiso   1.00
H232   H     0.24643   0.09742   0.08283   0.00000  Uiso   1.00
H233   H     0.27496   0.09879   0.16727   0.00000  Uiso   1.00
H234   H     0.29441   0.12382   0.12716   0.00000  Uiso   1.00
H235   H     0.23505   0.15694   0.11807   0.00000  Uiso   1.00
H236   H     0.25312   0.16293   0.16650   0.00000  Uiso   1.00
H237   H     0.21590   0.13187   0.15855   0.00000  Uiso   1.00
H238   H     0.06666   0.22296   0.85894   0.00000  Uiso   1.00
H239   H     0.08792   0.21640   0.90591   0.00000  Uiso   1.00
H240   H     0.11351   0.27173   0.84420   0.00000  Uiso   1.00
H241   H     0.38665   0.21524   0.97808   0.00000  Uiso   1.00
H242   H     0.13594   0.26035   0.88925   0.00000  Uiso   1.00
H243   H     0.14270   0.19508   0.86477   0.00000  Uiso   1.00
H244   H     0.16609   0.22841   0.83542   0.00000  Uiso   1.00
H245   H     0.12351   0.20992   0.81870   0.00000  Uiso   1.00
H246   H     0.42506   0.19415   0.14183   0.00000  Uiso   1.00
H247   H     0.46038   0.18201   0.10847   0.00000  Uiso   1.00
H248   H     0.37986   0.19499   0.08504   0.00000  Uiso   1.00
H249   H     0.41596   0.17735   0.05456   0.00000  Uiso   1.00
H250   H     0.42180   0.12345   0.10020   0.00000  Uiso   1.00
H251   H     0.37791   0.12712   0.07681   0.00000  Uiso   1.00
H252   H     0.09670   0.22935   0.05804   0.00000  Uiso   1.00
H253   H     0.38265   0.14091   0.12679   0.00000  Uiso   1.00
H254   H     0.16163   0.41522   0.17702   0.00000  Uiso   1.00
H255   H     0.36105   0.10642   0.84255   0.00000  Uiso   1.00
H256   H     0.09575   0.18035   0.18270   0.00000  Uiso   1.00
H257   H     0.03361   0.36369   0.52222   0.00000  Uiso   1.00
H258   H     0.40288   0.37116   0.84091   0.00000  Uiso   1.00
H259   H     0.33893   0.08458   0.17707   0.00000  Uiso   1.00
H260   H     0.08137   0.45217   0.74688   0.00000  Uiso   1.00
H261   H     0.40446   0.32000   0.18248   0.00000  Uiso   1.00
H262   H     0.09840   0.13032   0.84133   0.00000  Uiso   1.00
H263   H     0.17563   0.09299   0.81948   0.00000  Uiso   1.00
H264   H     0.36052   0.39313   0.15739   0.00000  Uiso   1.00
H265   H     0.05189   0.41468   0.78297   0.00000  Uiso   1.00
H266   H     0.42401   0.10634   0.17307   0.00000  Uiso   1.00
H267   H     0.32484   0.40719   0.81956   0.00000  Uiso   1.00
H268   H     0.34986   0.06669   0.47763   0.00000  Uiso   1.00
H269   H     0.14032   0.10763   0.15736   0.00000  Uiso   1.00
H270   H     0.40572   0.17881   0.81793   0.00000  Uiso   1.00
H271   H     0.07703   0.39222   0.17177   0.00000  Uiso   1.00
H272   H     0.42854   0.15586   0.68198   0.00000  Uiso   1.00
H273   H     0.14318   0.32648   0.32738   0.00000  Uiso   1.00
H274   H     0.34279   0.42528   0.68042   0.00000  Uiso   1.00
H275   H     0.14235   0.10967   0.34264   0.00000  Uiso   1.00
H276   H     0.16465   0.30180   0.71713   0.00000  Uiso   1.00
H277   H     0.35748   0.17325   0.32799   0.00000  Uiso   1.00
H278   H     0.15696   0.07449   0.68056   0.00000  Uiso   1.00
H279   H     0.14200   0.45351   0.52342   0.00000  Uiso   1.00
H280   H     0.35672   0.38934   0.34260   0.00000  Uiso   1.00
H281   H     0.42996   0.34554   0.31752   0.00000  Uiso   1.00
H282   H     0.12058   0.15235   0.65897   0.00000  Uiso   1.00
H283   H     0.33456   0.08875   0.32306   0.00000  Uiso   1.00
H284   H     0.20219   0.33138   0.75312   0.00000  Uiso   1.00
H285   H     0.06963   0.15426   0.31730   0.00000  Uiso   1.00
H286   H     0.37957   0.34773   0.65884   0.00000  Uiso   1.00
H287   H     0.16511   0.41160   0.32287   0.00000  Uiso   1.00
H288   H     0.35613   0.11103   0.65744   0.00000  Uiso   1.00
H289   H     0.05524   0.32534   0.35820   0.00000  Uiso   1.00
H290   H     0.49080   0.36717   0.47837   0.00000  Uiso   1.00
H291   H     0.06764   0.29021   0.39167   0.00000  Uiso   1.00
H292   H     0.05403   0.37070   0.41485   0.00000  Uiso   1.00
H293   H     0.07192   0.33482   0.44546   0.00000  Uiso   1.00
H294   H     0.12591   0.32926   0.39994   0.00000  Uiso   1.00
H295   H     0.12185   0.37323   0.42308   0.00000  Uiso   1.00
H296   H     0.10817   0.36814   0.37311   0.00000  Uiso   1.00
H297   H     0.02829   0.18246   0.64113   0.00000  Uiso   1.00
H298   H     0.03662   0.16511   0.59258   0.00000  Uiso   1.00
H299   H     0.48256   0.13155   0.65103   0.00000  Uiso   1.00
H300   H     0.49552   0.11343   0.60437   0.00000  Uiso   1.00
H301   H     0.47664   0.13218   0.52105   0.00000  Uiso   1.00
H302   H     0.06105   0.10914   0.62913   0.00000  Uiso   1.00
H303   H     0.02901   0.08109   0.65524   0.00000  Uiso   1.00
H304   H     0.04429   0.12311   0.67659   0.00000  Uiso   1.00
H305   H     0.17845   0.02109   0.37722   0.00000  Uiso   1.00
H306   H     0.15311   0.00329   0.41831   0.00000  Uiso   1.00
H307   H     0.15043   0.47562   0.33358   0.00000  Uiso   1.00
H308   H     0.12590   0.45589   0.37388   0.00000  Uiso   1.00
H309   H     0.09313   0.01524   0.38418   0.00000  Uiso   1.00
H310   H     0.08640   0.49773   0.33563   0.00000  Uiso   1.00
H311   H     0.11772   0.03474   0.34356   0.00000  Uiso   1.00
H312   H     0.16199   0.42069   0.47539   0.00000  Uiso   1.00
H313   H     0.28237   0.08833   0.63518   0.00000  Uiso   1.00
H314   H     0.25083   0.07941   0.59676   0.00000  Uiso   1.00
H315   H     0.33004   0.10607   0.58502   0.00000  Uiso   1.00
H316   H     0.29555   0.10122   0.54790   0.00000  Uiso   1.00
H317   H     0.25705   0.14812   0.58149   0.00000  Uiso   1.00
H318   H     0.30127   0.16556   0.56830   0.00000  Uiso   1.00
H319   H     0.29212   0.15345   0.61821   0.00000  Uiso   1.00
H320   H     0.44177   0.17604   0.36024   0.00000  Uiso   1.00
H321   H     0.43195   0.21223   0.39341   0.00000  Uiso   1.00
H322   H     0.44404   0.13190   0.41805   0.00000  Uiso   1.00
H323   H     0.34545   0.02422   0.56005   0.00000  Uiso   1.00
H324   H     0.42812   0.16895   0.44829   0.00000  Uiso   1.00
H325   H     0.37283   0.17493   0.40434   0.00000  Uiso   1.00
H326   H     0.37637   0.13152   0.42874   0.00000  Uiso   1.00
H327   H     0.38862   0.13486   0.37818   0.00000  Uiso   1.00
H328   H     0.47163   0.31677   0.63949   0.00000  Uiso   1.00
H329   H     0.46698   0.33804   0.59224   0.00000  Uiso   1.00
H330   H     0.02036   0.36333   0.65611   0.00000  Uiso   1.00
H331   H     0.01065   0.38569   0.61059   0.00000  Uiso   1.00
H332   H     0.44455   0.39283   0.63263   0.00000  Uiso   1.00
H333   H     0.47715   0.41642   0.66279   0.00000  Uiso   1.00
H334   H     0.22114   0.40498   0.94156   0.00000  Uiso   1.00
H335   H     0.45807   0.37410   0.67936   0.00000  Uiso   1.00
H336   H     0.32080   0.47857   0.37411   0.00000  Uiso   1.00
H337   H     0.34762   0.49410   0.41515   0.00000  Uiso   1.00
H338   H     0.34838   0.02510   0.33175   0.00000  Uiso   1.00
H339   H     0.37425   0.04306   0.37212   0.00000  Uiso   1.00
H340   H     0.40641   0.48286   0.37886   0.00000  Uiso   1.00
H341   H     0.41221   0.00227   0.33104   0.00000  Uiso   1.00
H342   H     0.38058   0.46539   0.33799   0.00000  Uiso   1.00
H343   H     0.23931   0.41774   0.61650   0.00000  Uiso   1.00
H344   H     0.21234   0.40877   0.57361   0.00000  Uiso   1.00
O345   O     0.25000  -0.00000   0.25000   0.00000  Uiso   1.00
O346   O     0.25000   0.46963   0.66245   0.00000  Uiso   1.00
O347   O     0.34646   0.09774   0.68022   0.00000  Uiso   1.00
O348   O     0.01473   0.31414   0.39731   0.00000  Uiso   1.00
O349   O     0.48418   0.18620   0.60324   0.00000  Uiso   1.00
O350   O     0.19301   0.46869   0.39616   0.00000  Uiso   1.00
O351   O     0.29771   0.04484   0.60147   0.00000  Uiso   1.00
O352   O     0.48417   0.18662   0.39716   0.00000  Uiso   1.00
O353   O     0.01728   0.31289   0.60362   0.00000  Uiso   1.00
O354   O     0.30776   0.03041   0.39613   0.00000  Uiso   1.00
O355   O     0.20027   0.45737   0.60292   0.00000  Uiso   1.00
O356   O     0.29592   0.04727   0.89840   0.00000  Uiso   1.00
O357   O     0.46964   0.25000   0.33755   0.00000  Uiso   1.00
O358   O     0.21870   0.44276   0.10388   0.00000  Uiso   1.00
O359   O     0.43658   0.23412   0.89639   0.00000  Uiso   1.00
O360   O     0.06345   0.26596   0.10273   0.00000  Uiso   1.00
O361   O     0.20582   0.45208   0.89720   0.00000  Uiso   1.00
O362   O     0.28115   0.05710   0.10387   0.00000  Uiso   1.00
O363   O     0.06322   0.26734   0.89676   0.00000  Uiso   1.00
O364   O     0.43608   0.23474   0.10275   0.00000  Uiso   1.00
O365   O     0.03037   0.25000   0.66245   0.00000  Uiso   1.00
O366   O     0.00000   0.21963   0.83755   0.00000  Uiso   1.00
O367   O     0.00000   0.28036   0.16245   0.00000  Uiso   1.00
O368   O     0.28037  -0.00000   0.83755   0.00000  Uiso   1.00
O369   O     0.21964  -0.00000   0.16245   0.00000  Uiso   1.00
O370   O     0.00000   0.28036   0.83755   0.00000  Uiso   1.00
O371   O     0.00000   0.21963   0.16245   0.00000  Uiso   1.00
O372   O     0.21964  -0.00000   0.83755   0.00000  Uiso   1.00
O373   O     0.25000  -0.00000   0.75000   0.00000  Uiso   1.00
O374   O     0.28037  -0.00000   0.16245   0.00000  Uiso   1.00
O375   O     0.20725   0.07307   0.27302   0.00000  Uiso   1.00
O376   O     0.29276   0.42692   0.72698   0.00000  Uiso   1.00
O377   O     0.42693   0.20724   0.27302   0.00000  Uiso   1.00
O378   O     0.07308   0.29275   0.72698   0.00000  Uiso   1.00
O379   O     0.29276   0.42692   0.27302   0.00000  Uiso   1.00
O380   O     0.20725   0.07307   0.72698   0.00000  Uiso   1.00
O381   O     0.07308   0.29275   0.27302   0.00000  Uiso   1.00
O382   O     0.42693   0.20724   0.72698   0.00000  Uiso   1.00
O383   O     0.20725   0.42692   0.72698   0.00000  Uiso   1.00
O384   O     0.00000   0.25000   0.25000   0.00000  Uiso   1.00
O385   O     0.29276   0.07307   0.27302   0.00000  Uiso   1.00
O386   O     0.42693   0.29275   0.72698   0.00000  Uiso   1.00
O387   O     0.07308   0.20724   0.27302   0.00000  Uiso   1.00
O388   O     0.29276   0.07307   0.72698   0.00000  Uiso   1.00
O389   O     0.20725   0.42692   0.27302   0.00000  Uiso   1.00
O390   O     0.07308   0.20724   0.72698   0.00000  Uiso   1.00
O391   O     0.42693   0.29275   0.27302   0.00000  Uiso   1.00
O392   O     0.45725   0.32307   0.77302   0.00000  Uiso   1.00
O393   O     0.04276   0.17692   0.22698   0.00000  Uiso   1.00
O394   O     0.17693   0.45724   0.77302   0.00000  Uiso   1.00
O395   O     0.00000   0.25000   0.75000   0.00000  Uiso   1.00
O396   O     0.32308   0.04275   0.22698   0.00000  Uiso   1.00
O397   O     0.04276   0.17692   0.77302   0.00000  Uiso   1.00
O398   O     0.45725   0.32307   0.22698   0.00000  Uiso   1.00
O399   O     0.32308   0.04275   0.77302   0.00000  Uiso   1.00
O400   O     0.17693   0.45724   0.22698   0.00000  Uiso   1.00
O401   O     0.45725   0.17692   0.22698   0.00000  Uiso   1.00
O402   O     0.04276   0.32307   0.77302   0.00000  Uiso   1.00
O403   O     0.17693   0.04275   0.22698   0.00000  Uiso   1.00
O404   O     0.32308   0.45724   0.77302   0.00000  Uiso   1.00
O405   O     0.04276   0.32307   0.22698   0.00000  Uiso   1.00
O406   O     0.25000   0.46963   0.33755   0.00000  Uiso   1.00
O407   O     0.45725   0.17692   0.77302   0.00000  Uiso   1.00
O408   O     0.32308   0.45724   0.22698   0.00000  Uiso   1.00
O409   O     0.17693   0.04275   0.77302   0.00000  Uiso   1.00
O410   O     0.00132   0.15030   0.46162   0.00000  Uiso   1.00
O411   O     0.02017   0.34741   0.54013   0.00000  Uiso   1.00
O412   O     0.33463   0.05241   0.45942   0.00000  Uiso   1.00
O413   O     0.16383   0.45147   0.54028   0.00000  Uiso   1.00
O414   O     0.00067   0.34867   0.46016   0.00000  Uiso   1.00
O415   O     0.48343   0.15161   0.53968   0.00000  Uiso   1.00
O416   O     0.17004   0.44118   0.45874   0.00000  Uiso   1.00
O417   O     0.25000   0.03036   0.66245   0.00000  Uiso   1.00
O418   O     0.34040   0.04199   0.53900   0.00000  Uiso   1.00
O419   O     0.20262   0.41210   0.96116   0.00000  Uiso   1.00
O420   O     0.30728   0.08089   0.04094   0.00000  Uiso   1.00
O421   O     0.09842   0.26621   0.96006   0.00000  Uiso   1.00
O422   O     0.40143   0.24856   0.03996   0.00000  Uiso   1.00
O423   O     0.29604   0.08698   0.95935   0.00000  Uiso   1.00
O424   O     0.19392   0.41769   0.04097   0.00000  Uiso   1.00
O425   O     0.40281   0.22874   0.96007   0.00000  Uiso   1.00
O426   O     0.09981   0.24873   0.03825   0.00000  Uiso   1.00
O427   O     0.13517   0.41592   0.18258   0.00000  Uiso   1.00
O428   O     0.03037   0.25000   0.33755   0.00000  Uiso   1.00
O429   O     0.34778   0.09664   0.81977   0.00000  Uiso   1.00
O430   O     0.10282   0.15456   0.17882   0.00000  Uiso   1.00
O431   O     0.41060   0.35547   0.81896   0.00000  Uiso   1.00
O432   O     0.36532   0.08352   0.18299   0.00000  Uiso   1.00
O433   O     0.10650   0.44867   0.75671   0.00000  Uiso   1.00
O434   O     0.39765   0.34588   0.17877   0.00000  Uiso   1.00
O435   O     0.09040   0.14565   0.81923   0.00000  Uiso   1.00
O436   O     0.14902   0.09720   0.82128   0.00000  Uiso   1.00
O437   O     0.34759   0.40337   0.18019   0.00000  Uiso   1.00
O438   O     0.05254   0.39306   0.76571   0.00000  Uiso   1.00
O439   O     0.46964   0.25000   0.66245   0.00000  Uiso   1.00
O440   O     0.42476   0.12899   0.18872   0.00000  Uiso   1.00
O441   O     0.35151   0.40330   0.82118   0.00000  Uiso   1.00
O442   O     0.15301   0.09717   0.18020   0.00000  Uiso   1.00
O443   O     0.39851   0.15308   0.82133   0.00000  Uiso   1.00
O444   O     0.07617   0.36982   0.18779   0.00000  Uiso   1.00
O445   O     0.40285   0.14851   0.67861   0.00000  Uiso   1.00
O446   O     0.12062   0.32563   0.31159   0.00000  Uiso   1.00
O447   O     0.34681   0.39864   0.67876   0.00000  Uiso   1.00
O448   O     0.15280   0.09698   0.31980   0.00000  Uiso   1.00
O449   O     0.14304   0.30250   0.73438   0.00000  Uiso   1.00
O450   O     0.25000   0.03036   0.33755   0.00000  Uiso   1.00
O451   O     0.37989   0.17411   0.31200   0.00000  Uiso   1.00
O452   O     0.15292   0.10113   0.67881   0.00000  Uiso   1.00
O453   O     0.34650   0.40228   0.31981   0.00000  Uiso   1.00
O454   O     0.40407   0.35232   0.32123   0.00000  Uiso   1.00
O455   O     0.10502   0.16017   0.68096   0.00000  Uiso   1.00
O456   O     0.33374   0.11515   0.31726   0.00000  Uiso   1.00
O457   O     0.19867   0.35650   0.74326   0.00000  Uiso   1.00
O458   O     0.09541   0.14717   0.32118   0.00000  Uiso   1.00
O459   O     0.39509   0.33989   0.68087   0.00000  Uiso   1.00
O460   O     0.16603   0.38515   0.31726   0.00000  Uiso   1.00
Zn461  Zn    0.20660  -0.00000   0.21735   0.00000  Uiso   1.00
Zn462  Zn    0.04341   0.25000   0.28265   0.00000  Uiso   1.00
Zn463  Zn    0.25000   0.45659   0.71735   0.00000  Uiso   1.00
Zn464  Zn    0.25000   0.04340   0.28265   0.00000  Uiso   1.00
Zn465  Zn    0.04341   0.25000   0.71735   0.00000  Uiso   1.00
Zn466  Zn    0.45660   0.25000   0.28265   0.00000  Uiso   1.00
Zn467  Zn    0.25000   0.04340   0.71735   0.00000  Uiso   1.00
Zn468  Zn    0.25000   0.45659   0.28265   0.00000  Uiso   1.00
Zn469  Zn    0.29341  -0.00000   0.78265   0.00000  Uiso   1.00
Zn470  Zn    0.00000   0.20659   0.21735   0.00000  Uiso   1.00
Zn471  Zn    0.00000   0.29340   0.78265   0.00000  Uiso   1.00
Zn472  Zn    0.29341  -0.00000   0.21735   0.00000  Uiso   1.00
Zn473  Zn    0.20660  -0.00000   0.78265   0.00000  Uiso   1.00
Zn474  Zn    0.00000   0.29340   0.21735   0.00000  Uiso   1.00
Zn475  Zn    0.00000   0.20659   0.78265   0.00000  Uiso   1.00
Zn476  Zn    0.45660   0.25000   0.71735   0.00000  Uiso   1.00
C477   C     0.50740   0.28261   0.41815   0.00000  Uiso   1.00
C478   C     0.73347   0.47106   0.08243   0.00000  Uiso   1.00
C479   C     0.72324   0.47946   0.54066   0.00000  Uiso   1.00
C480   C     0.50487   0.28319   0.45912   0.00000  Uiso   1.00
C481   C     0.99450   0.21666   0.54115   0.00000  Uiso   1.00
C482   C     0.72234   0.48096   0.45850   0.00000  Uiso   1.00
C483   C     0.77908   0.01632   0.54075   0.00000  Uiso   1.00
C484   C     0.73151   0.47196   0.95923   0.00000  Uiso   1.00
C485   C     0.76778   0.02833   0.04148   0.00000  Uiso   1.00
C486   C     0.53333   0.25534   0.95877   0.00000  Uiso   1.00
C487   C     0.96693   0.24471   0.04092   0.00000  Uiso   1.00
C488   C     0.76938   0.02710   0.95944   0.00000  Uiso   1.00
C489   C     0.96744   0.24326   0.91757   0.00000  Uiso   1.00
C490   C     0.73173   0.47155   0.04142   0.00000  Uiso   1.00
C491   C     0.96707   0.24335   0.95866   0.00000  Uiso   1.00
C492   C     0.53340   0.25270   0.04103   0.00000  Uiso   1.00
C493   C     0.59832   0.34806   0.24986   0.00000  Uiso   1.00
C494   C     0.90185   0.15189   0.74998   0.00000  Uiso   1.00
C495   C     0.65190   0.09810   0.25000   0.00000  Uiso   1.00
C496   C     0.84810   0.40196   0.74997   0.00000  Uiso   1.00
C497   C     0.90196   0.15165   0.25017   0.00000  Uiso   1.00
C498   C     0.59823   0.34822   0.75002   0.00000  Uiso   1.00
C499   C     0.84809   0.40189   0.25000   0.00000  Uiso   1.00
C500   C     0.53242   0.25671   0.08188   0.00000  Uiso   1.00
C501   C     0.65197   0.09810   0.75004   0.00000  Uiso   1.00
C502   C     0.59824   0.15195   0.75005   0.00000  Uiso   1.00
C503   C     0.90190   0.34809   0.25000   0.00000  Uiso   1.00
C504   C     0.65193   0.40193   0.74997   0.00000  Uiso   1.00
C505   C     0.84814   0.09803   0.25010   0.00000  Uiso   1.00
C506   C     0.90193   0.34823   0.74995   0.00000  Uiso   1.00
C507   C     0.59810   0.15190   0.25000   0.00000  Uiso   1.00
C508   C     0.84811   0.09810   0.75000   0.00000  Uiso   1.00
C509   C     0.65195   0.40189   0.24992   0.00000  Uiso   1.00
C510   C     0.50097   0.24990   0.47962   0.00000  Uiso   1.00
C511   C     0.72834   0.47498   0.91837   0.00000  Uiso   1.00
C512   C     0.50052   0.24985   0.52076   0.00000  Uiso   1.00
C513   C     0.75106   0.49835   0.47910   0.00000  Uiso   1.00
C514   C     0.75124   0.49785   0.52013   0.00000  Uiso   1.00
C515   C     0.75030   0.49959   0.97991   0.00000  Uiso   1.00
C516   C     0.74986   0.49986   0.02093   0.00000  Uiso   1.00
C517   C     0.50021   0.24913   0.97923   0.00000  Uiso   1.00
C518   C     0.50020   0.24870   0.02037   0.00000  Uiso   1.00
C519   C     0.55255   0.31659   0.38901   0.00000  Uiso   1.00
C520   C     0.57053   0.34526   0.41516   0.00000  Uiso   1.00
C521   C     0.60905   0.35438   0.40185   0.00000  Uiso   1.00
C522   C     0.76616   0.02886   0.08244   0.00000  Uiso   1.00
C523   C     0.51591   0.16778   0.61618   0.00000  Uiso   1.00
C524   C     0.50520   0.12956   0.62969   0.00000  Uiso   1.00
C525   C     0.53702   0.10959   0.64877   0.00000  Uiso   1.00
C526   C     0.66637   0.49604   0.39019   0.00000  Uiso   1.00
C527   C     0.63751   0.48157   0.36215   0.00000  Uiso   1.00
C528   C     0.60683   0.00913   0.35609   0.00000  Uiso   1.00
C529   C     0.78047   0.07944   0.60434   0.00000  Uiso   1.00
C530   C     0.80029   0.10742   0.57912   0.00000  Uiso   1.00
C531   C     0.78674   0.14601   0.58739   0.00000  Uiso   1.00
C532   C     0.94601   0.18529   0.39069   0.00000  Uiso   1.00
C533   C     0.53281   0.25638   0.91765   0.00000  Uiso   1.00
C534   C     0.92821   0.15776   0.41825   0.00000  Uiso   1.00
C535   C     0.88904   0.14940   0.40651   0.00000  Uiso   1.00
C536   C     0.98622   0.33230   0.61662   0.00000  Uiso   1.00
C537   C     0.99882   0.36852   0.63400   0.00000  Uiso   1.00
C538   C     0.96755   0.38917   0.65330   0.00000  Uiso   1.00
C539   C     0.83369   0.00284   0.38789   0.00000  Uiso   1.00
C540   C     0.86198   0.01797   0.35964   0.00000  Uiso   1.00
C541   C     0.89213   0.49030   0.35147   0.00000  Uiso   1.00
C542   C     0.71164   0.42049   0.60350   0.00000  Uiso   1.00
C543   C     0.68458   0.39866   0.62790   0.00000  Uiso   1.00
C544   C     0.96754   0.24226   0.08188   0.00000  Uiso   1.00
C545   C     0.69714   0.35933   0.63339   0.00000  Uiso   1.00
C546   C     0.83035   0.03004   0.89348   0.00000  Uiso   1.00
C547   C     0.85940   0.04876   0.91835   0.00000  Uiso   1.00
C548   C     0.89754   0.03523   0.90800   0.00000  Uiso   1.00
C549   C     0.74618   0.41645   0.11090   0.00000  Uiso   1.00
C550   C     0.73162   0.38810   0.13942   0.00000  Uiso   1.00
C551   C     0.75925   0.35765   0.14641   0.00000  Uiso   1.00
C552   C     0.91772   0.26611   0.88508   0.00000  Uiso   1.00
C553   C     0.87966   0.25544   0.87098   0.00000  Uiso   1.00
C554   C     0.85907   0.28783   0.85386   0.00000  Uiso   1.00
C555   C     0.50015   0.25018   0.39808   0.00000  Uiso   1.00
C556   C     0.56465   0.30413   0.10913   0.00000  Uiso   1.00
C557   C     0.59187   0.32203   0.08129   0.00000  Uiso   1.00
C558   C     0.60013   0.36126   0.09289   0.00000  Uiso   1.00
C559   C     0.66964   0.46530   0.89918   0.00000  Uiso   1.00
C560   C     0.64536   0.44076   0.87434   0.00000  Uiso   1.00
C561   C     0.60633   0.45507   0.87249   0.00000  Uiso   1.00
C562   C     0.75394   0.08373   0.11064   0.00000  Uiso   1.00
C563   C     0.76879   0.11214   0.13899   0.00000  Uiso   1.00
C564   C     0.74141   0.14284   0.14586   0.00000  Uiso   1.00
C565   C     0.58232   0.23659   0.88240   0.00000  Uiso   1.00
C566   C     0.50002   0.24978   0.60219   0.00000  Uiso   1.00
C567   C     0.61859   0.24945   0.86545   0.00000  Uiso   1.00
C568   C     0.63890   0.21865   0.84489   0.00000  Uiso   1.00
C569   C     0.93388   0.19690   0.11105   0.00000  Uiso   1.00
C570   C     0.90543   0.17869   0.08481   0.00000  Uiso   1.00
C571   C     0.89656   0.14011   0.09813   0.00000  Uiso   1.00
C572   C     0.75023   0.49983   0.39781   0.00000  Uiso   1.00
C573   C     0.99373   0.21706   0.58229   0.00000  Uiso   1.00
C574   C     0.75006   0.49968   0.60165   0.00000  Uiso   1.00
C575   C     0.75031   0.49990   0.89836   0.00000  Uiso   1.00
C576   C     0.74989   0.49996   0.10221   0.00000  Uiso   1.00
C577   C     0.50008   0.24996   0.89781   0.00000  Uiso   1.00
C578   C     0.99993   0.24979   0.10191   0.00000  Uiso   1.00
C579   C     0.99588   0.18348   0.47965   0.00000  Uiso   1.00
C580   C     0.51099   0.31584   0.52056   0.00000  Uiso   1.00
C581   C     0.80786   0.03369   0.47948   0.00000  Uiso   1.00
C582   C     0.69398   0.46365   0.52004   0.00000  Uiso   1.00
C583   C     0.50604   0.31626   0.47986   0.00000  Uiso   1.00
C584   C     0.72147   0.48328   0.41757   0.00000  Uiso   1.00
C585   C     0.99060   0.18371   0.52010   0.00000  Uiso   1.00
C586   C     0.69502   0.46197   0.47904   0.00000  Uiso   1.00
C587   C     0.80895   0.03122   0.52025   0.00000  Uiso   1.00
C588   C     0.71528   0.44282   0.97987   0.00000  Uiso   1.00
C589   C     0.78654   0.05574   0.02082   0.00000  Uiso   1.00
C590   C     0.56632   0.25923   0.97975   0.00000  Uiso   1.00
C591   C     0.93385   0.24335   0.02023   0.00000  Uiso   1.00
C592   C     0.78473   0.05663   0.97984   0.00000  Uiso   1.00
C593   C     0.71326   0.44388   0.02070   0.00000  Uiso   1.00
C594   C     0.93427   0.23837   0.97956   0.00000  Uiso   1.00
C595   C     0.77558   0.02073   0.58132   0.00000  Uiso   1.00
C596   C     0.56660   0.25403   0.02024   0.00000  Uiso   1.00
C597   C     0.74999  -0.00000   0.35566   0.00000  Uiso   1.00
C598   C     0.74997   0.49997   0.64412   0.00000  Uiso   1.00
C599   C     0.50002   0.25014   0.35577   0.00000  Uiso   1.00
C600   C     0.50000   0.24981   0.64433   0.00000  Uiso   1.00
C601   C     0.99994   0.25002   0.85567   0.00000  Uiso   1.00
C602   C     0.99994   0.24997   0.14422   0.00000  Uiso   1.00
C603   C     0.75006   0.00012   0.85588   0.00000  Uiso   1.00
C604   C     0.74998   0.49999   0.14435   0.00000  Uiso   1.00
C605   C     0.67999   0.07001   0.25000   0.00000  Uiso   1.00
C606   C     0.99328   0.21767   0.41806   0.00000  Uiso   1.00
C607   C     0.81999   0.43001   0.75000   0.00000  Uiso   1.00
C608   C     0.92998   0.17988   0.25005   0.00000  Uiso   1.00
C609   C     0.57007   0.32008   0.75001   0.00000  Uiso   1.00
C610   C     0.82001   0.42999   0.25000   0.00000  Uiso   1.00
C611   C     0.68001   0.06999   0.75001   0.00000  Uiso   1.00
C612   C     0.57011   0.32002   0.24995   0.00000  Uiso   1.00
C613   C     0.92997   0.17998   0.74999   0.00000  Uiso   1.00
C614   C     0.67998   0.42998   0.74999   0.00000  Uiso   1.00
C615   C     0.82003   0.07002   0.25002   0.00000  Uiso   1.00
C616   C     0.92999   0.32005   0.74998   0.00000  Uiso   1.00
C617   C     0.50673   0.28246   0.58249   0.00000  Uiso   1.00
C618   C     0.57000   0.18000   0.25000   0.00000  Uiso   1.00
C619   C     0.82003   0.07002   0.75000   0.00000  Uiso   1.00
C620   C     0.67997   0.42998   0.24998   0.00000  Uiso   1.00
C621   C     0.57005   0.18000   0.75002   0.00000  Uiso   1.00
C622   C     0.93000   0.31999   0.25000   0.00000  Uiso   1.00
C623   C     0.62945   0.39723   0.21685   0.00000  Uiso   1.00
C624   C     0.86193   0.11078   0.78563   0.00000  Uiso   1.00
C625   C     0.61268   0.13944   0.21418   0.00000  Uiso   1.00
C626   C     0.89259   0.36550   0.78516   0.00000  Uiso   1.00
C627   C     0.87091   0.10236   0.21724   0.00000  Uiso   1.00
C628   C     0.77958   0.01543   0.41759   0.00000  Uiso   1.00
C629   C     0.61529   0.41203   0.75514   0.00000  Uiso   1.00
C630   C     0.88757   0.36080   0.21417   0.00000  Uiso   1.00
C631   C     0.60791   0.13505   0.78533   0.00000  Uiso   1.00
C632   C     0.63647   0.10962   0.78572   0.00000  Uiso   1.00
C633   C     0.86171   0.38905   0.21433   0.00000  Uiso   1.00
C634   C     0.58846   0.38473   0.75741   0.00000  Uiso   1.00
C635   C     0.89974   0.12701   0.21876   0.00000  Uiso   1.00
C636   C     0.86389   0.39074   0.78560   0.00000  Uiso   1.00
C637   C     0.63858   0.11121   0.21433   0.00000  Uiso   1.00
C638   C     0.88794   0.13878   0.78582   0.00000  Uiso   1.00
C639   C     0.72509   0.47764   0.58168   0.00000  Uiso   1.00
C640   C     0.60076   0.37238   0.21821   0.00000  Uiso   1.00
C641   C     0.88867   0.13795   0.71414   0.00000  Uiso   1.00
C642   C     0.62278   0.35047   0.28141   0.00000  Uiso   1.00
C643   C     0.85940   0.38626   0.71432   0.00000  Uiso   1.00
C644   C     0.63877   0.11141   0.28567   0.00000  Uiso   1.00
C645   C     0.63472   0.33844   0.74262   0.00000  Uiso   1.00
C646   C     0.87749   0.14937   0.28170   0.00000  Uiso   1.00
C647   C     0.64055   0.11370   0.71439   0.00000  Uiso   1.00
C648   C     0.86089   0.38824   0.28566   0.00000  Uiso   1.00
C649   C     0.88916   0.36240   0.28582   0.00000  Uiso   1.00
C650   C     0.77253   0.02451   0.91870   0.00000  Uiso   1.00
C651   C     0.61528   0.14239   0.71481   0.00000  Uiso   1.00
C652   C     0.85263   0.12069   0.28307   0.00000  Uiso   1.00
C653   C     0.66203   0.36528   0.74484   0.00000  Uiso   1.00
C654   C     0.61055   0.13732   0.28581   0.00000  Uiso   1.00
C655   C     0.88478   0.35766   0.71472   0.00000  Uiso   1.00
C656   C     0.64742   0.37932   0.28291   0.00000  Uiso   1.00
C657   C     0.86070   0.11190   0.71435   0.00000  Uiso   1.00
C658   C     0.99716   0.21670   0.45891   0.00000  Uiso   1.00
C659   C     0.50629   0.28296   0.54140   0.00000  Uiso   1.00
C660   C     0.77956   0.01631   0.45865   0.00000  Uiso   1.00
H661   H     0.52077   0.15346   0.44192   0.00000  Uiso   1.00
H662   H     0.82756   0.08912   0.02410   0.00000  Uiso   1.00
H663   H     0.68148   0.41164   0.65691   0.00000  Uiso   1.00
H664   H     0.65754   0.39886   0.61332   0.00000  Uiso   1.00
H665   H     0.70013   0.34563   0.60473   0.00000  Uiso   1.00
H666   H     0.67664   0.34433   0.65087   0.00000  Uiso   1.00
H667   H     0.72360   0.35852   0.64908   0.00000  Uiso   1.00
H668   H     0.83816   0.03299   0.86242   0.00000  Uiso   1.00
H669   H     0.83044   0.00015   0.89980   0.00000  Uiso   1.00
H670   H     0.85812   0.07870   0.91370   0.00000  Uiso   1.00
H671   H     0.85429   0.04298   0.94959   0.00000  Uiso   1.00
H672   H     0.89960   0.00534   0.91261   0.00000  Uiso   1.00
H673   H     0.61792   0.27296   0.97862   0.00000  Uiso   1.00
H674   H     0.91790   0.04894   0.92687   0.00000  Uiso   1.00
H675   H     0.90391   0.04160   0.87715   0.00000  Uiso   1.00
H676   H     0.77103   0.42893   0.12393   0.00000  Uiso   1.00
H677   H     0.75387   0.40264   0.08321   0.00000  Uiso   1.00
H678   H     0.72542   0.40157   0.16764   0.00000  Uiso   1.00
H679   H     0.70607   0.37614   0.12769   0.00000  Uiso   1.00
H680   H     0.76566   0.34343   0.11869   0.00000  Uiso   1.00
H681   H     0.74774   0.33759   0.16718   0.00000  Uiso   1.00
H682   H     0.78470   0.36889   0.15902   0.00000  Uiso   1.00
H683   H     0.93228   0.27981   0.86087   0.00000  Uiso   1.00
H684   H     0.88284   0.25823   0.02173   0.00000  Uiso   1.00
H685   H     0.91472   0.28567   0.90976   0.00000  Uiso   1.00
H686   H     0.88199   0.23395   0.84833   0.00000  Uiso   1.00
H687   H     0.86381   0.24421   0.89573   0.00000  Uiso   1.00
H688   H     0.85852   0.31093   0.87476   0.00000  Uiso   1.00
H689   H     0.83061   0.27974   0.84725   0.00000  Uiso   1.00
H690   H     0.87218   0.29654   0.82633   0.00000  Uiso   1.00
H691   H     0.57413   0.30845   0.13949   0.00000  Uiso   1.00
H692   H     0.53763   0.31805   0.10665   0.00000  Uiso   1.00
H693   H     0.61781   0.30633   0.08127   0.00000  Uiso   1.00
H694   H     0.58045   0.32202   0.05136   0.00000  Uiso   1.00
H695   H     0.79420   0.10875   0.97632   0.00000  Uiso   1.00
H696   H     0.57454   0.37733   0.09533   0.00000  Uiso   1.00
H697   H     0.61773   0.37400   0.07046   0.00000  Uiso   1.00
H698   H     0.61494   0.36179   0.12106   0.00000  Uiso   1.00
H699   H     0.66786   0.49371   0.88790   0.00000  Uiso   1.00
H700   H     0.65935   0.46491   0.92966   0.00000  Uiso   1.00
H701   H     0.65649   0.43919   0.84435   0.00000  Uiso   1.00
H702   H     0.64531   0.41282   0.88681   0.00000  Uiso   1.00
H703   H     0.59438   0.45639   0.90216   0.00000  Uiso   1.00
H704   H     0.58956   0.43651   0.85435   0.00000  Uiso   1.00
H705   H     0.60572   0.48264   0.85919   0.00000  Uiso   1.00
H706   H     0.67920   0.40271   0.02292   0.00000  Uiso   1.00
H707   H     0.72898   0.07156   0.12371   0.00000  Uiso   1.00
H708   H     0.74643   0.09742   0.08283   0.00000  Uiso   1.00
H709   H     0.77496   0.09879   0.16727   0.00000  Uiso   1.00
H710   H     0.79441   0.12382   0.12716   0.00000  Uiso   1.00
H711   H     0.73505   0.15694   0.11807   0.00000  Uiso   1.00
H712   H     0.75312   0.16293   0.16650   0.00000  Uiso   1.00
H713   H     0.71590   0.13187   0.15855   0.00000  Uiso   1.00
H714   H     0.56666   0.22296   0.85894   0.00000  Uiso   1.00
H715   H     0.58792   0.21640   0.90591   0.00000  Uiso   1.00
H716   H     0.61351   0.27173   0.84420   0.00000  Uiso   1.00
H717   H     0.88665   0.21524   0.97808   0.00000  Uiso   1.00
H718   H     0.63594   0.26035   0.88925   0.00000  Uiso   1.00
H719   H     0.64270   0.19508   0.86477   0.00000  Uiso   1.00
H720   H     0.66609   0.22841   0.83542   0.00000  Uiso   1.00
H721   H     0.62351   0.20992   0.81870   0.00000  Uiso   1.00
H722   H     0.92506   0.19415   0.14183   0.00000  Uiso   1.00
H723   H     0.96038   0.18201   0.10847   0.00000  Uiso   1.00
H724   H     0.87986   0.19499   0.08504   0.00000  Uiso   1.00
H725   H     0.91596   0.17735   0.05456   0.00000  Uiso   1.00
H726   H     0.92180   0.12345   0.10020   0.00000  Uiso   1.00
H727   H     0.87791   0.12712   0.07681   0.00000  Uiso   1.00
H728   H     0.59670   0.22935   0.05804   0.00000  Uiso   1.00
H729   H     0.88265   0.14091   0.12679   0.00000  Uiso   1.00
H730   H     0.66163   0.41522   0.17702   0.00000  Uiso   1.00
H731   H     0.86105   0.10642   0.84255   0.00000  Uiso   1.00
H732   H     0.59575   0.18035   0.18270   0.00000  Uiso   1.00
H733   H     0.53361   0.36369   0.52222   0.00000  Uiso   1.00
H734   H     0.90288   0.37116   0.84091   0.00000  Uiso   1.00
H735   H     0.83893   0.08458   0.17707   0.00000  Uiso   1.00
H736   H     0.58137   0.45217   0.74688   0.00000  Uiso   1.00
H737   H     0.90446   0.32000   0.18248   0.00000  Uiso   1.00
H738   H     0.59840   0.13032   0.84133   0.00000  Uiso   1.00
H739   H     0.67563   0.09299   0.81948   0.00000  Uiso   1.00
H740   H     0.86052   0.39313   0.15739   0.00000  Uiso   1.00
H741   H     0.55189   0.41468   0.78297   0.00000  Uiso   1.00
H742   H     0.92401   0.10634   0.17307   0.00000  Uiso   1.00
H743   H     0.82484   0.40719   0.81956   0.00000  Uiso   1.00
H744   H     0.84986   0.06669   0.47763   0.00000  Uiso   1.00
H745   H     0.64032   0.10763   0.15736   0.00000  Uiso   1.00
H746   H     0.90572   0.17881   0.81793   0.00000  Uiso   1.00
H747   H     0.57703   0.39222   0.17177   0.00000  Uiso   1.00
H748   H     0.92854   0.15586   0.68198   0.00000  Uiso   1.00
H749   H     0.64318   0.32648   0.32738   0.00000  Uiso   1.00
H750   H     0.84279   0.42528   0.68042   0.00000  Uiso   1.00
H751   H     0.64235   0.10967   0.34264   0.00000  Uiso   1.00
H752   H     0.66465   0.30180   0.71713   0.00000  Uiso   1.00
H753   H     0.85748   0.17325   0.32799   0.00000  Uiso   1.00
H754   H     0.65696   0.07449   0.68056   0.00000  Uiso   1.00
H755   H     0.64200   0.45351   0.52342   0.00000  Uiso   1.00
H756   H     0.85672   0.38934   0.34260   0.00000  Uiso   1.00
H757   H     0.92996   0.34554   0.31752   0.00000  Uiso   1.00
H758   H     0.62058   0.15235   0.65897   0.00000  Uiso   1.00
H759   H     0.83456   0.08875   0.32306   0.00000  Uiso   1.00
H760   H     0.70219   0.33138   0.75312   0.00000  Uiso   1.00
H761   H     0.56963   0.15426   0.31730   0.00000  Uiso   1.00
H762   H     0.87957   0.34773   0.65884   0.00000  Uiso   1.00
H763   H     0.66511   0.41160   0.32287   0.00000  Uiso   1.00
H764   H     0.85613   0.11103   0.65744   0.00000  Uiso   1.00
H765   H     0.55524   0.32534   0.35820   0.00000  Uiso   1.00
H766   H     0.99080   0.36717   0.47837   0.00000  Uiso   1.00
H767   H     0.56764   0.29021   0.39167   0.00000  Uiso   1.00
H768   H     0.55403   0.37070   0.41485   0.00000  Uiso   1.00
H769   H     0.57192   0.33482   0.44546   0.00000  Uiso   1.00
H770   H     0.62591   0.32926   0.39994   0.00000  Uiso   1.00
H771   H     0.62185   0.37323   0.42308   0.00000  Uiso   1.00
H772   H     0.60817   0.36814   0.37311   0.00000  Uiso   1.00
H773   H     0.52829   0.18246   0.64113   0.00000  Uiso   1.00
H774   H     0.53662   0.16511   0.59258   0.00000  Uiso   1.00
H775   H     0.98256   0.13155   0.65103   0.00000  Uiso   1.00
H776   H     0.99552   0.11343   0.60437   0.00000  Uiso   1.00
H777   H     0.97664   0.13218   0.52105   0.00000  Uiso   1.00
H778   H     0.56105   0.10914   0.62913   0.00000  Uiso   1.00
H779   H     0.52901   0.08109   0.65524   0.00000  Uiso   1.00
H780   H     0.54429   0.12311   0.67659   0.00000  Uiso   1.00
H781   H     0.67845   0.02109   0.37722   0.00000  Uiso   1.00
H782   H     0.65311   0.00329   0.41831   0.00000  Uiso   1.00
H783   H     0.65043   0.47562   0.33358   0.00000  Uiso   1.00
H784   H     0.62590   0.45589   0.37388   0.00000  Uiso   1.00
H785   H     0.59313   0.01524   0.38418   0.00000  Uiso   1.00
H786   H     0.58640   0.49773   0.33563   0.00000  Uiso   1.00
H787   H     0.61772   0.03474   0.34356   0.00000  Uiso   1.00
H788   H     0.66199   0.42069   0.47539   0.00000  Uiso   1.00
H789   H     0.78237   0.08833   0.63518   0.00000  Uiso   1.00
H790   H     0.75083   0.07941   0.59676   0.00000  Uiso   1.00
H791   H     0.83004   0.10607   0.58502   0.00000  Uiso   1.00
H792   H     0.79555   0.10122   0.54790   0.00000  Uiso   1.00
H793   H     0.75705   0.14812   0.58149   0.00000  Uiso   1.00
H794   H     0.80127   0.16556   0.56830   0.00000  Uiso   1.00
H795   H     0.79212   0.15345   0.61821   0.00000  Uiso   1.00
H796   H     0.94177   0.17604   0.36024   0.00000  Uiso   1.00
H797   H     0.93195   0.21223   0.39341   0.00000  Uiso   1.00
H798   H     0.94404   0.13190   0.41805   0.00000  Uiso   1.00
H799   H     0.84545   0.02422   0.56005   0.00000  Uiso   1.00
H800   H     0.92812   0.16895   0.44829   0.00000  Uiso   1.00
H801   H     0.87283   0.17493   0.40434   0.00000  Uiso   1.00
H802   H     0.87637   0.13152   0.42874   0.00000  Uiso   1.00
H803   H     0.88862   0.13486   0.37818   0.00000  Uiso   1.00
H804   H     0.97163   0.31677   0.63949   0.00000  Uiso   1.00
H805   H     0.96698   0.33804   0.59224   0.00000  Uiso   1.00
H806   H     0.52036   0.36333   0.65611   0.00000  Uiso   1.00
H807   H     0.51065   0.38569   0.61059   0.00000  Uiso   1.00
H808   H     0.94455   0.39283   0.63263   0.00000  Uiso   1.00
H809   H     0.97715   0.41642   0.66279   0.00000  Uiso   1.00
H810   H     0.72114   0.40498   0.94156   0.00000  Uiso   1.00
H811   H     0.95807   0.37410   0.67936   0.00000  Uiso   1.00
H812   H     0.82080   0.47857   0.37411   0.00000  Uiso   1.00
H813   H     0.84762   0.49410   0.41515   0.00000  Uiso   1.00
H814   H     0.84838   0.02510   0.33175   0.00000  Uiso   1.00
H815   H     0.87425   0.04306   0.37212   0.00000  Uiso   1.00
H816   H     0.90641   0.48286   0.37886   0.00000  Uiso   1.00
H817   H     0.91221   0.00227   0.33104   0.00000  Uiso   1.00
H818   H     0.88058   0.46539   0.33799   0.00000  Uiso   1.00
H819   H     0.73931   0.41774   0.61650   0.00000  Uiso   1.00
H820   H     0.71234   0.40877   0.57361   0.00000  Uiso   1.00
O821   O     0.75000  -0.00000   0.25000   0.00000  Uiso   1.00
O822   O     0.75000   0.46963   0.66245   0.00000  Uiso   1.00
O823   O     0.84646   0.09774   0.68022   0.00000  Uiso   1.00
O824   O     0.51473   0.31414   0.39731   0.00000  Uiso   1.00
O825   O     0.98418   0.18620   0.60324   0.00000  Uiso   1.00
O826   O     0.69301   0.46869   0.39616   0.00000  Uiso   1.00
O827   O     0.79771   0.04484   0.60147   0.00000  Uiso   1.00
O828   O     0.98417   0.18662   0.39716   0.00000  Uiso   1.00
O829   O     0.51728   0.31289   0.60362   0.00000  Uiso   1.00
O830   O     0.80776   0.03041   0.39613   0.00000  Uiso   1.00
O831   O     0.70027   0.45737   0.60292   0.00000  Uiso   1.00
O832   O     0.79592   0.04727   0.89840   0.00000  Uiso   1.00
O833   O     0.96964   0.25000   0.33755   0.00000  Uiso   1.00
O834   O     0.71870   0.44276   0.10388   0.00000  Uiso   1.00
O835   O     0.93658   0.23412   0.89639   0.00000  Uiso   1.00
O836   O     0.56345   0.26596   0.10273   0.00000  Uiso   1.00
O837   O     0.70582   0.45208   0.89720   0.00000  Uiso   1.00
O838   O     0.78115   0.05710   0.10387   0.00000  Uiso   1.00
O839   O     0.56322   0.26734   0.89676   0.00000  Uiso   1.00
O840   O     0.93608   0.23474   0.10275   0.00000  Uiso   1.00
O841   O     0.53037   0.25000   0.66245   0.00000  Uiso   1.00
O842   O     0.50000   0.21963   0.83755   0.00000  Uiso   1.00
O843   O     0.50000   0.28036   0.16245   0.00000  Uiso   1.00
O844   O     0.78037  -0.00000   0.83755   0.00000  Uiso   1.00
O845   O     0.71964  -0.00000   0.16245   0.00000  Uiso   1.00
O846   O     0.50000   0.28036   0.83755   0.00000  Uiso   1.00
O847   O     0.50000   0.21963   0.16245   0.00000  Uiso   1.00
O848   O     0.71964  -0.00000   0.83755   0.00000  Uiso   1.00
O849   O     0.75000  -0.00000   0.75000   0.00000  Uiso   1.00
O850   O     0.78037  -0.00000   0.16245   0.00000  Uiso   1.00
O851   O     0.70725   0.07307   0.27302   0.00000  Uiso   1.00
O852   O     0.79276   0.42692   0.72698   0.00000  Uiso   1.00
O853   O     0.92693   0.20724   0.27302   0.00000  Uiso   1.00
O854   O     0.57308   0.29275   0.72698   0.00000  Uiso   1.00
O855   O     0.79276   0.42692   0.27302   0.00000  Uiso   1.00
O856   O     0.70725   0.07307   0.72698   0.00000  Uiso   1.00
O857   O     0.57308   0.29275   0.27302   0.00000  Uiso   1.00
O858   O     0.92693   0.20724   0.72698   0.00000  Uiso   1.00
O859   O     0.70725   0.42692   0.72698   0.00000  Uiso   1.00
O860   O     0.50000   0.25000   0.25000   0.00000  Uiso   1.00
O861   O     0.79276   0.07307   0.27302   0.00000  Uiso   1.00
O862   O     0.92693   0.29275   0.72698   0.00000  Uiso   1.00
O863   O     0.57308   0.20724   0.27302   0.00000  Uiso   1.00
O864   O     0.79276   0.07307   0.72698   0.00000  Uiso   1.00
O865   O     0.70725   0.42692   0.27302   0.00000  Uiso   1.00
O866   O     0.57308   0.20724   0.72698   0.00000  Uiso   1.00
O867   O     0.92693   0.29275   0.27302   0.00000  Uiso   1.00
O868   O     0.95725   0.32307   0.77302   0.00000  Uiso   1.00
O869   O     0.54276   0.17692   0.22698   0.00000  Uiso   1.00
O870   O     0.67693   0.45724   0.77302   0.00000  Uiso   1.00
O871   O     0.50000   0.25000   0.75000   0.00000  Uiso   1.00
O872   O     0.82308   0.04275   0.22698   0.00000  Uiso   1.00
O873   O     0.54276   0.17692   0.77302   0.00000  Uiso   1.00
O874   O     0.95725   0.32307   0.22698   0.00000  Uiso   1.00
O875   O     0.82308   0.04275   0.77302   0.00000  Uiso   1.00
O876   O     0.67693   0.45724   0.22698   0.00000  Uiso   1.00
O877   O     0.95725   0.17692   0.22698   0.00000  Uiso   1.00
O878   O     0.54276   0.32307   0.77302   0.00000  Uiso   1.00
O879   O     0.67693   0.04275   0.22698   0.00000  Uiso   1.00
O880   O     0.82308   0.45724   0.77302   0.00000  Uiso   1.00
O881   O     0.54276   0.32307   0.22698   0.00000  Uiso   1.00
O882   O     0.75000   0.46963   0.33755   0.00000  Uiso   1.00
O883   O     0.95725   0.17692   0.77302   0.00000  Uiso   1.00
O884   O     0.82308   0.45724   0.22698   0.00000  Uiso   1.00
O885   O     0.67693   0.04275   0.77302   0.00000  Uiso   1.00
O886   O     0.50132   0.15030   0.46162   0.00000  Uiso   1.00
O887   O     0.52017   0.34741   0.54013   0.00000  Uiso   1.00
O888   O     0.83463   0.05241   0.45942   0.00000  Uiso   1.00
O889   O     0.66383   0.45147   0.54028   0.00000  Uiso   1.00
O890   O     0.50067   0.34867   0.46016   0.00000  Uiso   1.00
O891   O     0.98343   0.15161   0.53968   0.00000  Uiso   1.00
O892   O     0.67004   0.44118   0.45874   0.00000  Uiso   1.00
O893   O     0.75000   0.03036   0.66245   0.00000  Uiso   1.00
O894   O     0.84040   0.04199   0.53900   0.00000  Uiso   1.00
O895   O     0.70262   0.41210   0.96116   0.00000  Uiso   1.00
O896   O     0.80728   0.08089   0.04094   0.00000  Uiso   1.00
O897   O     0.59842   0.26621   0.96006   0.00000  Uiso   1.00
O898   O     0.90143   0.24856   0.03996   0.00000  Uiso   1.00
O899   O     0.79604   0.08698   0.95935   0.00000  Uiso   1.00
O900   O     0.69392   0.41769   0.04097   0.00000  Uiso   1.00
O901   O     0.90281   0.22874   0.96007   0.00000  Uiso   1.00
O902   O     0.59981   0.24873   0.03825   0.00000  Uiso   1.00
O903   O     0.63517   0.41592   0.18258   0.00000  Uiso   1.00
O904   O     0.53037   0.25000   0.33755   0.00000  Uiso   1.00
O905   O     0.84778   0.09664   0.81977   0.00000  Uiso   1.00
O906   O     0.60282   0.15456   0.17882   0.00000  Uiso   1.00
O907   O     0.91060   0.35547   0.81896   0.00000  Uiso   1.00
O908   O     0.86532   0.08352   0.18299   0.00000  Uiso   1.00
O909   O     0.60650   0.44867   0.75671   0.00000  Uiso   1.00
O910   O     0.89765   0.34588   0.17877   0.00000  Uiso   1.00
O911   O     0.59040   0.14565   0.81923   0.00000  Uiso   1.00
O912   O     0.64902   0.09720   0.82128   0.00000  Uiso   1.00
O913   O     0.84759   0.40337   0.18019   0.00000  Uiso   1.00
O914   O     0.55254   0.39306   0.76571   0.00000  Uiso   1.00
O915   O     0.96964   0.25000   0.66245   0.00000  Uiso   1.00
O916   O     0.92476   0.12899   0.18872   0.00000  Uiso   1.00
O917   O     0.85151   0.40330   0.82118   0.00000  Uiso   1.00
O918   O     0.65301   0.09717   0.18020   0.00000  Uiso   1.00
O919   O     0.89851   0.15308   0.82133   0.00000  Uiso   1.00
O920   O     0.57617   0.36982   0.18779   0.00000  Uiso   1.00
O921   O     0.90285   0.14851   0.67861   0.00000  Uiso   1.00
O922   O     0.62062   0.32563   0.31159   0.00000  Uiso   1.00
O923   O     0.84681   0.39864   0.67876   0.00000  Uiso   1.00
O924   O     0.65280   0.09698   0.31980   0.00000  Uiso   1.00
O925   O     0.64304   0.30250   0.73438   0.00000  Uiso   1.00
O926   O     0.75000   0.03036   0.33755   0.00000  Uiso   1.00
O927   O     0.87989   0.17411   0.31200   0.00000  Uiso   1.00
O928   O     0.65292   0.10113   0.67881   0.00000  Uiso   1.00
O929   O     0.84650   0.40228   0.31981   0.00000  Uiso   1.00
O930   O     0.90407   0.35232   0.32123   0.00000  Uiso   1.00
O931   O     0.60502   0.16017   0.68096   0.00000  Uiso   1.00
O932   O     0.83374   0.11515   0.31726   0.00000  Uiso   1.00
O933   O     0.69867   0.35650   0.74326   0.00000  Uiso   1.00
O934   O     0.59541   0.14717   0.32118   0.00000  Uiso   1.00
O935   O     0.89509   0.33989   0.68087   0.00000  Uiso   1.00
O936   O     0.66603   0.38515   0.31726   0.00000  Uiso   1.00
Zn937  Zn    0.70660  -0.00000   0.21735   0.00000  Uiso   1.00
Zn938  Zn    0.54341   0.25000   0.28265   0.00000  Uiso   1.00
Zn939  Zn    0.75000   0.45659   0.71735   0.00000  Uiso   1.00
Zn940  Zn    0.75000   0.04340   0.28265   0.00000  Uiso   1.00
Zn941  Zn    0.54341   0.25000   0.71735   0.00000  Uiso   1.00
Zn942  Zn    0.95660   0.25000   0.28265   0.00000  Uiso   1.00
Zn943  Zn    0.75000   0.04340   0.71735   0.00000  Uiso   1.00
Zn944  Zn    0.75000   0.45659   0.28265   0.00000  Uiso   1.00
Zn945  Zn    0.79341  -0.00000   0.78265   0.00000  Uiso   1.00
Zn946  Zn    0.50000   0.20659   0.21735   0.00000  Uiso   1.00
Zn947  Zn    0.50000   0.29340   0.78265   0.00000  Uiso   1.00
Zn948  Zn    0.79341  -0.00000   0.21735   0.00000  Uiso   1.00
Zn949  Zn    0.70660  -0.00000   0.78265   0.00000  Uiso   1.00
Zn950  Zn    0.50000   0.29340   0.21735   0.00000  Uiso   1.00
Zn951  Zn    0.50000   0.20659   0.78265   0.00000  Uiso   1.00
Zn952  Zn    0.95660   0.25000   0.71735   0.00000  Uiso   1.00
C953   C     0.00740   0.78261   0.41815   0.00000  Uiso   1.00
C954   C     0.23347   0.97106   0.08243   0.00000  Uiso   1.00
C955   C     0.22324   0.97946   0.54066   0.00000  Uiso   1.00
C956   C     0.00487   0.78319   0.45912   0.00000  Uiso   1.00
C957   C     0.49450   0.71666   0.54115   0.00000  Uiso   1.00
C958   C     0.22234   0.98096   0.45850   0.00000  Uiso   1.00
C959   C     0.27908   0.51632   0.54075   0.00000  Uiso   1.00
C960   C     0.23151   0.97196   0.95923   0.00000  Uiso   1.00
C961   C     0.26778   0.52833   0.04148   0.00000  Uiso   1.00
C962   C     0.03333   0.75534   0.95877   0.00000  Uiso   1.00
C963   C     0.46693   0.74471   0.04092   0.00000  Uiso   1.00
C964   C     0.26938   0.52710   0.95944   0.00000  Uiso   1.00
C965   C     0.46744   0.74326   0.91757   0.00000  Uiso   1.00
C966   C     0.23173   0.97155   0.04142   0.00000  Uiso   1.00
C967   C     0.46707   0.74335   0.95866   0.00000  Uiso   1.00
C968   C     0.03340   0.75270   0.04103   0.00000  Uiso   1.00
C969   C     0.09832   0.84806   0.24986   0.00000  Uiso   1.00
C970   C     0.40185   0.65189   0.74998   0.00000  Uiso   1.00
C971   C     0.15190   0.59810   0.25000   0.00000  Uiso   1.00
C972   C     0.34810   0.90196   0.74997   0.00000  Uiso   1.00
C973   C     0.40196   0.65165   0.25017   0.00000  Uiso   1.00
C974   C     0.09823   0.84822   0.75002   0.00000  Uiso   1.00
C975   C     0.34809   0.90189   0.25000   0.00000  Uiso   1.00
C976   C     0.03242   0.75671   0.08188   0.00000  Uiso   1.00
C977   C     0.15197   0.59810   0.75004   0.00000  Uiso   1.00
C978   C     0.09824   0.65195   0.75005   0.00000  Uiso   1.00
C979   C     0.40190   0.84809   0.25000   0.00000  Uiso   1.00
C980   C     0.15193   0.90193   0.74997   0.00000  Uiso   1.00
C981   C     0.34814   0.59803   0.25010   0.00000  Uiso   1.00
C982   C     0.40193   0.84823   0.74995   0.00000  Uiso   1.00
C983   C     0.09810   0.65190   0.25000   0.00000  Uiso   1.00
C984   C     0.34811   0.59810   0.75000   0.00000  Uiso   1.00
C985   C     0.15195   0.90189   0.24992   0.00000  Uiso   1.00
C986   C     0.00097   0.74990   0.47962   0.00000  Uiso   1.00
C987   C     0.22834   0.97498   0.91837   0.00000  Uiso   1.00
C988   C     0.00052   0.74985   0.52076   0.00000  Uiso   1.00
C989   C     0.25106   0.99835   0.47910   0.00000  Uiso   1.00
C990   C     0.25124   0.99785   0.52013   0.00000  Uiso   1.00
C991   C     0.25030   0.99959   0.97991   0.00000  Uiso   1.00
C992   C     0.24986   0.99986   0.02093   0.00000  Uiso   1.00
C993   C     0.00021   0.74913   0.97923   0.00000  Uiso   1.00
C994   C     0.00020   0.74870   0.02037   0.00000  Uiso   1.00
C995   C     0.05255   0.81659   0.38901   0.00000  Uiso   1.00
C996   C     0.07053   0.84526   0.41516   0.00000  Uiso   1.00
C997   C     0.10905   0.85438   0.40185   0.00000  Uiso   1.00
C998   C     0.26616   0.52886   0.08244   0.00000  Uiso   1.00
C999   C     0.01591   0.66778   0.61618   0.00000  Uiso   1.00
C1000  C     0.00520   0.62956   0.62969   0.00000  Uiso   1.00
C1001  C     0.03702   0.60959   0.64877   0.00000  Uiso   1.00
C1002  C     0.16637   0.99604   0.39019   0.00000  Uiso   1.00
C1003  C     0.13751   0.98157   0.36215   0.00000  Uiso   1.00
C1004  C     0.10683   0.50913   0.35609   0.00000  Uiso   1.00
C1005  C     0.28047   0.57944   0.60434   0.00000  Uiso   1.00
C1006  C     0.30029   0.60742   0.57912   0.00000  Uiso   1.00
C1007  C     0.28674   0.64601   0.58739   0.00000  Uiso   1.00
C1008  C     0.44601   0.68529   0.39069   0.00000  Uiso   1.00
C1009  C     0.03281   0.75638   0.91765   0.00000  Uiso   1.00
C1010  C     0.42821   0.65776   0.41825   0.00000  Uiso   1.00
C1011  C     0.38904   0.64940   0.40651   0.00000  Uiso   1.00
C1012  C     0.48622   0.83230   0.61662   0.00000  Uiso   1.00
C1013  C     0.49882   0.86852   0.63400   0.00000  Uiso   1.00
C1014  C     0.46755   0.88917   0.65330   0.00000  Uiso   1.00
C1015  C     0.33369   0.50284   0.38789   0.00000  Uiso   1.00
C1016  C     0.36198   0.51797   0.35964   0.00000  Uiso   1.00
C1017  C     0.39213   0.99030   0.35147   0.00000  Uiso   1.00
C1018  C     0.21164   0.92049   0.60350   0.00000  Uiso   1.00
C1019  C     0.18458   0.89866   0.62790   0.00000  Uiso   1.00
C1020  C     0.46754   0.74226   0.08188   0.00000  Uiso   1.00
C1021  C     0.19714   0.85933   0.63339   0.00000  Uiso   1.00
C1022  C     0.33035   0.53004   0.89348   0.00000  Uiso   1.00
C1023  C     0.35940   0.54876   0.91835   0.00000  Uiso   1.00
C1024  C     0.39754   0.53523   0.90800   0.00000  Uiso   1.00
C1025  C     0.24618   0.91645   0.11090   0.00000  Uiso   1.00
C1026  C     0.23162   0.88810   0.13942   0.00000  Uiso   1.00
C1027  C     0.25925   0.85765   0.14641   0.00000  Uiso   1.00
C1028  C     0.41772   0.76611   0.88508   0.00000  Uiso   1.00
C1029  C     0.37966   0.75544   0.87098   0.00000  Uiso   1.00
C1030  C     0.35907   0.78783   0.85386   0.00000  Uiso   1.00
C1031  C     0.00015   0.75018   0.39808   0.00000  Uiso   1.00
C1032  C     0.06465   0.80413   0.10913   0.00000  Uiso   1.00
C1033  C     0.09187   0.82203   0.08129   0.00000  Uiso   1.00
C1034  C     0.10013   0.86126   0.09289   0.00000  Uiso   1.00
C1035  C     0.16964   0.96530   0.89918   0.00000  Uiso   1.00
C1036  C     0.14536   0.94076   0.87434   0.00000  Uiso   1.00
C1037  C     0.10633   0.95507   0.87249   0.00000  Uiso   1.00
C1038  C     0.25394   0.58373   0.11064   0.00000  Uiso   1.00
C1039  C     0.26879   0.61214   0.13899   0.00000  Uiso   1.00
C1040  C     0.24141   0.64284   0.14586   0.00000  Uiso   1.00
C1041  C     0.08232   0.73659   0.88240   0.00000  Uiso   1.00
C1042  C     0.00002   0.74978   0.60219   0.00000  Uiso   1.00
C1043  C     0.11859   0.74945   0.86545   0.00000  Uiso   1.00
C1044  C     0.13890   0.71865   0.84489   0.00000  Uiso   1.00
C1045  C     0.43388   0.69690   0.11105   0.00000  Uiso   1.00
C1046  C     0.40543   0.67869   0.08481   0.00000  Uiso   1.00
C1047  C     0.39656   0.64011   0.09813   0.00000  Uiso   1.00
C1048  C     0.25023   0.99983   0.39781   0.00000  Uiso   1.00
C1049  C     0.49373   0.71706   0.58229   0.00000  Uiso   1.00
C1050  C     0.25006   0.99968   0.60165   0.00000  Uiso   1.00
C1051  C     0.25031   0.99990   0.89836   0.00000  Uiso   1.00
C1052  C     0.24989   0.99996   0.10221   0.00000  Uiso   1.00
C1053  C     0.00008   0.74996   0.89781   0.00000  Uiso   1.00
C1054  C     0.49993   0.74979   0.10191   0.00000  Uiso   1.00
C1055  C     0.49588   0.68348   0.47965   0.00000  Uiso   1.00
C1056  C     0.01099   0.81584   0.52056   0.00000  Uiso   1.00
C1057  C     0.30786   0.53369   0.47948   0.00000  Uiso   1.00
C1058  C     0.19398   0.96365   0.52004   0.00000  Uiso   1.00
C1059  C     0.00604   0.81626   0.47986   0.00000  Uiso   1.00
C1060  C     0.22147   0.98328   0.41757   0.00000  Uiso   1.00
C1061  C     0.49060   0.68371   0.52010   0.00000  Uiso   1.00
C1062  C     0.19502   0.96197   0.47904   0.00000  Uiso   1.00
C1063  C     0.30895   0.53122   0.52025   0.00000  Uiso   1.00
C1064  C     0.21528   0.94282   0.97987   0.00000  Uiso   1.00
C1065  C     0.28654   0.55574   0.02082   0.00000  Uiso   1.00
C1066  C     0.06632   0.75923   0.97975   0.00000  Uiso   1.00
C1067  C     0.43385   0.74335   0.02023   0.00000  Uiso   1.00
C1068  C     0.28473   0.55663   0.97984   0.00000  Uiso   1.00
C1069  C     0.21326   0.94388   0.02070   0.00000  Uiso   1.00
C1070  C     0.43427   0.73837   0.97956   0.00000  Uiso   1.00
C1071  C     0.27558   0.52073   0.58132   0.00000  Uiso   1.00
C1072  C     0.06660   0.75403   0.02024   0.00000  Uiso   1.00
C1073  C     0.24999   0.50000   0.35566   0.00000  Uiso   1.00
C1074  C     0.24997   0.99997   0.64412   0.00000  Uiso   1.00
C1075  C     0.00002   0.75014   0.35577   0.00000  Uiso   1.00
C1076  C    -0.00000   0.74981   0.64433   0.00000  Uiso   1.00
C1077  C     0.49994   0.75002   0.85567   0.00000  Uiso   1.00
C1078  C     0.49994   0.74997   0.14422   0.00000  Uiso   1.00
C1079  C     0.25006   0.50012   0.85588   0.00000  Uiso   1.00
C1080  C     0.24998   0.99999   0.14435   0.00000  Uiso   1.00
C1081  C     0.17999   0.57001   0.25000   0.00000  Uiso   1.00
C1082  C     0.49328   0.71767   0.41806   0.00000  Uiso   1.00
C1083  C     0.31999   0.93001   0.75000   0.00000  Uiso   1.00
C1084  C     0.42998   0.67988   0.25005   0.00000  Uiso   1.00
C1085  C     0.07007   0.82008   0.75001   0.00000  Uiso   1.00
C1086  C     0.32001   0.92999   0.25000   0.00000  Uiso   1.00
C1087  C     0.18001   0.56999   0.75001   0.00000  Uiso   1.00
C1088  C     0.07011   0.82002   0.24995   0.00000  Uiso   1.00
C1089  C     0.42997   0.67998   0.74999   0.00000  Uiso   1.00
C1090  C     0.17998   0.92998   0.74999   0.00000  Uiso   1.00
C1091  C     0.32003   0.57002   0.25002   0.00000  Uiso   1.00
C1092  C     0.42999   0.82005   0.74998   0.00000  Uiso   1.00
C1093  C     0.00673   0.78246   0.58249   0.00000  Uiso   1.00
C1094  C     0.07000   0.68000   0.25000   0.00000  Uiso   1.00
C1095  C     0.32003   0.57002   0.75000   0.00000  Uiso   1.00
C1096  C     0.17997   0.92998   0.24998   0.00000  Uiso   1.00
C1097  C     0.07005   0.68000   0.75002   0.00000  Uiso   1.00
C1098  C     0.43000   0.81999   0.25000   0.00000  Uiso   1.00
C1099  C     0.12945   0.89723   0.21685   0.00000  Uiso   1.00
C1100  C     0.36193   0.61078   0.78563   0.00000  Uiso   1.00
C1101  C     0.11268   0.63944   0.21418   0.00000  Uiso   1.00
C1102  C     0.39259   0.86550   0.78516   0.00000  Uiso   1.00
C1103  C     0.37091   0.60236   0.21724   0.00000  Uiso   1.00
C1104  C     0.27958   0.51543   0.41759   0.00000  Uiso   1.00
C1105  C     0.11529   0.91203   0.75514   0.00000  Uiso   1.00
C1106  C     0.38757   0.86080   0.21417   0.00000  Uiso   1.00
C1107  C     0.10791   0.63505   0.78533   0.00000  Uiso   1.00
C1108  C     0.13647   0.60962   0.78572   0.00000  Uiso   1.00
C1109  C     0.36171   0.88905   0.21433   0.00000  Uiso   1.00
C1110  C     0.08846   0.88473   0.75741   0.00000  Uiso   1.00
C1111  C     0.39974   0.62701   0.21876   0.00000  Uiso   1.00
C1112  C     0.36389   0.89074   0.78560   0.00000  Uiso   1.00
C1113  C     0.13858   0.61121   0.21433   0.00000  Uiso   1.00
C1114  C     0.38794   0.63878   0.78582   0.00000  Uiso   1.00
C1115  C     0.22509   0.97764   0.58168   0.00000  Uiso   1.00
C1116  C     0.10076   0.87238   0.21821   0.00000  Uiso   1.00
C1117  C     0.38867   0.63795   0.71414   0.00000  Uiso   1.00
C1118  C     0.12278   0.85047   0.28141   0.00000  Uiso   1.00
C1119  C     0.35940   0.88626   0.71432   0.00000  Uiso   1.00
C1120  C     0.13877   0.61141   0.28567   0.00000  Uiso   1.00
C1121  C     0.13472   0.83844   0.74262   0.00000  Uiso   1.00
C1122  C     0.37749   0.64937   0.28170   0.00000  Uiso   1.00
C1123  C     0.14055   0.61370   0.71439   0.00000  Uiso   1.00
C1124  C     0.36089   0.88824   0.28566   0.00000  Uiso   1.00
C1125  C     0.38916   0.86240   0.28582   0.00000  Uiso   1.00
C1126  C     0.27253   0.52451   0.91870   0.00000  Uiso   1.00
C1127  C     0.11528   0.64239   0.71481   0.00000  Uiso   1.00
C1128  C     0.35263   0.62069   0.28307   0.00000  Uiso   1.00
C1129  C     0.16203   0.86528   0.74484   0.00000  Uiso   1.00
C1130  C     0.11055   0.63732   0.28581   0.00000  Uiso   1.00
C1131  C     0.38478   0.85766   0.71472   0.00000  Uiso   1.00
C1132  C     0.14742   0.87932   0.28291   0.00000  Uiso   1.00
C1133  C     0.36070   0.61190   0.71435   0.00000  Uiso   1.00
C1134  C     0.49716   0.71670   0.45891   0.00000  Uiso   1.00
C1135  C     0.00629   0.78296   0.54140   0.00000  Uiso   1.00
C1136  C     0.27956   0.51631   0.45865   0.00000  Uiso   1.00
H1137  H     0.02077   0.65346   0.44192   0.00000  Uiso   1.00
H1138  H     0.32756   0.58912   0.02410   0.00000  Uiso   1.00
H1139  H     0.18148   0.91164   0.65691   0.00000  Uiso   1.00
H1140  H     0.15754   0.89886   0.61332   0.00000  Uiso   1.00
H1141  H     0.20013   0.84563   0.60473   0.00000  Uiso   1.00
H1142  H     0.17664   0.84433   0.65087   0.00000  Uiso   1.00
H1143  H     0.22360   0.85852   0.64908   0.00000  Uiso   1.00
H1144  H     0.33816   0.53299   0.86242   0.00000  Uiso   1.00
H1145  H     0.33044   0.50015   0.89980   0.00000  Uiso   1.00
H1146  H     0.35812   0.57870   0.91370   0.00000  Uiso   1.00
H1147  H     0.35429   0.54298   0.94959   0.00000  Uiso   1.00
H1148  H     0.39960   0.50534   0.91261   0.00000  Uiso   1.00
H1149  H     0.11792   0.77296   0.97862   0.00000  Uiso   1.00
H1150  H     0.41790   0.54894   0.92687   0.00000  Uiso   1.00
H1151  H     0.40391   0.54160   0.87715   0.00000  Uiso   1.00
H1152  H     0.27103   0.92893   0.12393   0.00000  Uiso   1.00
H1153  H     0.25387   0.90264   0.08321   0.00000  Uiso   1.00
H1154  H     0.22542   0.90157   0.16764   0.00000  Uiso   1.00
H1155  H     0.20607   0.87614   0.12769   0.00000  Uiso   1.00
H1156  H     0.26566   0.84343   0.11869   0.00000  Uiso   1.00
H1157  H     0.24774   0.83759   0.16718   0.00000  Uiso   1.00
H1158  H     0.28470   0.86889   0.15902   0.00000  Uiso   1.00
H1159  H     0.43228   0.77981   0.86087   0.00000  Uiso   1.00
H1160  H     0.38284   0.75823   0.02173   0.00000  Uiso   1.00
H1161  H     0.41472   0.78567   0.90976   0.00000  Uiso   1.00
H1162  H     0.38199   0.73395   0.84833   0.00000  Uiso   1.00
H1163  H     0.36381   0.74421   0.89573   0.00000  Uiso   1.00
H1164  H     0.35852   0.81093   0.87476   0.00000  Uiso   1.00
H1165  H     0.33061   0.77974   0.84725   0.00000  Uiso   1.00
H1166  H     0.37218   0.79654   0.82633   0.00000  Uiso   1.00
H1167  H     0.07413   0.80845   0.13949   0.00000  Uiso   1.00
H1168  H     0.03763   0.81805   0.10665   0.00000  Uiso   1.00
H1169  H     0.11781   0.80633   0.08127   0.00000  Uiso   1.00
H1170  H     0.08045   0.82202   0.05136   0.00000  Uiso   1.00
H1171  H     0.29420   0.60875   0.97632   0.00000  Uiso   1.00
H1172  H     0.07454   0.87733   0.09533   0.00000  Uiso   1.00
H1173  H     0.11773   0.87400   0.07046   0.00000  Uiso   1.00
H1174  H     0.11494   0.86179   0.12106   0.00000  Uiso   1.00
H1175  H     0.16786   0.99371   0.88790   0.00000  Uiso   1.00
H1176  H     0.15935   0.96491   0.92966   0.00000  Uiso   1.00
H1177  H     0.15649   0.93919   0.84435   0.00000  Uiso   1.00
H1178  H     0.14531   0.91282   0.88681   0.00000  Uiso   1.00
H1179  H     0.09438   0.95639   0.90216   0.00000  Uiso   1.00
H1180  H     0.08956   0.93651   0.85435   0.00000  Uiso   1.00
H1181  H     0.10572   0.98264   0.85919   0.00000  Uiso   1.00
H1182  H     0.17920   0.90271   0.02292   0.00000  Uiso   1.00
H1183  H     0.22898   0.57156   0.12371   0.00000  Uiso   1.00
H1184  H     0.24643   0.59742   0.08283   0.00000  Uiso   1.00
H1185  H     0.27496   0.59879   0.16727   0.00000  Uiso   1.00
H1186  H     0.29441   0.62382   0.12716   0.00000  Uiso   1.00
H1187  H     0.23505   0.65694   0.11807   0.00000  Uiso   1.00
H1188  H     0.25312   0.66293   0.16650   0.00000  Uiso   1.00
H1189  H     0.21590   0.63187   0.15855   0.00000  Uiso   1.00
H1190  H     0.06666   0.72296   0.85894   0.00000  Uiso   1.00
H1191  H     0.08792   0.71640   0.90591   0.00000  Uiso   1.00
H1192  H     0.11351   0.77173   0.84420   0.00000  Uiso   1.00
H1193  H     0.38665   0.71524   0.97808   0.00000  Uiso   1.00
H1194  H     0.13594   0.76035   0.88925   0.00000  Uiso   1.00
H1195  H     0.14270   0.69508   0.86477   0.00000  Uiso   1.00
H1196  H     0.16609   0.72841   0.83542   0.00000  Uiso   1.00
H1197  H     0.12351   0.70992   0.81870   0.00000  Uiso   1.00
H1198  H     0.42506   0.69415   0.14183   0.00000  Uiso   1.00
H1199  H     0.46038   0.68201   0.10847   0.00000  Uiso   1.00
H1200  H     0.37986   0.69499   0.08504   0.00000  Uiso   1.00
H1201  H     0.41596   0.67735   0.05456   0.00000  Uiso   1.00
H1202  H     0.42180   0.62345   0.10020   0.00000  Uiso   1.00
H1203  H     0.37791   0.62712   0.07681   0.00000  Uiso   1.00
H1204  H     0.09670   0.72935   0.05804   0.00000  Uiso   1.00
H1205  H     0.38265   0.64091   0.12679   0.00000  Uiso   1.00
H1206  H     0.16163   0.91522   0.17702   0.00000  Uiso   1.00
H1207  H     0.36105   0.60642   0.84255   0.00000  Uiso   1.00
H1208  H     0.09575   0.68035   0.18270   0.00000  Uiso   1.00
H1209  H     0.03361   0.86369   0.52222   0.00000  Uiso   1.00
H1210  H     0.40288   0.87116   0.84091   0.00000  Uiso   1.00
H1211  H     0.33893   0.58458   0.17707   0.00000  Uiso   1.00
H1212  H     0.08137   0.95217   0.74688   0.00000  Uiso   1.00
H1213  H     0.40446   0.82000   0.18248   0.00000  Uiso   1.00
H1214  H     0.09840   0.63032   0.84133   0.00000  Uiso   1.00
H1215  H     0.17563   0.59299   0.81948   0.00000  Uiso   1.00
H1216  H     0.36052   0.89313   0.15739   0.00000  Uiso   1.00
H1217  H     0.05189   0.91468   0.78297   0.00000  Uiso   1.00
H1218  H     0.42401   0.60634   0.17307   0.00000  Uiso   1.00
H1219  H     0.32484   0.90719   0.81956   0.00000  Uiso   1.00
H1220  H     0.34986   0.56669   0.47763   0.00000  Uiso   1.00
H1221  H     0.14032   0.60763   0.15736   0.00000  Uiso   1.00
H1222  H     0.40572   0.67881   0.81793   0.00000  Uiso   1.00
H1223  H     0.07703   0.89222   0.17177   0.00000  Uiso   1.00
H1224  H     0.42854   0.65586   0.68198   0.00000  Uiso   1.00
H1225  H     0.14318   0.82648   0.32738   0.00000  Uiso   1.00
H1226  H     0.34279   0.92528   0.68042   0.00000  Uiso   1.00
H1227  H     0.14235   0.60967   0.34264   0.00000  Uiso   1.00
H1228  H     0.16465   0.80180   0.71713   0.00000  Uiso   1.00
H1229  H     0.35748   0.67325   0.32799   0.00000  Uiso   1.00
H1230  H     0.15696   0.57449   0.68056   0.00000  Uiso   1.00
H1231  H     0.14200   0.95351   0.52342   0.00000  Uiso   1.00
H1232  H     0.35672   0.88934   0.34260   0.00000  Uiso   1.00
H1233  H     0.42996   0.84554   0.31752   0.00000  Uiso   1.00
H1234  H     0.12058   0.65235   0.65897   0.00000  Uiso   1.00
H1235  H     0.33456   0.58875   0.32306   0.00000  Uiso   1.00
H1236  H     0.20219   0.83138   0.75312   0.00000  Uiso   1.00
H1237  H     0.06963   0.65426   0.31730   0.00000  Uiso   1.00
H1238  H     0.37957   0.84773   0.65884   0.00000  Uiso   1.00
H1239  H     0.16511   0.91160   0.32287   0.00000  Uiso   1.00
H1240  H     0.35613   0.61103   0.65744   0.00000  Uiso   1.00
H1241  H     0.05524   0.82534   0.35820   0.00000  Uiso   1.00
H1242  H     0.49080   0.86717   0.47837   0.00000  Uiso   1.00
H1243  H     0.06764   0.79021   0.39167   0.00000  Uiso   1.00
H1244  H     0.05403   0.87070   0.41485   0.00000  Uiso   1.00
H1245  H     0.07192   0.83482   0.44546   0.00000  Uiso   1.00
H1246  H     0.12591   0.82926   0.39994   0.00000  Uiso   1.00
H1247  H     0.12185   0.87323   0.42308   0.00000  Uiso   1.00
H1248  H     0.10817   0.86814   0.37311   0.00000  Uiso   1.00
H1249  H     0.02829   0.68246   0.64113   0.00000  Uiso   1.00
H1250  H     0.03662   0.66511   0.59258   0.00000  Uiso   1.00
H1251  H     0.48256   0.63155   0.65103   0.00000  Uiso   1.00
H1252  H     0.49552   0.61343   0.60437   0.00000  Uiso   1.00
H1253  H     0.47664   0.63218   0.52105   0.00000  Uiso   1.00
H1254  H     0.06105   0.60914   0.62913   0.00000  Uiso   1.00
H1255  H     0.02901   0.58109   0.65524   0.00000  Uiso   1.00
H1256  H     0.04429   0.62311   0.67659   0.00000  Uiso   1.00
H1257  H     0.17845   0.52109   0.37722   0.00000  Uiso   1.00
H1258  H     0.15311   0.50329   0.41831   0.00000  Uiso   1.00
H1259  H     0.15043   0.97562   0.33358   0.00000  Uiso   1.00
H1260  H     0.12590   0.95589   0.37388   0.00000  Uiso   1.00
H1261  H     0.09313   0.51524   0.38418   0.00000  Uiso   1.00
H1262  H     0.08640   0.99773   0.33563   0.00000  Uiso   1.00
H1263  H     0.11772   0.53474   0.34356   0.00000  Uiso   1.00
H1264  H     0.16199   0.92069   0.47539   0.00000  Uiso   1.00
H1265  H     0.28237   0.58833   0.63518   0.00000  Uiso   1.00
H1266  H     0.25083   0.57941   0.59676   0.00000  Uiso   1.00
H1267  H     0.33004   0.60607   0.58502   0.00000  Uiso   1.00
H1268  H     0.29555   0.60122   0.54790   0.00000  Uiso   1.00
H1269  H     0.25705   0.64812   0.58149   0.00000  Uiso   1.00
H1270  H     0.30127   0.66556   0.56830   0.00000  Uiso   1.00
H1271  H     0.29212   0.65345   0.61821   0.00000  Uiso   1.00
H1272  H     0.44177   0.67604   0.36024   0.00000  Uiso   1.00
H1273  H     0.43195   0.71223   0.39341   0.00000  Uiso   1.00
H1274  H     0.44404   0.63190   0.41805   0.00000  Uiso   1.00
H1275  H     0.34545   0.52422   0.56005   0.00000  Uiso   1.00
H1276  H     0.42812   0.66895   0.44829   0.00000  Uiso   1.00
H1277  H     0.37283   0.67493   0.40434   0.00000  Uiso   1.00
H1278  H     0.37637   0.63152   0.42874   0.00000  Uiso   1.00
H1279  H     0.38862   0.63486   0.37818   0.00000  Uiso   1.00
H1280  H     0.47163   0.81677   0.63949   0.00000  Uiso   1.00
H1281  H     0.46698   0.83804   0.59224   0.00000  Uiso   1.00
H1282  H     0.02036   0.86333   0.65611   0.00000  Uiso   1.00
H1283  H     0.01065   0.88569   0.61059   0.00000  Uiso   1.00
H1284  H     0.44455   0.89283   0.63263   0.00000  Uiso   1.00
H1285  H     0.47715   0.91642   0.66279   0.00000  Uiso   1.00
H1286  H     0.22114   0.90498   0.94156   0.00000  Uiso   1.00
H1287  H     0.45807   0.87410   0.67936   0.00000  Uiso   1.00
H1288  H     0.32080   0.97857   0.37411   0.00000  Uiso   1.00
H1289  H     0.34762   0.99410   0.41515   0.00000  Uiso   1.00
H1290  H     0.34838   0.52510   0.33175   0.00000  Uiso   1.00
H1291  H     0.37425   0.54306   0.37212   0.00000  Uiso   1.00
H1292  H     0.40641   0.98286   0.37886   0.00000  Uiso   1.00
H1293  H     0.41221   0.50227   0.33104   0.00000  Uiso   1.00
H1294  H     0.38058   0.96539   0.33799   0.00000  Uiso   1.00
H1295  H     0.23931   0.91774   0.61650   0.00000  Uiso   1.00
H1296  H     0.21234   0.90877   0.57361   0.00000  Uiso   1.00
O1297  O     0.25000   0.50000   0.25000   0.00000  Uiso   1.00
O1298  O     0.25000   0.96963   0.66245   0.00000  Uiso   1.00
O1299  O     0.34646   0.59774   0.68022   0.00000  Uiso   1.00
O1300  O     0.01473   0.81414   0.39731   0.00000  Uiso   1.00
O1301  O     0.48418   0.68620   0.60324   0.00000  Uiso   1.00
O1302  O     0.19301   0.96869   0.39616   0.00000  Uiso   1.00
O1303  O     0.29771   0.54484   0.60147   0.00000  Uiso   1.00
O1304  O     0.48417   0.68662   0.39716   0.00000  Uiso   1.00
O1305  O     0.01728   0.81289   0.60362   0.00000  Uiso   1.00
O1306  O     0.30776   0.53041   0.39613   0.00000  Uiso   1.00
O1307  O     0.20027   0.95737   0.60292   0.00000  Uiso   1.00
O1308  O     0.29592   0.54727   0.89840   0.00000  Uiso   1.00
O1309  O     0.46964   0.75000   0.33755   0.00000  Uiso   1.00
O1310  O     0.21870   0.94276   0.10388   0.00000  Uiso   1.00
O1311  O     0.43658   0.73412   0.89639   0.00000  Uiso   1.00
O1312  O     0.06345   0.76596   0.10273   0.00000  Uiso   1.00
O1313  O     0.20582   0.95208   0.89720   0.00000  Uiso   1.00
O1314  O     0.28115   0.55710   0.10387   0.00000  Uiso   1.00
O1315  O     0.06322   0.76734   0.89676   0.00000  Uiso   1.00
O1316  O     0.43608   0.73474   0.10275   0.00000  Uiso   1.00
O1317  O     0.03037   0.75000   0.66245   0.00000  Uiso   1.00
O1318  O     0.00000   0.71963   0.83755   0.00000  Uiso   1.00
O1319  O     0.00000   0.78036   0.16245   0.00000  Uiso   1.00
O1320  O     0.28037   0.50000   0.83755   0.00000  Uiso   1.00
O1321  O     0.21964   0.50000   0.16245   0.00000  Uiso   1.00
O1322  O     0.00000   0.78036   0.83755   0.00000  Uiso   1.00
O1323  O     0.00000   0.71963   0.16245   0.00000  Uiso   1.00
O1324  O     0.21964   0.50000   0.83755   0.00000  Uiso   1.00
O1325  O     0.25000   0.50000   0.75000   0.00000  Uiso   1.00
O1326  O     0.28037   0.50000   0.16245   0.00000  Uiso   1.00
O1327  O     0.20725   0.57307   0.27302   0.00000  Uiso   1.00
O1328  O     0.29276   0.92692   0.72698   0.00000  Uiso   1.00
O1329  O     0.42693   0.70724   0.27302   0.00000  Uiso   1.00
O1330  O     0.07308   0.79275   0.72698   0.00000  Uiso   1.00
O1331  O     0.29276   0.92692   0.27302   0.00000  Uiso   1.00
O1332  O     0.20725   0.57307   0.72698   0.00000  Uiso   1.00
O1333  O     0.07308   0.79275   0.27302   0.00000  Uiso   1.00
O1334  O     0.42693   0.70724   0.72698   0.00000  Uiso   1.00
O1335  O     0.20725   0.92692   0.72698   0.00000  Uiso   1.00
O1336  O     0.00000   0.75000   0.25000   0.00000  Uiso   1.00
O1337  O     0.29276   0.57307   0.27302   0.00000  Uiso   1.00
O1338  O     0.42693   0.79275   0.72698   0.00000  Uiso   1.00
O1339  O     0.07308   0.70724   0.27302   0.00000  Uiso   1.00
O1340  O     0.29276   0.57307   0.72698   0.00000  Uiso   1.00
O1341  O     0.20725   0.92692   0.27302   0.00000  Uiso   1.00
O1342  O     0.07308   0.70724   0.72698   0.00000  Uiso   1.00
O1343  O     0.42693   0.79275   0.27302   0.00000  Uiso   1.00
O1344  O     0.45725   0.82307   0.77302   0.00000  Uiso   1.00
O1345  O     0.04276   0.67692   0.22698   0.00000  Uiso   1.00
O1346  O     0.17693   0.95724   0.77302   0.00000  Uiso   1.00
O1347  O     0.00000   0.75000   0.75000   0.00000  Uiso   1.00
O1348  O     0.32308   0.54275   0.22698   0.00000  Uiso   1.00
O1349  O     0.04276   0.67692   0.77302   0.00000  Uiso   1.00
O1350  O     0.45725   0.82307   0.22698   0.00000  Uiso   1.00
O1351  O     0.32308   0.54275   0.77302   0.00000  Uiso   1.00
O1352  O     0.17693   0.95724   0.22698   0.00000  Uiso   1.00
O1353  O     0.45725   0.67692   0.22698   0.00000  Uiso   1.00
O1354  O     0.04276   0.82307   0.77302   0.00000  Uiso   1.00
O1355  O     0.17693   0.54275   0.22698   0.00000  Uiso   1.00
O1356  O     0.32308   0.95724   0.77302   0.00000  Uiso   1.00
O1357  O     0.04276   0.82307   0.22698   0.00000  Uiso   1.00
O1358  O     0.25000   0.96963   0.33755   0.00000  Uiso   1.00
O1359  O     0.45725   0.67692   0.77302   0.00000  Uiso   1.00
O1360  O     0.32308   0.95724   0.22698   0.00000  Uiso   1.00
O1361  O     0.17693   0.54275   0.77302   0.00000  Uiso   1.00
O1362  O     0.00132   0.65030   0.46162   0.00000  Uiso   1.00
O1363  O     0.02017   0.84741   0.54013   0.00000  Uiso   1.00
O1364  O     0.33463   0.55241   0.45942   0.00000  Uiso   1.00
O1365  O     0.16383   0.95147   0.54028   0.00000  Uiso   1.00
O1366  O     0.00067   0.84867   0.46016   0.00000  Uiso   1.00
O1367  O     0.48343   0.65161   0.53968   0.00000  Uiso   1.00
O1368  O     0.17004   0.94118   0.45874   0.00000  Uiso   1.00
O1369  O     0.25000   0.53036   0.66245   0.00000  Uiso   1.00
O1370  O     0.34040   0.54199   0.53900   0.00000  Uiso   1.00
O1371  O     0.20262   0.91210   0.96116   0.00000  Uiso   1.00
O1372  O     0.30728   0.58089   0.04094   0.00000  Uiso   1.00
O1373  O     0.09842   0.76621   0.96006   0.00000  Uiso   1.00
O1374  O     0.40143   0.74856   0.03996   0.00000  Uiso   1.00
O1375  O     0.29604   0.58698   0.95935   0.00000  Uiso   1.00
O1376  O     0.19392   0.91769   0.04097   0.00000  Uiso   1.00
O1377  O     0.40281   0.72874   0.96007   0.00000  Uiso   1.00
O1378  O     0.09981   0.74873   0.03825   0.00000  Uiso   1.00
O1379  O     0.13517   0.91592   0.18258   0.00000  Uiso   1.00
O1380  O     0.03037   0.75000   0.33755   0.00000  Uiso   1.00
O1381  O     0.34778   0.59664   0.81977   0.00000  Uiso   1.00
O1382  O     0.10282   0.65456   0.17882   0.00000  Uiso   1.00
O1383  O     0.41060   0.85547   0.81896   0.00000  Uiso   1.00
O1384  O     0.36532   0.58352   0.18299   0.00000  Uiso   1.00
O1385  O     0.10650   0.94867   0.75671   0.00000  Uiso   1.00
O1386  O     0.39765   0.84588   0.17877   0.00000  Uiso   1.00
O1387  O     0.09040   0.64565   0.81923   0.00000  Uiso   1.00
O1388  O     0.14902   0.59720   0.82128   0.00000  Uiso   1.00
O1389  O     0.34759   0.90337   0.18019   0.00000  Uiso   1.00
O1390  O     0.05254   0.89306   0.76571   0.00000  Uiso   1.00
O1391  O     0.46964   0.75000   0.66245   0.00000  Uiso   1.00
O1392  O     0.42476   0.62899   0.18872   0.00000  Uiso   1.00
O1393  O     0.35151   0.90330   0.82118   0.00000  Uiso   1.00
O1394  O     0.15301   0.59717   0.18020   0.00000  Uiso   1.00
O1395  O     0.39851   0.65308   0.82133   0.00000  Uiso   1.00
O1396  O     0.07617   0.86982   0.18779   0.00000  Uiso   1.00
O1397  O     0.40285   0.64851   0.67861   0.00000  Uiso   1.00
O1398  O     0.12062   0.82563   0.31159   0.00000  Uiso   1.00
O1399  O     0.34681   0.89864   0.67876   0.00000  Uiso   1.00
O1400  O     0.15280   0.59698   0.31980   0.00000  Uiso   1.00
O1401  O     0.14304   0.80250   0.73438   0.00000  Uiso   1.00
O1402  O     0.25000   0.53036   0.33755   0.00000  Uiso   1.00
O1403  O     0.37989   0.67411   0.31200   0.00000  Uiso   1.00
O1404  O     0.15292   0.60113   0.67881   0.00000  Uiso   1.00
O1405  O     0.34650   0.90228   0.31981   0.00000  Uiso   1.00
O1406  O     0.40407   0.85232   0.32123   0.00000  Uiso   1.00
O1407  O     0.10502   0.66017   0.68096   0.00000  Uiso   1.00
O1408  O     0.33374   0.61515   0.31726   0.00000  Uiso   1.00
O1409  O     0.19867   0.85650   0.74326   0.00000  Uiso   1.00
O1410  O     0.09541   0.64717   0.32118   0.00000  Uiso   1.00
O1411  O     0.39509   0.83989   0.68087   0.00000  Uiso   1.00
O1412  O     0.16603   0.88515   0.31726   0.00000  Uiso   1.00
Zn1413 Zn    0.20660   0.50000   0.21735   0.00000  Uiso   1.00
Zn1414 Zn    0.04341   0.75000   0.28265   0.00000  Uiso   1.00
Zn1415 Zn    0.25000   0.95659   0.71735   0.00000  Uiso   1.00
Zn1416 Zn    0.25000   0.54340   0.28265   0.00000  Uiso   1.00
Zn1417 Zn    0.04341   0.75000   0.71735   0.00000  Uiso   1.00
Zn1418 Zn    0.45660   0.75000   0.28265   0.00000  Uiso   1.00
Zn1419 Zn    0.25000   0.54340   0.71735   0.00000  Uiso   1.00
Zn1420 Zn    0.25000   0.95659   0.28265   0.00000  Uiso   1.00
Zn1421 Zn    0.29341   0.50000   0.78265   0.00000  Uiso   1.00
Zn1422 Zn    0.00000   0.70659   0.21735   0.00000  Uiso   1.00
Zn1423 Zn    0.00000   0.79340   0.78265   0.00000  Uiso   1.00
Zn1424 Zn    0.29341   0.50000   0.21735   0.00000  Uiso   1.00
Zn1425 Zn    0.20660   0.50000   0.78265   0.00000  Uiso   1.00
Zn1426 Zn    0.00000   0.79340   0.21735   0.00000  Uiso   1.00
Zn1427 Zn    0.00000   0.70659   0.78265   0.00000  Uiso   1.00
Zn1428 Zn    0.45660   0.75000   0.71735   0.00000  Uiso   1.00
C1429  C     0.50740   0.78261   0.41815   0.00000  Uiso   1.00
C1430  C     0.73347   0.97106   0.08243   0.00000  Uiso   1.00
C1431  C     0.72324   0.97946   0.54066   0.00000  Uiso   1.00
C1432  C     0.50487   0.78319   0.45912   0.00000  Uiso   1.00
C1433  C     0.99450   0.71666   0.54115   0.00000  Uiso   1.00
C1434  C     0.72234   0.98096   0.45850   0.00000  Uiso   1.00
C1435  C     0.77908   0.51632   0.54075   0.00000  Uiso   1.00
C1436  C     0.73151   0.97196   0.95923   0.00000  Uiso   1.00
C1437  C     0.76778   0.52833   0.04148   0.00000  Uiso   1.00
C1438  C     0.53333   0.75534   0.95877   0.00000  Uiso   1.00
C1439  C     0.96693   0.74471   0.04092   0.00000  Uiso   1.00
C1440  C     0.76938   0.52710   0.95944   0.00000  Uiso   1.00
C1441  C     0.96744   0.74326   0.91757   0.00000  Uiso   1.00
C1442  C     0.73173   0.97155   0.04142   0.00000  Uiso   1.00
C1443  C     0.96707   0.74335   0.95866   0.00000  Uiso   1.00
C1444  C     0.53340   0.75270   0.04103   0.00000  Uiso   1.00
C1445  C     0.59832   0.84806   0.24986   0.00000  Uiso   1.00
C1446  C     0.90185   0.65189   0.74998   0.00000  Uiso   1.00
C1447  C     0.65190   0.59810   0.25000   0.00000  Uiso   1.00
C1448  C     0.84810   0.90196   0.74997   0.00000  Uiso   1.00
C1449  C     0.90196   0.65165   0.25017   0.00000  Uiso   1.00
C1450  C     0.59823   0.84822   0.75002   0.00000  Uiso   1.00
C1451  C     0.84809   0.90189   0.25000   0.00000  Uiso   1.00
C1452  C     0.53242   0.75671   0.08188   0.00000  Uiso   1.00
C1453  C     0.65197   0.59810   0.75004   0.00000  Uiso   1.00
C1454  C     0.59824   0.65195   0.75005   0.00000  Uiso   1.00
C1455  C     0.90190   0.84809   0.25000   0.00000  Uiso   1.00
C1456  C     0.65193   0.90193   0.74997   0.00000  Uiso   1.00
C1457  C     0.84814   0.59803   0.25010   0.00000  Uiso   1.00
C1458  C     0.90193   0.84823   0.74995   0.00000  Uiso   1.00
C1459  C     0.59810   0.65190   0.25000   0.00000  Uiso   1.00
C1460  C     0.84811   0.59810   0.75000   0.00000  Uiso   1.00
C1461  C     0.65195   0.90189   0.24992   0.00000  Uiso   1.00
C1462  C     0.50097   0.74990   0.47962   0.00000  Uiso   1.00
C1463  C     0.72834   0.97498   0.91837   0.00000  Uiso   1.00
C1464  C     0.50052   0.74985   0.52076   0.00000  Uiso   1.00
C1465  C     0.75106   0.99835   0.47910   0.00000  Uiso   1.00
C1466  C     0.75124   0.99785   0.52013   0.00000  Uiso   1.00
C1467  C     0.75030   0.99959   0.97991   0.00000  Uiso   1.00
C1468  C     0.74986   0.99986   0.02093   0.00000  Uiso   1.00
C1469  C     0.50021   0.74913   0.97923   0.00000  Uiso   1.00
C1470  C     0.50020   0.74870   0.02037   0.00000  Uiso   1.00
C1471  C     0.55255   0.81659   0.38901   0.00000  Uiso   1.00
C1472  C     0.57053   0.84526   0.41516   0.00000  Uiso   1.00
C1473  C     0.60905   0.85438   0.40185   0.00000  Uiso   1.00
C1474  C     0.76616   0.52886   0.08244   0.00000  Uiso   1.00
C1475  C     0.51591   0.66778   0.61618   0.00000  Uiso   1.00
C1476  C     0.50520   0.62956   0.62969   0.00000  Uiso   1.00
C1477  C     0.53702   0.60959   0.64877   0.00000  Uiso   1.00
C1478  C     0.66637   0.99604   0.39019   0.00000  Uiso   1.00
C1479  C     0.63751   0.98157   0.36215   0.00000  Uiso   1.00
C1480  C     0.60683   0.50913   0.35609   0.00000  Uiso   1.00
C1481  C     0.78047   0.57944   0.60434   0.00000  Uiso   1.00
C1482  C     0.80029   0.60742   0.57912   0.00000  Uiso   1.00
C1483  C     0.78674   0.64601   0.58739   0.00000  Uiso   1.00
C1484  C     0.94601   0.68529   0.39069   0.00000  Uiso   1.00
C1485  C     0.53281   0.75638   0.91765   0.00000  Uiso   1.00
C1486  C     0.92821   0.65776   0.41825   0.00000  Uiso   1.00
C1487  C     0.88904   0.64940   0.40651   0.00000  Uiso   1.00
C1488  C     0.98622   0.83230   0.61662   0.00000  Uiso   1.00
C1489  C     0.99882   0.86852   0.63400   0.00000  Uiso   1.00
C1490  C     0.96755   0.88917   0.65330   0.00000  Uiso   1.00
C1491  C     0.83369   0.50284   0.38789   0.00000  Uiso   1.00
C1492  C     0.86198   0.51797   0.35964   0.00000  Uiso   1.00
C1493  C     0.89213   0.99030   0.35147   0.00000  Uiso   1.00
C1494  C     0.71164   0.92049   0.60350   0.00000  Uiso   1.00
C1495  C     0.68458   0.89866   0.62790   0.00000  Uiso   1.00
C1496  C     0.96754   0.74226   0.08188   0.00000  Uiso   1.00
C1497  C     0.69714   0.85933   0.63339   0.00000  Uiso   1.00
C1498  C     0.83035   0.53004   0.89348   0.00000  Uiso   1.00
C1499  C     0.85940   0.54876   0.91835   0.00000  Uiso   1.00
C1500  C     0.89754   0.53523   0.90800   0.00000  Uiso   1.00
C1501  C     0.74618   0.91645   0.11090   0.00000  Uiso   1.00
C1502  C     0.73162   0.88810   0.13942   0.00000  Uiso   1.00
C1503  C     0.75925   0.85765   0.14641   0.00000  Uiso   1.00
C1504  C     0.91772   0.76611   0.88508   0.00000  Uiso   1.00
C1505  C     0.87966   0.75544   0.87098   0.00000  Uiso   1.00
C1506  C     0.85907   0.78783   0.85386   0.00000  Uiso   1.00
C1507  C     0.50015   0.75018   0.39808   0.00000  Uiso   1.00
C1508  C     0.56465   0.80413   0.10913   0.00000  Uiso   1.00
C1509  C     0.59187   0.82203   0.08129   0.00000  Uiso   1.00
C1510  C     0.60013   0.86126   0.09289   0.00000  Uiso   1.00
C1511  C     0.66964   0.96530   0.89918   0.00000  Uiso   1.00
C1512  C     0.64536   0.94076   0.87434   0.00000  Uiso   1.00
C1513  C     0.60633   0.95507   0.87249   0.00000  Uiso   1.00
C1514  C     0.75394   0.58373   0.11064   0.00000  Uiso   1.00
C1515  C     0.76879   0.61214   0.13899   0.00000  Uiso   1.00
C1516  C     0.74141   0.64284   0.14586   0.00000  Uiso   1.00
C1517  C     0.58232   0.73659   0.88240   0.00000  Uiso   1.00
C1518  C     0.50002   0.74978   0.60219   0.00000  Uiso   1.00
C1519  C     0.61859   0.74945   0.86545   0.00000  Uiso   1.00
C1520  C     0.63890   0.71865   0.84489   0.00000  Uiso   1.00
C1521  C     0.93388   0.69690   0.11105   0.00000  Uiso   1.00
C1522  C     0.90543   0.67869   0.08481   0.00000  Uiso   1.00
C1523  C     0.89656   0.64011   0.09813   0.00000  Uiso   1.00
C1524  C     0.75023   0.99983   0.39781   0.00000  Uiso   1.00
C1525  C     0.99373   0.71706   0.58229   0.00000  Uiso   1.00
C1526  C     0.75006   0.99968   0.60165   0.00000  Uiso   1.00
C1527  C     0.75031   0.99990   0.89836   0.00000  Uiso   1.00
C1528  C     0.74989   0.99996   0.10221   0.00000  Uiso   1.00
C1529  C     0.50008   0.74996   0.89781   0.00000  Uiso   1.00
C1530  C     0.99993   0.74979   0.10191   0.00000  Uiso   1.00
C1531  C     0.99588   0.68348   0.47965   0.00000  Uiso   1.00
C1532  C     0.51099   0.81584   0.52056   0.00000  Uiso   1.00
C1533  C     0.80786   0.53369   0.47948   0.00000  Uiso   1.00
C1534  C     0.69398   0.96365   0.52004   0.00000  Uiso   1.00
C1535  C     0.50604   0.81626   0.47986   0.00000  Uiso   1.00
C1536  C     0.72147   0.98328   0.41757   0.00000  Uiso   1.00
C1537  C     0.99060   0.68371   0.52010   0.00000  Uiso   1.00
C1538  C     0.69502   0.96197   0.47904   0.00000  Uiso   1.00
C1539  C     0.80895   0.53122   0.52025   0.00000  Uiso   1.00
C1540  C     0.71528   0.94282   0.97987   0.00000  Uiso   1.00
C1541  C     0.78654   0.55574   0.02082   0.00000  Uiso   1.00
C1542  C     0.56632   0.75923   0.97975   0.00000  Uiso   1.00
C1543  C     0.93385   0.74335   0.02023   0.00000  Uiso   1.00
C1544  C     0.78473   0.55663   0.97984   0.00000  Uiso   1.00
C1545  C     0.71326   0.94388   0.02070   0.00000  Uiso   1.00
C1546  C     0.93427   0.73837   0.97956   0.00000  Uiso   1.00
C1547  C     0.77558   0.52073   0.58132   0.00000  Uiso   1.00
C1548  C     0.56660   0.75403   0.02024   0.00000  Uiso   1.00
C1549  C     0.74999   0.50000   0.35566   0.00000  Uiso   1.00
C1550  C     0.74997   0.99997   0.64412   0.00000  Uiso   1.00
C1551  C     0.50002   0.75014   0.35577   0.00000  Uiso   1.00
C1552  C     0.50000   0.74981   0.64433   0.00000  Uiso   1.00
C1553  C     0.99994   0.75002   0.85567   0.00000  Uiso   1.00
C1554  C     0.99994   0.74997   0.14422   0.00000  Uiso   1.00
C1555  C     0.75006   0.50012   0.85588   0.00000  Uiso   1.00
C1556  C     0.74998   0.99999   0.14435   0.00000  Uiso   1.00
C1557  C     0.67999   0.57001   0.25000   0.00000  Uiso   1.00
C1558  C     0.99328   0.71767   0.41806   0.00000  Uiso   1.00
C1559  C     0.81999   0.93001   0.75000   0.00000  Uiso   1.00
C1560  C     0.92998   0.67988   0.25005   0.00000  Uiso   1.00
C1561  C     0.57007   0.82008   0.75001   0.00000  Uiso   1.00
C1562  C     0.82001   0.92999   0.25000   0.00000  Uiso   1.00
C1563  C     0.68001   0.56999   0.75001   0.00000  Uiso   1.00
C1564  C     0.57011   0.82002   0.24995   0.00000  Uiso   1.00
C1565  C     0.92997   0.67998   0.74999   0.00000  Uiso   1.00
C1566  C     0.67998   0.92998   0.74999   0.00000  Uiso   1.00
C1567  C     0.82003   0.57002   0.25002   0.00000  Uiso   1.00
C1568  C     0.92999   0.82005   0.74998   0.00000  Uiso   1.00
C1569  C     0.50673   0.78246   0.58249   0.00000  Uiso   1.00
C1570  C     0.57000   0.68000   0.25000   0.00000  Uiso   1.00
C1571  C     0.82003   0.57002   0.75000   0.00000  Uiso   1.00
C1572  C     0.67997   0.92998   0.24998   0.00000  Uiso   1.00
C1573  C     0.57005   0.68000   0.75002   0.00000  Uiso   1.00
C1574  C     0.93000   0.81999   0.25000   0.00000  Uiso   1.00
C1575  C     0.62945   0.89723   0.21685   0.00000  Uiso   1.00
C1576  C     0.86193   0.61078   0.78563   0.00000  Uiso   1.00
C1577  C     0.61268   0.63944   0.21418   0.00000  Uiso   1.00
C1578  C     0.89259   0.86550   0.78516   0.00000  Uiso   1.00
C1579  C     0.87091   0.60236   0.21724   0.00000  Uiso   1.00
C1580  C     0.77958   0.51543   0.41759   0.00000  Uiso   1.00
C1581  C     0.61529   0.91203   0.75514   0.00000  Uiso   1.00
C1582  C     0.88757   0.86080   0.21417   0.00000  Uiso   1.00
C1583  C     0.60791   0.63505   0.78533   0.00000  Uiso   1.00
C1584  C     0.63647   0.60962   0.78572   0.00000  Uiso   1.00
C1585  C     0.86171   0.88905   0.21433   0.00000  Uiso   1.00
C1586  C     0.58846   0.88473   0.75741   0.00000  Uiso   1.00
C1587  C     0.89974   0.62701   0.21876   0.00000  Uiso   1.00
C1588  C     0.86389   0.89074   0.78560   0.00000  Uiso   1.00
C1589  C     0.63858   0.61121   0.21433   0.00000  Uiso   1.00
C1590  C     0.88794   0.63878   0.78582   0.00000  Uiso   1.00
C1591  C     0.72509   0.97764   0.58168   0.00000  Uiso   1.00
C1592  C     0.60076   0.87238   0.21821   0.00000  Uiso   1.00
C1593  C     0.88867   0.63795   0.71414   0.00000  Uiso   1.00
C1594  C     0.62278   0.85047   0.28141   0.00000  Uiso   1.00
C1595  C     0.85940   0.88626   0.71432   0.00000  Uiso   1.00
C1596  C     0.63877   0.61141   0.28567   0.00000  Uiso   1.00
C1597  C     0.63472   0.83844   0.74262   0.00000  Uiso   1.00
C1598  C     0.87749   0.64937   0.28170   0.00000  Uiso   1.00
C1599  C     0.64055   0.61370   0.71439   0.00000  Uiso   1.00
C1600  C     0.86089   0.88824   0.28566   0.00000  Uiso   1.00
C1601  C     0.88916   0.86240   0.28582   0.00000  Uiso   1.00
C1602  C     0.77253   0.52451   0.91870   0.00000  Uiso   1.00
C1603  C     0.61528   0.64239   0.71481   0.00000  Uiso   1.00
C1604  C     0.85263   0.62069   0.28307   0.00000  Uiso   1.00
C1605  C     0.66203   0.86528   0.74484   0.00000  Uiso   1.00
C1606  C     0.61055   0.63732   0.28581   0.00000  Uiso   1.00
C1607  C     0.88478   0.85766   0.71472   0.00000  Uiso   1.00
C1608  C     0.64742   0.87932   0.28291   0.00000  Uiso   1.00
C1609  C     0.86070   0.61190   0.71435   0.00000  Uiso   1.00
C1610  C     0.99716   0.71670   0.45891   0.00000  Uiso   1.00
C1611  C     0.50629   0.78296   0.54140   0.00000  Uiso   1.00
C1612  C     0.77956   0.51631   0.45865   0.00000  Uiso   1.00
H1613  H     0.52077   0.65346   0.44192   0.00000  Uiso   1.00
H1614  H     0.82756   0.58912   0.02410   0.00000  Uiso   1.00
H1615  H     0.68148   0.91164   0.65691   0.00000  Uiso   1.00
H1616  H     0.65754   0.89886   0.61332   0.00000  Uiso   1.00
H1617  H     0.70013   0.84563   0.60473   0.00000  Uiso   1.00
H1618  H     0.67664   0.84433   0.65087   0.00000  Uiso   1.00
H1619  H     0.72360   0.85852   0.64908   0.00000  Uiso   1.00
H1620  H     0.83816   0.53299   0.86242   0.00000  Uiso   1.00
H1621  H     0.83044   0.50015   0.89980   0.00000  Uiso   1.00
H1622  H     0.85812   0.57870   0.91370   0.00000  Uiso   1.00
H1623  H     0.85429   0.54298   0.94959   0.00000  Uiso   1.00
H1624  H     0.89960   0.50534   0.91261   0.00000  Uiso   1.00
H1625  H     0.61792   0.77296   0.97862   0.00000  Uiso   1.00
H1626  H     0.91790   0.54894   0.92687   0.00000  Uiso   1.00
H1627  H     0.90391   0.54160   0.87715   0.00000  Uiso   1.00
H1628  H     0.77103   0.92893   0.12393   0.00000  Uiso   1.00
H1629  H     0.75387   0.90264   0.08321   0.00000  Uiso   1.00
H1630  H     0.72542   0.90157   0.16764   0.00000  Uiso   1.00
H1631  H     0.70607   0.87614   0.12769   0.00000  Uiso   1.00
H1632  H     0.76566   0.84343   0.11869   0.00000  Uiso   1.00
H1633  H     0.74774   0.83759   0.16718   0.00000  Uiso   1.00
H1634  H     0.78470   0.86889   0.15902   0.00000  Uiso   1.00
H1635  H     0.93228   0.77981   0.86087   0.00000  Uiso   1.00
H1636  H     0.88284   0.75823   0.02173   0.00000  Uiso   1.00
H1637  H     0.91472   0.78567   0.90976   0.00000  Uiso   1.00
H1638  H     0.88199   0.73395   0.84833   0.00000  Uiso   1.00
H1639  H     0.86381   0.74421   0.89573   0.00000  Uiso   1.00
H1640  H     0.85852   0.81093   0.87476   0.00000  Uiso   1.00
H1641  H     0.83061   0.77974   0.84725   0.00000  Uiso   1.00
H1642  H     0.87218   0.79654   0.82633   0.00000  Uiso   1.00
H1643  H     0.57413   0.80845   0.13949   0.00000  Uiso   1.00
H1644  H     0.53763   0.81805   0.10665   0.00000  Uiso   1.00
H1645  H     0.61781   0.80633   0.08127   0.00000  Uiso   1.00
H1646  H     0.58045   0.82202   0.05136   0.00000  Uiso   1.00
H1647  H     0.79420   0.60875   0.97632   0.00000  Uiso   1.00
H1648  H     0.57454   0.87733   0.09533   0.00000  Uiso   1.00
H1649  H     0.61773   0.87400   0.07046   0.00000  Uiso   1.00
H1650  H     0.61494   0.86179   0.12106   0.00000  Uiso   1.00
H1651  H     0.66786   0.99371   0.88790   0.00000  Uiso   1.00
H1652  H     0.65935   0.96491   0.92966   0.00000  Uiso   1.00
H1653  H     0.65649   0.93919   0.84435   0.00000  Uiso   1.00
H1654  H     0.64531   0.91282   0.88681   0.00000  Uiso   1.00
H1655  H     0.59438   0.95639   0.90216   0.00000  Uiso   1.00
H1656  H     0.58956   0.93651   0.85435   0.00000  Uiso   1.00
H1657  H     0.60572   0.98264   0.85919   0.00000  Uiso   1.00
H1658  H     0.67920   0.90271   0.02292   0.00000  Uiso   1.00
H1659  H     0.72898   0.57156   0.12371   0.00000  Uiso   1.00
H1660  H     0.74643   0.59742   0.08283   0.00000  Uiso   1.00
H1661  H     0.77496   0.59879   0.16727   0.00000  Uiso   1.00
H1662  H     0.79441   0.62382   0.12716   0.00000  Uiso   1.00
H1663  H     0.73505   0.65694   0.11807   0.00000  Uiso   1.00
H1664  H     0.75312   0.66293   0.16650   0.00000  Uiso   1.00
H1665  H     0.71590   0.63187   0.15855   0.00000  Uiso   1.00
H1666  H     0.56666   0.72296   0.85894   0.00000  Uiso   1.00
H1667  H     0.58792   0.71640   0.90591   0.00000  Uiso   1.00
H1668  H     0.61351   0.77173   0.84420   0.00000  Uiso   1.00
H1669  H     0.88665   0.71524   0.97808   0.00000  Uiso   1.00
H1670  H     0.63594   0.76035   0.88925   0.00000  Uiso   1.00
H1671  H     0.64270   0.69508   0.86477   0.00000  Uiso   1.00
H1672  H     0.66609   0.72841   0.83542   0.00000  Uiso   1.00
H1673  H     0.62351   0.70992   0.81870   0.00000  Uiso   1.00
H1674  H     0.92506   0.69415   0.14183   0.00000  Uiso   1.00
H1675  H     0.96038   0.68201   0.10847   0.00000  Uiso   1.00
H1676  H     0.87986   0.69499   0.08504   0.00000  Uiso   1.00
H1677  H     0.91596   0.67735   0.05456   0.00000  Uiso   1.00
H1678  H     0.92180   0.62345   0.10020   0.00000  Uiso   1.00
H1679  H     0.87791   0.62712   0.07681   0.00000  Uiso   1.00
H1680  H     0.59670   0.72935   0.05804   0.00000  Uiso   1.00
H1681  H     0.88265   0.64091   0.12679   0.00000  Uiso   1.00
H1682  H     0.66163   0.91522   0.17702   0.00000  Uiso   1.00
H1683  H     0.86105   0.60642   0.84255   0.00000  Uiso   1.00
H1684  H     0.59575   0.68035   0.18270   0.00000  Uiso   1.00
H1685  H     0.53361   0.86369   0.52222   0.00000  Uiso   1.00
H1686  H     0.90288   0.87116   0.84091   0.00000  Uiso   1.00
H1687  H     0.83893   0.58458   0.17707   0.00000  Uiso   1.00
H1688  H     0.58137   0.95217   0.74688   0.00000  Uiso   1.00
H1689  H     0.90446   0.82000   0.18248   0.00000  Uiso   1.00
H1690  H     0.59840   0.63032   0.84133   0.00000  Uiso   1.00
H1691  H     0.67563   0.59299   0.81948   0.00000  Uiso   1.00
H1692  H     0.86052   0.89313   0.15739   0.00000  Uiso   1.00
H1693  H     0.55189   0.91468   0.78297   0.00000  Uiso   1.00
H1694  H     0.92401   0.60634   0.17307   0.00000  Uiso   1.00
H1695  H     0.82484   0.90719   0.81956   0.00000  Uiso   1.00
H1696  H     0.84986   0.56669   0.47763   0.00000  Uiso   1.00
H1697  H     0.64032   0.60763   0.15736   0.00000  Uiso   1.00
H1698  H     0.90572   0.67881   0.81793   0.00000  Uiso   1.00
H1699  H     0.57703   0.89222   0.17177   0.00000  Uiso   1.00
H1700  H     0.92854   0.65586   0.68198   0.00000  Uiso   1.00
H1701  H     0.64318   0.82648   0.32738   0.00000  Uiso   1.00
H1702  H     0.84279   0.92528   0.68042   0.00000  Uiso   1.00
H1703  H     0.64235   0.60967   0.34264   0.00000  Uiso   1.00
H1704  H     0.66465   0.80180   0.71713   0.00000  Uiso   1.00
H1705  H     0.85748   0.67325   0.32799   0.00000  Uiso   1.00
H1706  H     0.65696   0.57449   0.68056   0.00000  Uiso   1.00
H1707  H     0.64200   0.95351   0.52342   0.00000  Uiso   1.00
H1708  H     0.85672   0.88934   0.34260   0.00000  Uiso   1.00
H1709  H     0.92996   0.84554   0.31752   0.00000  Uiso   1.00
H1710  H     0.62058   0.65235   0.65897   0.00000  Uiso   1.00
H1711  H     0.83456   0.58875   0.32306   0.00000  Uiso   1.00
H1712  H     0.70219   0.83138   0.75312   0.00000  Uiso   1.00
H1713  H     0.56963   0.65426   0.31730   0.00000  Uiso   1.00
H1714  H     0.87957   0.84773   0.65884   0.00000  Uiso   1.00
H1715  H     0.66511   0.91160   0.32287   0.00000  Uiso   1.00
H1716  H     0.85613   0.61103   0.65744   0.00000  Uiso   1.00
H1717  H     0.55524   0.82534   0.35820   0.00000  Uiso   1.00
H1718  H     0.99080   0.86717   0.47837   0.00000  Uiso   1.00
H1719  H     0.56764   0.79021   0.39167   0.00000  Uiso   1.00
H1720  H     0.55403   0.87070   0.41485   0.00000  Uiso   1.00
H1721  H     0.57192   0.83482   0.44546   0.00000  Uiso   1.00
H1722  H     0.62591   0.82926   0.39994   0.00000  Uiso   1.00
H1723  H     0.62185   0.87323   0.42308   0.00000  Uiso   1.00
H1724  H     0.60817   0.86814   0.37311   0.00000  Uiso   1.00
H1725  H     0.52829   0.68246   0.64113   0.00000  Uiso   1.00
H1726  H     0.53662   0.66511   0.59258   0.00000  Uiso   1.00
H1727  H     0.98256   0.63155   0.65103   0.00000  Uiso   1.00
H1728  H     0.99552   0.61343   0.60437   0.00000  Uiso   1.00
H1729  H     0.97664   0.63218   0.52105   0.00000  Uiso   1.00
H1730  H     0.56105   0.60914   0.62913   0.00000  Uiso   1.00
H1731  H     0.52901   0.58109   0.65524   0.00000  Uiso   1.00
H1732  H     0.54429   0.62311   0.67659   0.00000  Uiso   1.00
H1733  H     0.67845   0.52109   0.37722   0.00000  Uiso   1.00
H1734  H     0.65311   0.50329   0.41831   0.00000  Uiso   1.00
H1735  H     0.65043   0.97562   0.33358   0.00000  Uiso   1.00
H1736  H     0.62590   0.95589   0.37388   0.00000  Uiso   1.00
H1737  H     0.59313   0.51524   0.38418   0.00000  Uiso   1.00
H1738  H     0.58640   0.99773   0.33563   0.00000  Uiso   1.00
H1739  H     0.61772   0.53474   0.34356   0.00000  Uiso   1.00
H1740  H     0.66199   0.92069   0.47539   0.00000  Uiso   1.00
H1741  H     0.78237   0.58833   0.63518   0.00000  Uiso   1.00
H1742  H     0.75083   0.57941   0.59676   0.00000  Uiso   1.00
H1743  H     0.83004   0.60607   0.58502   0.00000  Uiso   1.00
H1744  H     0.79555   0.60122   0.54790   0.00000  Uiso   1.00
H1745  H     0.75705   0.64812   0.58149   0.00000  Uiso   1.00
H1746  H     0.80127   0.66556   0.56830   0.00000  Uiso   1.00
H1747  H     0.79212   0.65345   0.61821   0.00000  Uiso   1.00
H1748  H     0.94177   0.67604   0.36024   0.00000  Uiso   1.00
H1749  H     0.93195   0.71223   0.39341   0.00000  Uiso   1.00
H1750  H     0.94404   0.63190   0.41805   0.00000  Uiso   1.00
H1751  H     0.84545   0.52422   0.56005   0.00000  Uiso   1.00
H1752  H     0.92812   0.66895   0.44829   0.00000  Uiso   1.00
H1753  H     0.87283   0.67493   0.40434   0.00000  Uiso   1.00
H1754  H     0.87637   0.63152   0.42874   0.00000  Uiso   1.00
H1755  H     0.88862   0.63486   0.37818   0.00000  Uiso   1.00
H1756  H     0.97163   0.81677   0.63949   0.00000  Uiso   1.00
H1757  H     0.96698   0.83804   0.59224   0.00000  Uiso   1.00
H1758  H     0.52036   0.86333   0.65611   0.00000  Uiso   1.00
H1759  H     0.51065   0.88569   0.61059   0.00000  Uiso   1.00
H1760  H     0.94455   0.89283   0.63263   0.00000  Uiso   1.00
H1761  H     0.97715   0.91642   0.66279   0.00000  Uiso   1.00
H1762  H     0.72114   0.90498   0.94156   0.00000  Uiso   1.00
H1763  H     0.95807   0.87410   0.67936   0.00000  Uiso   1.00
H1764  H     0.82080   0.97857   0.37411   0.00000  Uiso   1.00
H1765  H     0.84762   0.99410   0.41515   0.00000  Uiso   1.00
H1766  H     0.84838   0.52510   0.33175   0.00000  Uiso   1.00
H1767  H     0.87425   0.54306   0.37212   0.00000  Uiso   1.00
H1768  H     0.90641   0.98286   0.37886   0.00000  Uiso   1.00
H1769  H     0.91221   0.50227   0.33104   0.00000  Uiso   1.00
H1770  H     0.88058   0.96539   0.33799   0.00000  Uiso   1.00
H1771  H     0.73931   0.91774   0.61650   0.00000  Uiso   1.00
H1772  H     0.71234   0.90877   0.57361   0.00000  Uiso   1.00
O1773  O     0.75000   0.50000   0.25000   0.00000  Uiso   1.00
O1774  O     0.75000   0.96963   0.66245   0.00000  Uiso   1.00
O1775  O     0.84646   0.59774   0.68022   0.00000  Uiso   1.00
O1776  O     0.51473   0.81414   0.39731   0.00000  Uiso   1.00
O1777  O     0.98418   0.68620   0.60324   0.00000  Uiso   1.00
O1778  O     0.69301   0.96869   0.39616   0.00000  Uiso   1.00
O1779  O     0.79771   0.54484   0.60147   0.00000  Uiso   1.00
O1780  O     0.98417   0.68662   0.39716   0.00000  Uiso   1.00
O1781  O     0.51728   0.81289   0.60362   0.00000  Uiso   1.00
O1782  O     0.80776   0.53041   0.39613   0.00000  Uiso   1.00
O1783  O     0.70027   0.95737   0.60292   0.00000  Uiso   1.00
O1784  O     0.79592   0.54727   0.89840   0.00000  Uiso   1.00
O1785  O     0.96964   0.75000   0.33755   0.00000  Uiso   1.00
O1786  O     0.71870   0.94276   0.10388   0.00000  Uiso   1.00
O1787  O     0.93658   0.73412   0.89639   0.00000  Uiso   1.00
O1788  O     0.56345   0.76596   0.10273   0.00000  Uiso   1.00
O1789  O     0.70582   0.95208   0.89720   0.00000  Uiso   1.00
O1790  O     0.78115   0.55710   0.10387   0.00000  Uiso   1.00
O1791  O     0.56322   0.76734   0.89676   0.00000  Uiso   1.00
O1792  O     0.93608   0.73474   0.10275   0.00000  Uiso   1.00
O1793  O     0.53037   0.75000   0.66245   0.00000  Uiso   1.00
O1794  O     0.50000   0.71963   0.83755   0.00000  Uiso   1.00
O1795  O     0.50000   0.78036   0.16245   0.00000  Uiso   1.00
O1796  O     0.78037   0.50000   0.83755   0.00000  Uiso   1.00
O1797  O     0.71964   0.50000   0.16245   0.00000  Uiso   1.00
O1798  O     0.50000   0.78036   0.83755   0.00000  Uiso   1.00
O1799  O     0.50000   0.71963   0.16245   0.00000  Uiso   1.00
O1800  O     0.71964   0.50000   0.83755   0.00000  Uiso   1.00
O1801  O     0.75000   0.50000   0.75000   0.00000  Uiso   1.00
O1802  O     0.78037   0.50000   0.16245   0.00000  Uiso   1.00
O1803  O     0.70725   0.57307   0.27302   0.00000  Uiso   1.00
O1804  O     0.79276   0.92692   0.72698   0.00000  Uiso   1.00
O1805  O     0.92693   0.70724   0.27302   0.00000  Uiso   1.00
O1806  O     0.57308   0.79275   0.72698   0.00000  Uiso   1.00
O1807  O     0.79276   0.92692   0.27302   0.00000  Uiso   1.00
O1808  O     0.70725   0.57307   0.72698   0.00000  Uiso   1.00
O1809  O     0.57308   0.79275   0.27302   0.00000  Uiso   1.00
O1810  O     0.92693   0.70724   0.72698   0.00000  Uiso   1.00
O1811  O     0.70725   0.92692   0.72698   0.00000  Uiso   1.00
O1812  O     0.50000   0.75000   0.25000   0.00000  Uiso   1.00
O1813  O     0.79276   0.57307   0.27302   0.00000  Uiso   1.00
O1814  O     0.92693   0.79275   0.72698   0.00000  Uiso   1.00
O1815  O     0.57308   0.70724   0.27302   0.00000  Uiso   1.00
O1816  O     0.79276   0.57307   0.72698   0.00000  Uiso   1.00
O1817  O     0.70725   0.92692   0.27302   0.00000  Uiso   1.00
O1818  O     0.57308   0.70724   0.72698   0.00000  Uiso   1.00
O1819  O     0.92693   0.79275   0.27302   0.00000  Uiso   1.00
O1820  O     0.95725   0.82307   0.77302   0.00000  Uiso   1.00
O1821  O     0.54276   0.67692   0.22698   0.00000  Uiso   1.00
O1822  O     0.67693   0.95724   0.77302   0.00000  Uiso   1.00
O1823  O     0.50000   0.75000   0.75000   0.00000  Uiso   1.00
O1824  O     0.82308   0.54275   0.22698   0.00000  Uiso   1.00
O1825  O     0.54276   0.67692   0.77302   0.00000  Uiso   1.00
O1826  O     0.95725   0.82307   0.22698   0.00000  Uiso   1.00
O1827  O     0.82308   0.54275   0.77302   0.00000  Uiso   1.00
O1828  O     0.67693   0.95724   0.22698   0.00000  Uiso   1.00
O1829  O     0.95725   0.67692   0.22698   0.00000  Uiso   1.00
O1830  O     0.54276   0.82307   0.77302   0.00000  Uiso   1.00
O1831  O     0.67693   0.54275   0.22698   0.00000  Uiso   1.00
O1832  O     0.82308   0.95724   0.77302   0.00000  Uiso   1.00
O1833  O     0.54276   0.82307   0.22698   0.00000  Uiso   1.00
O1834  O     0.75000   0.96963   0.33755   0.00000  Uiso   1.00
O1835  O     0.95725   0.67692   0.77302   0.00000  Uiso   1.00
O1836  O     0.82308   0.95724   0.22698   0.00000  Uiso   1.00
O1837  O     0.67693   0.54275   0.77302   0.00000  Uiso   1.00
O1838  O     0.50132   0.65030   0.46162   0.00000  Uiso   1.00
O1839  O     0.52017   0.84741   0.54013   0.00000  Uiso   1.00
O1840  O     0.83463   0.55241   0.45942   0.00000  Uiso   1.00
O1841  O     0.66383   0.95147   0.54028   0.00000  Uiso   1.00
O1842  O     0.50067   0.84867   0.46016   0.00000  Uiso   1.00
O1843  O     0.98343   0.65161   0.53968   0.00000  Uiso   1.00
O1844  O     0.67004   0.94118   0.45874   0.00000  Uiso   1.00
O1845  O     0.75000   0.53036   0.66245   0.00000  Uiso   1.00
O1846  O     0.84040   0.54199   0.53900   0.00000  Uiso   1.00
O1847  O     0.70262   0.91210   0.96116   0.00000  Uiso   1.00
O1848  O     0.80728   0.58089   0.04094   0.00000  Uiso   1.00
O1849  O     0.59842   0.76621   0.96006   0.00000  Uiso   1.00
O1850  O     0.90143   0.74856   0.03996   0.00000  Uiso   1.00
O1851  O     0.79604   0.58698   0.95935   0.00000  Uiso   1.00
O1852  O     0.69392   0.91769   0.04097   0.00000  Uiso   1.00
O1853  O     0.90281   0.72874   0.96007   0.00000  Uiso   1.00
O1854  O     0.59981   0.74873   0.03825   0.00000  Uiso   1.00
O1855  O     0.63517   0.91592   0.18258   0.00000  Uiso   1.00
O1856  O     0.53037   0.75000   0.33755   0.00000  Uiso   1.00
O1857  O     0.84778   0.59664   0.81977   0.00000  Uiso   1.00
O1858  O     0.60282   0.65456   0.17882   0.00000  Uiso   1.00
O1859  O     0.91060   0.85547   0.81896   0.00000  Uiso   1.00
O1860  O     0.86532   0.58352   0.18299   0.00000  Uiso   1.00
O1861  O     0.60650   0.94867   0.75671   0.00000  Uiso   1.00
O1862  O     0.89765   0.84588   0.17877   0.00000  Uiso   1.00
O1863  O     0.59040   0.64565   0.81923   0.00000  Uiso   1.00
O1864  O     0.64902   0.59720   0.82128   0.00000  Uiso   1.00
O1865  O     0.84759   0.90337   0.18019   0.00000  Uiso   1.00
O1866  O     0.55254   0.89306   0.76571   0.00000  Uiso   1.00
O1867  O     0.96964   0.75000   0.66245   0.00000  Uiso   1.00
O1868  O     0.92476   0.62899   0.18872   0.00000  Uiso   1.00
O1869  O     0.85151   0.90330   0.82118   0.00000  Uiso   1.00
O1870  O     0.65301   0.59717   0.18020   0.00000  Uiso   1.00
O1871  O     0.89851   0.65308   0.82133   0.00000  Uiso   1.00
O1872  O     0.57617   0.86982   0.18779   0.00000  Uiso   1.00
O1873  O     0.90285   0.64851   0.67861   0.00000  Uiso   1.00
O1874  O     0.62062   0.82563   0.31159   0.00000  Uiso   1.00
O1875  O     0.84681   0.89864   0.67876   0.00000  Uiso   1.00
O1876  O     0.65280   0.59698   0.31980   0.00000  Uiso   1.00
O1877  O     0.64304   0.80250   0.73438   0.00000  Uiso   1.00
O1878  O     0.75000   0.53036   0.33755   0.00000  Uiso   1.00
O1879  O     0.87989   0.67411   0.31200   0.00000  Uiso   1.00
O1880  O     0.65292   0.60113   0.67881   0.00000  Uiso   1.00
O1881  O     0.84650   0.90228   0.31981   0.00000  Uiso   1.00
O1882  O     0.90407   0.85232   0.32123   0.00000  Uiso   1.00
O1883  O     0.60502   0.66017   0.68096   0.00000  Uiso   1.00
O1884  O     0.83374   0.61515   0.31726   0.00000  Uiso   1.00
O1885  O     0.69867   0.85650   0.74326   0.00000  Uiso   1.00
O1886  O     0.59541   0.64717   0.32118   0.00000  Uiso   1.00
O1887  O     0.89509   0.83989   0.68087   0.00000  Uiso   1.00
O1888  O     0.66603   0.88515   0.31726   0.00000  Uiso   1.00
Zn1889 Zn    0.70660   0.50000   0.21735   0.00000  Uiso   1.00
Zn1890 Zn    0.54341   0.75000   0.28265   0.00000  Uiso   1.00
Zn1891 Zn    0.75000   0.95659   0.71735   0.00000  Uiso   1.00
Zn1892 Zn    0.75000   0.54340   0.28265   0.00000  Uiso   1.00
Zn1893 Zn    0.54341   0.75000   0.71735   0.00000  Uiso   1.00
Zn1894 Zn    0.95660   0.75000   0.28265   0.00000  Uiso   1.00
Zn1895 Zn    0.75000   0.54340   0.71735   0.00000  Uiso   1.00
Zn1896 Zn    0.75000   0.95659   0.28265   0.00000  Uiso   1.00
Zn1897 Zn    0.79341   0.50000   0.78265   0.00000  Uiso   1.00
Zn1898 Zn    0.50000   0.70659   0.21735   0.00000  Uiso   1.00
Zn1899 Zn    0.50000   0.79340   0.78265   0.00000  Uiso   1.00
Zn1900 Zn    0.79341   0.50000   0.21735   0.00000  Uiso   1.00
Zn1901 Zn    0.70660   0.50000   0.78265   0.00000  Uiso   1.00
Zn1902 Zn    0.50000   0.79340   0.21735   0.00000  Uiso   1.00
Zn1903 Zn    0.50000   0.70659   0.78265   0.00000  Uiso   1.00
Zn1904 Zn    0.95660   0.75000   0.71735   0.00000  Uiso   1.00
loop_
_geom_bond_atom_site_label_1
_geom_bond_atom_site_label_2
_geom_bond_distance
_geom_bond_site_symmetry_2
_ccdc_geom_bond_type
C1     O348    1.388   .     S
C1     C79     1.402   .     A
C1     C4      1.411   .     A
C2     C14     1.411   .     A
C2     O358    1.386   .     S
C2     C100    1.397   .     A
C3     C163    1.413   .     A
C3     C106    1.412   .     A
C3     C38     1.419   .     A
C4     C107    1.408   .     A
C4     C34     1.419   .     A
C5     C97     1.414   .     A
C5     C109    1.416   .     A
C5     C512    1.424   .     S
C6     C110    1.413   .     A
C6     C37     1.422   .     A
C6     C108    1.409   .     A
C7     C119    1.409   .     A
C7     C111    1.415   .     A
C7     C990    1.417   1_545 S
C8     C35     1.413   .     A
C8     C112    1.417   .     A
C8     C39     1.418   .     A
C9     C46     1.409   .     A
C9     C113    1.413   .     A
C9     C992    1.423   1_545 S
C10    C41     1.424   .     A
C10    C114    1.417   .     A
C10    C57     1.414   .     A
C11    C115    1.408   .     A
C11    C68     1.411   .     A
C11    C518    1.419   .     S
C12    C174    1.408   .     A
C12    C116    1.409   .     A
C12    C991    1.418   1_545 S
C13    O359    1.388   .     S
C13    C15     1.412   .     A
C13    C577    1.400   .     S
C14    C117    1.415   .     A
C14    C40     1.423   .     A
C15    C118    1.415   .     A
C15    C517    1.423   .     S
C16    C120    1.414   .     A
C16    C24     1.412   .     A
C16    C42     1.418   .     A
C17    C164    1.410   .     A
C17    C166    1.410   .     A
C17    C136    1.462   .     S
C18    C137    1.461   .     S
C18    C165    1.419   .     A
C18    C162    1.418   .     A
C19    C129    1.455   .     S
C19    C161    1.404   .     A
C19    C168    1.404   .     A
C20    C131    1.455   .     S
C20    C160    1.415   .     A
C20    C167    1.415   .     A
C21    C170    1.410   .     A
C21    C159    1.410   .     A
C21    C132    1.462   .     S
C22    C133    1.464   .     S
C22    C158    1.409   .     A
C22    C169    1.409   .     A
C23    C134    1.456   .     S
C23    C157    1.404   .     A
C23    C172    1.404   .     A
C24    O360    1.388   .     S
C24    C578    1.401   1_455 S
C25    C171    1.415   .     A
C25    C156    1.415   .     A
C25    C135    1.455   .     S
C26    C155    1.407   .     A
C26    C145    1.457   .     S
C26    C175    1.407   .     A
C27    C154    1.417   .     A
C27    C146    1.456   .     S
C27    C173    1.417   .     A
C28    C153    1.405   .     A
C28    C177    1.405   .     A
C28    C138    1.459   .     S
C29    C139    1.459   .     S
C29    C151    1.414   .     A
C29    C176    1.415   .     A
C30    C150    1.407   .     A
C30    C179    1.407   .     A
C30    C140    1.457   .     S
C31    C178    1.417   .     A
C31    C149    1.417   .     A
C31    C142    1.456   .     S
C32    C181    1.405   .     A
C32    C148    1.405   .     A
C32    C143    1.460   .     S
C33    C147    1.415   .     A
C33    C144    1.459   .     S
C33    C180    1.414   .     A
C34    C36     1.414   .     A
C34    C658    1.418   1_455 S
C35    O361    1.386   .     S
C35    C99     1.402   .     A
C36    C183    1.423   .     A
C36    C481    1.424   1_455 S
C37    C38     1.410   .     A
C37    C1136   1.424   .     S
C38    C959    1.417   .     S
C39    C964    1.418   .     S
C39    C40     1.409   1_556 S
C40    C961    1.423   .     S
C40    C39     1.409   1_554 S
C41    C491    1.423   1_455 S
C41    C42     1.414   1_556 S
C42    C487    1.419   1_455 S
C42    C41     1.414   1_554 S
C43    C44     1.534   .     S
C43    H291    1.118   .     S
C43    H289    1.111   .     S
C43    O348    1.420   .     S
C44    C45     1.525   .     S
C44    H293    1.110   .     S
C44    H292    1.111   .     S
C45    H294    1.111   .     S
C45    H296    1.110   .     S
C45    H295    1.111   .     S
C46    O362    1.386   .     S
C46    C1052   1.396   1_545 S
C47    H298    1.116   .     S
C47    H297    1.110   .     S
C47    C48     1.531   .     S
C47    O825    1.416   1_455 S
C48    C49     1.525   .     S
C48    H775    1.110   1_455 S
C48    H776    1.111   1_455 S
C49    H302    1.111   .     S
C49    H304    1.110   .     S
C49    H303    1.110   .     S
C50    C51     1.528   .     S
C50    O350    1.414   .     S
C50    H1257   1.115   .     S
C50    H1258   1.114   .     S
C51    H308    1.112   .     S
C51    H307    1.112   .     S
C51    C1004   1.526   .     S
C52    H309    1.111   .     S
C52    H311    1.110   .     S
C52    C1003   1.526   1_545 S
C52    H1262   1.110   1_545 S
C53    C54     1.530   .     S
C53    O351    1.420   .     S
C53    H314    1.118   .     S
C53    H313    1.111   .     S
C54    H316    1.110   .     S
C54    C55     1.526   .     S
C54    H315    1.112   .     S
C55    H317    1.111   .     S
C55    H318    1.110   .     S
C55    H319    1.111   .     S
C56    O352    1.419   .     S
C56    H321    1.117   .     S
C56    C58     1.533   .     S
C56    H320    1.111   .     S
C57    C101    1.402   .     A
C57    O363    1.388   .     S
C58    H324    1.110   .     S
C58    H322    1.111   .     S
C58    C59     1.525   .     S
C59    H326    1.111   .     S
C59    H327    1.110   .     S
C59    H325    1.111   .     S
C60    H328    1.110   .     S
C60    C61     1.530   .     S
C60    H329    1.115   .     S
C60    O829    1.415   .     S
C61    C62     1.525   .     S
C61    H806    1.112   .     S
C61    H807    1.111   .     S
C62    H332    1.111   .     S
C62    H335    1.110   .     S
C62    H333    1.110   .     S
C63    O354    1.415   .     S
C63    C64     1.528   .     S
C63    H1288   1.115   1_545 S
C63    H1289   1.114   1_545 S
C64    H339    1.112   .     S
C64    H338    1.111   .     S
C64    C1017   1.526   1_545 S
C65    H342    1.110   .     S
C65    H340    1.111   .     S
C65    C1016   1.526   .     S
C65    H1293   1.110   .     S
C66    C67     1.529   .     S
C66    H343    1.114   .     S
C66    O355    1.415   .     S
C66    H344    1.114   .     S
C67    H187    1.110   .     S
C67    H188    1.112   .     S
C67    C69     1.526   .     S
C68    O364    1.389   .     S
C68    C102    1.401   .     A
C69    H190    1.111   .     S
C69    H191    1.111   .     S
C69    H189    1.111   .     S
C70    H192    1.111   .     S
C70    H193    1.118   .     S
C70    O356    1.421   .     S
C70    C71     1.531   .     S
C71    H194    1.111   .     S
C71    H195    1.110   .     S
C71    C72     1.526   .     S
C72    H196    1.111   .     S
C72    H199    1.111   .     S
C72    H198    1.110   .     S
C73    H201    1.114   .     S
C73    O358    1.415   .     S
C73    C74     1.528   .     S
C73    H200    1.115   .     S
C74    H203    1.112   .     S
C74    H202    1.111   .     S
C74    C75     1.526   .     S
C75    H205    1.110   .     S
C75    H206    1.110   .     S
C75    H204    1.111   .     S
C76    O359    1.415   .     S
C76    H209    1.116   .     S
C76    C77     1.530   .     S
C76    H207    1.111   .     S
C77    C78     1.525   .     S
C77    H211    1.111   .     S
C77    H210    1.111   .     S
C78    H214    1.109   .     S
C78    H212    1.111   .     S
C78    H213    1.110   .     S
C79    C123    1.453   .     S
C79    C606    1.401   1_455 S
C80    H216    1.117   .     S
C80    O360    1.419   .     S
C80    H215    1.111   .     S
C80    C81     1.533   .     S
C81    H217    1.111   .     S
C81    C82     1.525   .     S
C81    H218    1.110   .     S
C82    H222    1.110   .     S
C82    H220    1.111   .     S
C82    H221    1.111   .     S
C83    H223    1.115   .     S
C83    C84     1.529   .     S
C83    H224    1.114   .     S
C83    O361    1.414   .     S
C84    H225    1.110   .     S
C84    C85     1.525   .     S
C84    H226    1.112   .     S
C85    H229    1.111   .     S
C85    H228    1.111   .     S
C85    H227    1.111   .     S
C86    H231    1.115   .     S
C86    H232    1.114   .     S
C86    C87     1.528   .     S
C86    O362    1.414   .     S
C87    H233    1.111   .     S
C87    C88     1.526   .     S
C87    H234    1.112   .     S
C88    H235    1.111   .     S
C88    H237    1.110   .     S
C88    H236    1.110   .     S
C89    H238    1.109   .     S
C89    O363    1.415   .     S
C89    C91     1.530   .     S
C89    H239    1.115   .     S
C90    C141    1.400   .     A
C90    C573    1.401   1_455 S
C90    C124    1.448   .     S
C91    C92     1.525   .     S
C91    H240    1.112   .     S
C91    H242    1.111   .     S
C92    H243    1.111   .     S
C92    H245    1.110   .     S
C92    H244    1.110   .     S
C93    H247    1.117   .     S
C93    H246    1.111   .     S
C93    C94     1.534   .     S
C93    O364    1.420   .     S
C94    H248    1.111   .     S
C94    C95     1.525   .     S
C94    H249    1.110   .     S
C95    H253    1.110   .     S
C95    H250    1.111   .     S
C95    H251    1.111   .     S
C96    C108    1.396   .     A
C96    C1073   1.448   .     S
C96    C1104   1.397   .     S
C97    O349    1.389   .     S
C97    C566    1.401   .     S
C98    C122    1.459   .     S
C98    C163    1.403   .     A
C98    C1071   1.403   .     S
C99    C1079   1.459   .     S
C99    C1126   1.405   .     S
C100   C128    1.448   .     S
C100   C998    1.396   .     S
C101   C489    1.400   1_455 S
C101   C601    1.448   1_455 S
C102   C126    1.454   .     S
C102   C500    1.401   .     S
C103   C109    1.404   .     A
C103   C182    1.413   .     A
C103   O886    1.380   .     S
C104   O411    1.382   .     S
C104   C183    1.415   .     A
C104   C107    1.410   .     A
C105   C184    1.415   .     A
C105   C111    1.404   .     A
C105   O412    1.385   .     S
C106   O413    1.383   .     S
C106   C110    1.411   .     A
C107   O414    1.383   .     S
C108   O350    1.386   .     S
C109   O415    1.383   .     S
C110   O416    1.383   .     S
C111   O418    1.381   .     S
C112   O419    1.380   .     S
C112   C117    1.405   1_556 S
C113   O420    1.383   .     S
C113   C116    1.410   1_554 S
C114   O421    1.384   .     S
C114   C120    1.404   1_556 S
C115   O422    1.383   .     S
C115   C118    1.409   1_554 S
C116   O423    1.383   .     S
C116   C113    1.410   1_556 S
C117   O424    1.385   .     S
C117   C112    1.405   1_554 S
C118   O425    1.381   .     S
C118   C115    1.409   1_556 S
C119   O351    1.388   .     S
C119   C1050   1.403   1_545 S
C120   O426    1.380   .     S
C120   C114    1.404   1_554 S
C121   C1048   1.448   1_545 S
C121   O1358   1.276   1_545 A
C121   O450    1.277   .     S
C122   O346    1.280   .     A
C122   O1369   1.281   .     S
C123   O428    1.278   .     A
C123   O833    1.279   1_455 S
C124   O915    1.277   1_455 A
C124   O365    1.276   .     S
C125   O842    1.277   .     A
C125   O846    1.277   .     A
C125   C577    1.448   .     S
C126   O843    1.279   .     S
C126   O847    1.278   .     S
C127   O372    1.282   .     A
C127   O368    1.279   .     A
C127   C1051   1.459   1_545 S
C128   O1321   1.276   .     S
C128   O1326   1.277   .     S
C129   O375    1.280   .     A
C129   O403    1.280   .     A
C130   O352    1.388   .     S
C130   C182    1.411   .     A
C130   C555    1.401   .     S
C131   O404    1.280   .     A
C131   O376    1.280   .     A
C132   O377    1.281   .     A
C132   O401    1.281   .     A
C133   O378    1.281   .     A
C133   O402    1.282   .     A
C134   O408    1.281   .     A
C134   O379    1.281   .     A
C135   O409    1.280   .     A
C135   O380    1.280   .     A
C136   O405    1.281   .     A
C136   O381    1.281   .     A
C137   O382    1.280   .     A
C137   O407    1.280   .     A
C138   O394    1.280   .     A
C138   O383    1.280   .     A
C139   O385    1.280   .     A
C139   O396    1.280   .     A
C140   O386    1.281   .     A
C140   O392    1.280   .     A
C141   O353    1.388   .     S
C141   C183    1.412   .     A
C142   O387    1.280   .     A
C142   O393    1.280   .     A
C143   O399    1.281   .     A
C143   O388    1.280   .     A
C144   O389    1.280   .     A
C144   O400    1.280   .     A
C145   O390    1.281   .     A
C145   O397    1.282   .     A
C146   O398    1.281   .     A
C146   O391    1.281   .     A
C147   C164    1.396   .     A
C147   O427    1.380   .     S
C148   O429    1.385   .     S
C148   C162    1.405   .     A
C149   C161    1.404   .     A
C149   O430    1.384   .     S
C150   C160    1.401   .     A
C150   O431    1.385   .     S
C151   C159    1.396   .     A
C151   O432    1.380   .     S
C152   O354    1.386   .     S
C152   C184    1.411   .     A
C152   C1048   1.397   1_545 S
C153   C158    1.410   .     A
C153   O433    1.383   .     S
C154   C157    1.404   .     A
C154   O434    1.384   .     S
C155   C156    1.401   .     A
C155   O435    1.386   .     S
C156   O436    1.383   .     S
C157   O437    1.385   .     S
C158   O438    1.382   .     S
C159   O440    1.384   .     S
C160   O441    1.383   .     S
C161   O442    1.385   .     S
C162   O443    1.384   .     S
C163   O355    1.386   .     S
C164   O444    1.384   .     S
C165   O445    1.384   .     S
C165   C181    1.405   .     A
C166   C180    1.396   .     A
C166   O446    1.384   .     S
C167   C179    1.401   .     A
C167   O447    1.383   .     S
C168   O448    1.385   .     S
C168   C178    1.404   .     A
C169   C177    1.410   .     A
C169   O449    1.382   .     S
C170   C176    1.396   .     A
C170   O451    1.384   .     S
C171   C175    1.401   .     A
C171   O452    1.383   .     S
C172   C173    1.403   .     A
C172   O453    1.385   .     S
C173   O454    1.384   .     S
C174   O356    1.388   .     S
C174   C1051   1.405   1_545 S
C175   O455    1.385   .     S
C176   O456    1.380   .     S
C177   O457    1.383   .     S
C178   O458    1.384   .     S
C179   O459    1.386   .     S
C180   O460    1.380   .     S
C181   O347    1.385   .     S
C182   C510    1.418   .     S
C184   C989    1.424   1_545 S
H185   O410    0.991   .     S
H186   O420    0.991   .     S
H197   O421    0.990   .     S
H208   O422    0.991   .     S
H219   O423    0.991   .     S
H230   O424    0.990   .     S
H241   O425    0.991   .     S
H252   O426    0.991   .     S
H254   O427    0.990   .     S
H255   O429    0.989   .     S
H256   O430    0.990   .     S
H257   O411    0.991   .     S
H258   O431    0.990   .     S
H259   O432    0.990   .     S
H260   O433    0.990   .     S
H261   O434    0.990   .     S
H262   O435    0.989   .     S
H263   O436    0.990   .     S
H264   O437    0.989   .     S
H265   O438    0.991   .     S
H266   O440    0.990   .     S
H267   O441    0.990   .     S
H268   O412    0.990   .     S
H269   O442    0.989   .     S
H270   O443    0.989   .     S
H271   O444    0.990   .     S
H272   O445    0.989   .     S
H273   O446    0.990   .     S
H274   O447    0.990   .     S
H275   O448    0.989   .     S
H276   O449    0.991   .     S
H277   O451    0.990   .     S
H278   O452    0.990   .     S
H279   O413    0.991   .     S
H280   O453    0.989   .     S
H281   O454    0.990   .     S
H282   O455    0.990   .     S
H283   O456    0.990   .     S
H284   O457    0.990   .     S
H285   O458    0.990   .     S
H286   O459    0.990   .     S
H287   O460    0.990   .     S
H288   O347    0.989   .     S
H290   O890    0.991   .     S
H299   C524    1.110   .     S
H300   C524    1.111   .     S
H301   O415    0.990   .     S
H305   C1002   1.115   1_545 S
H306   C1002   1.114   1_545 S
H310   C1004   1.110   .     S
H312   O416    0.991   .     S
H323   O418    0.991   .     S
H330   C537    1.112   1_455 S
H331   C537    1.111   1_455 S
H334   O419    0.991   .     S
H336   C1015   1.115   .     S
H337   C1015   1.114   .     S
H341   C1017   1.110   1_545 S
O345   Zn464   1.948   .     S
O345   Zn461   1.948   .     S
O345   Zn472   1.949   .     S
O345   Zn1420  1.949   1_545 S
O346   Zn463   1.946   .     S
O349   C523    1.416   .     S
O353   C536    1.415   1_455 S
O357   Zn466   1.946   .     S
O357   C599    1.279   .     S
O365   Zn465   1.946   .     S
O366   C601    1.277   1_455 A
O366   Zn475   1.946   .     S
O367   Zn474   1.946   .     S
O367   C602    1.279   1_455 S
O368   Zn469   1.946   .     S
O369   Zn461   1.946   .     S
O369   C1080   1.276   1_545 S
O370   Zn471   1.946   .     S
O370   C601    1.277   1_455 A
O371   Zn470   1.946   .     S
O371   C602    1.278   1_455 S
O372   Zn473   1.946   .     S
O373   Zn467   1.949   .     S
O373   Zn473   1.949   .     S
O373   Zn469   1.948   .     S
O373   Zn1415  1.948   1_545 S
O374   Zn472   1.946   .     S
O374   C1080   1.277   1_545 S
O375   Zn464   1.936   .     S
O376   Zn463   1.936   .     S
O377   Zn466   1.941   .     S
O378   Zn465   1.941   .     S
O379   Zn468   1.936   .     S
O380   Zn467   1.936   .     S
O381   Zn462   1.942   .     S
O382   Zn476   1.942   .     S
O383   Zn463   1.942   .     S
O384   Zn462   1.948   .     S
O384   Zn474   1.949   .     S
O384   Zn470   1.948   .     S
O384   Zn942   1.949   1_455 S
O385   Zn464   1.942   .     S
O386   Zn476   1.936   .     S
O387   Zn462   1.936   .     S
O388   Zn467   1.941   .     S
O389   Zn468   1.941   .     S
O390   Zn465   1.936   .     S
O391   Zn466   1.936   .     S
O392   Zn947   1.936   .     S
O393   Zn470   1.936   .     S
O394   Zn1425  1.941   .     S
O395   Zn465   1.949   .     S
O395   Zn475   1.949   .     S
O395   Zn471   1.948   .     S
O395   Zn952   1.948   1_455 S
O396   Zn472   1.941   .     S
O397   Zn475   1.936   .     S
O398   Zn950   1.936   .     S
O399   Zn469   1.942   .     S
O400   Zn1413  1.942   .     S
O401   Zn946   1.942   .     S
O402   Zn471   1.942   .     S
O403   Zn461   1.936   .     S
O404   Zn1421  1.936   .     S
O405   Zn474   1.941   .     S
O406   Zn468   1.946   .     S
O406   C1073   1.276   .     A
O407   Zn951   1.941   .     S
O408   Zn1424  1.936   .     S
O409   Zn473   1.936   .     S
O410   C579    1.380   1_455 S
O414   H766    0.991   1_455 S
O417   Zn467   1.946   .     S
O417   C1074   1.281   1_545 S
O428   Zn462   1.946   .     S
O439   Zn476   1.946   .     S
O439   C600    1.277   .     A
O450   Zn464   1.946   .     S
Zn461  O1352   1.942   1_545 S
Zn463  O1325   1.948   .     S
Zn466  O860    1.949   .     S
Zn468  O1297   1.949   .     S
Zn469  O1356   1.936   1_545 S
Zn470  O877    1.942   1_455 S
Zn471  O868    1.936   1_455 S
Zn472  O1360   1.936   1_545 S
Zn473  O1346   1.941   1_545 S
Zn474  O874    1.936   1_455 S
Zn475  O883    1.941   1_455 S
Zn476  O871    1.948   .     S
C477   O824    1.388   .     S
C477   C555    1.402   .     A
C477   C480    1.411   .     A
C478   C490    1.411   .     A
C478   O834    1.386   .     S
C478   C576    1.397   .     A
C479   C639    1.413   .     A
C479   C582    1.412   .     A
C479   C514    1.419   .     A
C480   C583    1.408   .     A
C480   C510    1.419   .     A
C481   C573    1.414   .     A
C481   C585    1.416   .     A
C481   C36     1.424   1_655 S
C482   C586    1.413   .     A
C482   C513    1.422   .     A
C482   C584    1.409   .     A
C483   C595    1.409   .     A
C483   C587    1.415   .     A
C483   C1466   1.417   1_545 S
C484   C511    1.413   .     A
C484   C588    1.417   .     A
C484   C515    1.418   .     A
C485   C522    1.409   .     A
C485   C589    1.413   .     A
C485   C1468   1.423   1_545 S
C486   C517    1.424   .     A
C486   C590    1.417   .     A
C486   C533    1.414   .     A
C487   C591    1.408   .     A
C487   C544    1.411   .     A
C487   C42     1.419   1_655 S
C488   C650    1.408   .     A
C488   C592    1.409   .     A
C488   C1467   1.418   1_545 S
C489   O835    1.388   .     S
C489   C491    1.412   .     A
C489   C101    1.400   1_655 S
C490   C593    1.415   .     A
C490   C516    1.423   .     A
C491   C594    1.415   .     A
C491   C41     1.423   1_655 S
C492   C596    1.414   .     A
C492   C500    1.412   .     A
C492   C518    1.418   .     A
C493   C640    1.410   .     A
C493   C642    1.410   .     A
C493   C612    1.462   .     S
C494   C613    1.461   .     S
C494   C641    1.419   .     A
C494   C638    1.418   .     A
C495   C605    1.455   .     S
C495   C637    1.404   .     A
C495   C644    1.404   .     A
C496   C607    1.455   .     S
C496   C636    1.415   .     A
C496   C643    1.415   .     A
C497   C646    1.410   .     A
C497   C635    1.410   .     A
C497   C608    1.462   .     S
C498   C609    1.464   .     S
C498   C634    1.409   .     A
C498   C645    1.409   .     A
C499   C610    1.456   .     S
C499   C633    1.404   .     A
C499   C648    1.404   .     A
C500   O836    1.388   .     S
C501   C647    1.415   .     A
C501   C632    1.415   .     A
C501   C611    1.455   .     S
C502   C631    1.407   .     A
C502   C621    1.457   .     S
C502   C651    1.407   .     A
C503   C630    1.417   .     A
C503   C622    1.456   .     S
C503   C649    1.417   .     A
C504   C629    1.405   .     A
C504   C653    1.405   .     A
C504   C614    1.459   .     S
C505   C615    1.459   .     S
C505   C627    1.414   .     A
C505   C652    1.415   .     A
C506   C626    1.407   .     A
C506   C655    1.407   .     A
C506   C616    1.457   .     S
C507   C654    1.417   .     A
C507   C625    1.417   .     A
C507   C618    1.456   .     S
C508   C657    1.405   .     A
C508   C624    1.405   .     A
C508   C619    1.460   .     S
C509   C623    1.415   .     A
C509   C620    1.459   .     S
C509   C656    1.414   .     A
C510   C512    1.414   .     A
C511   O837    1.386   .     S
C511   C575    1.402   .     A
C512   C659    1.423   .     A
C513   C514    1.410   .     A
C513   C1612   1.424   .     S
C514   C1435   1.417   .     S
C515   C1440   1.418   .     S
C515   C516    1.409   1_556 S
C516   C1437   1.423   .     S
C516   C515    1.409   1_554 S
C517   C518    1.414   1_556 S
C518   C517    1.414   1_554 S
C519   C520    1.534   .     S
C519   H767    1.118   .     S
C519   H765    1.111   .     S
C519   O824    1.420   .     S
C520   C521    1.525   .     S
C520   H769    1.110   .     S
C520   H768    1.111   .     S
C521   H770    1.111   .     S
C521   H772    1.110   .     S
C521   H771    1.111   .     S
C522   O838    1.386   .     S
C522   C1528   1.396   1_545 S
C523   H774    1.116   .     S
C523   H773    1.110   .     S
C523   C524    1.531   .     S
C524   C525    1.525   .     S
C525   H778    1.111   .     S
C525   H780    1.110   .     S
C525   H779    1.110   .     S
C526   C527    1.528   .     S
C526   O826    1.414   .     S
C526   H1733   1.115   .     S
C526   H1734   1.114   .     S
C527   H784    1.112   .     S
C527   H783    1.112   .     S
C527   C1480   1.526   .     S
C528   H785    1.111   .     S
C528   H787    1.110   .     S
C528   C1479   1.526   1_545 S
C528   H1738   1.110   1_545 S
C529   C530    1.530   .     S
C529   O827    1.420   .     S
C529   H790    1.118   .     S
C529   H789    1.111   .     S
C530   H792    1.110   .     S
C530   C531    1.526   .     S
C530   H791    1.112   .     S
C531   H793    1.111   .     S
C531   H794    1.110   .     S
C531   H795    1.111   .     S
C532   O828    1.419   .     S
C532   H797    1.117   .     S
C532   C534    1.533   .     S
C532   H796    1.111   .     S
C533   C577    1.402   .     A
C533   O839    1.388   .     S
C534   H800    1.110   .     S
C534   H798    1.111   .     S
C534   C535    1.525   .     S
C535   H802    1.111   .     S
C535   H803    1.110   .     S
C535   H801    1.111   .     S
C536   H804    1.110   .     S
C536   C537    1.530   .     S
C536   H805    1.115   .     S
C536   O353    1.415   1_655 S
C537   C538    1.525   .     S
C537   H330    1.112   1_655 S
C537   H331    1.111   1_655 S
C538   H808    1.111   .     S
C538   H811    1.110   .     S
C538   H809    1.110   .     S
C539   O830    1.415   .     S
C539   C540    1.528   .     S
C539   H1764   1.115   1_545 S
C539   H1765   1.114   1_545 S
C540   H815    1.112   .     S
C540   H814    1.111   .     S
C540   C1493   1.526   1_545 S
C541   H818    1.110   .     S
C541   H816    1.111   .     S
C541   C1492   1.526   .     S
C541   H1769   1.110   .     S
C542   C543    1.529   .     S
C542   H819    1.114   .     S
C542   O831    1.415   .     S
C542   H820    1.114   .     S
C543   H663    1.110   .     S
C543   H664    1.112   .     S
C543   C545    1.526   .     S
C544   O840    1.389   .     S
C544   C578    1.401   .     A
C545   H666    1.111   .     S
C545   H667    1.111   .     S
C545   H665    1.111   .     S
C546   H668    1.111   .     S
C546   H669    1.118   .     S
C546   O832    1.421   .     S
C546   C547    1.531   .     S
C547   H670    1.111   .     S
C547   H671    1.110   .     S
C547   C548    1.526   .     S
C548   H672    1.111   .     S
C548   H675    1.111   .     S
C548   H674    1.110   .     S
C549   H677    1.114   .     S
C549   O834    1.415   .     S
C549   C550    1.528   .     S
C549   H676    1.115   .     S
C550   H679    1.112   .     S
C550   H678    1.111   .     S
C550   C551    1.526   .     S
C551   H681    1.110   .     S
C551   H682    1.110   .     S
C551   H680    1.111   .     S
C552   O835    1.415   .     S
C552   H685    1.116   .     S
C552   C553    1.530   .     S
C552   H683    1.111   .     S
C553   C554    1.525   .     S
C553   H687    1.111   .     S
C553   H686    1.111   .     S
C554   H690    1.109   .     S
C554   H688    1.111   .     S
C554   H689    1.110   .     S
C555   C599    1.453   .     S
C556   H692    1.117   .     S
C556   O836    1.419   .     S
C556   H691    1.111   .     S
C556   C557    1.533   .     S
C557   H693    1.111   .     S
C557   C558    1.525   .     S
C557   H694    1.110   .     S
C558   H698    1.110   .     S
C558   H696    1.111   .     S
C558   H697    1.111   .     S
C559   H699    1.115   .     S
C559   C560    1.529   .     S
C559   H700    1.114   .     S
C559   O837    1.414   .     S
C560   H701    1.110   .     S
C560   C561    1.525   .     S
C560   H702    1.112   .     S
C561   H705    1.111   .     S
C561   H704    1.111   .     S
C561   H703    1.111   .     S
C562   H707    1.115   .     S
C562   H708    1.114   .     S
C562   C563    1.528   .     S
C562   O838    1.414   .     S
C563   H709    1.111   .     S
C563   C564    1.526   .     S
C563   H710    1.112   .     S
C564   H711    1.111   .     S
C564   H713    1.110   .     S
C564   H712    1.110   .     S
C565   H714    1.109   .     S
C565   O839    1.415   .     S
C565   C567    1.530   .     S
C565   H715    1.115   .     S
C566   C617    1.400   .     A
C566   C600    1.448   .     S
C567   C568    1.525   .     S
C567   H716    1.112   .     S
C567   H718    1.111   .     S
C568   H719    1.111   .     S
C568   H721    1.110   .     S
C568   H720    1.110   .     S
C569   H723    1.117   .     S
C569   H722    1.111   .     S
C569   C570    1.534   .     S
C569   O840    1.420   .     S
C570   H724    1.111   .     S
C570   C571    1.525   .     S
C570   H725    1.110   .     S
C571   H729    1.110   .     S
C571   H726    1.111   .     S
C571   H727    1.111   .     S
C572   C584    1.396   .     A
C572   C1549   1.448   .     S
C572   C1580   1.397   .     S
C573   O825    1.389   .     S
C573   C90     1.401   1_655 S
C574   C598    1.459   .     S
C574   C639    1.403   .     A
C574   C1547   1.403   .     S
C575   C1555   1.459   .     S
C575   C1602   1.405   .     S
C576   C604    1.448   .     S
C576   C1474   1.396   .     S
C578   C602    1.454   .     S
C578   C24     1.401   1_655 S
C579   C585    1.404   .     A
C579   C658    1.413   .     A
C579   O410    1.380   1_655 S
C580   O887    1.382   .     S
C580   C659    1.415   .     A
C580   C583    1.410   .     A
C581   C660    1.415   .     A
C581   C587    1.404   .     A
C581   O888    1.385   .     S
C582   O889    1.383   .     S
C582   C586    1.411   .     A
C583   O890    1.383   .     S
C584   O826    1.386   .     S
C585   O891    1.383   .     S
C586   O892    1.383   .     S
C587   O894    1.381   .     S
C588   O895    1.380   .     S
C588   C593    1.405   1_556 S
C589   O896    1.383   .     S
C589   C592    1.410   1_554 S
C590   O897    1.384   .     S
C590   C596    1.404   1_556 S
C591   O898    1.383   .     S
C591   C594    1.409   1_554 S
C592   O899    1.383   .     S
C592   C589    1.410   1_556 S
C593   O900    1.385   .     S
C593   C588    1.405   1_554 S
C594   O901    1.381   .     S
C594   C591    1.409   1_556 S
C595   O827    1.388   .     S
C595   C1526   1.403   1_545 S
C596   O902    1.380   .     S
C596   C590    1.404   1_554 S
C597   C1524   1.448   1_545 S
C597   O1834   1.276   1_545 A
C597   O926    1.277   .     S
C598   O822    1.280   .     A
C598   O1845   1.281   .     S
C599   O904    1.278   .     A
C600   O841    1.276   .     S
C601   O366    1.277   1_655 A
C601   O370    1.277   1_655 A
C601   C101    1.448   1_655 S
C602   O367    1.279   1_655 S
C602   O371    1.278   1_655 S
C603   O848    1.282   .     A
C603   O844    1.279   .     A
C603   C1527   1.459   1_545 S
C604   O1797   1.276   .     S
C604   O1802   1.277   .     S
C605   O851    1.280   .     A
C605   O879    1.280   .     A
C606   O828    1.388   .     S
C606   C658    1.411   .     A
C606   C79     1.401   1_655 S
C607   O880    1.280   .     A
C607   O852    1.280   .     A
C608   O853    1.281   .     A
C608   O877    1.281   .     A
C609   O854    1.281   .     A
C609   O878    1.282   .     A
C610   O884    1.281   .     A
C610   O855    1.281   .     A
C611   O885    1.280   .     A
C611   O856    1.280   .     A
C612   O881    1.281   .     A
C612   O857    1.281   .     A
C613   O858    1.280   .     A
C613   O883    1.280   .     A
C614   O870    1.280   .     A
C614   O859    1.280   .     A
C615   O861    1.280   .     A
C615   O872    1.280   .     A
C616   O862    1.281   .     A
C616   O868    1.280   .     A
C617   O829    1.388   .     S
C617   C659    1.412   .     A
C618   O863    1.280   .     A
C618   O869    1.280   .     A
C619   O875    1.281   .     A
C619   O864    1.280   .     A
C620   O865    1.280   .     A
C620   O876    1.280   .     A
C621   O866    1.281   .     A
C621   O873    1.282   .     A
C622   O874    1.281   .     A
C622   O867    1.281   .     A
C623   C640    1.396   .     A
C623   O903    1.380   .     S
C624   O905    1.385   .     S
C624   C638    1.405   .     A
C625   C637    1.404   .     A
C625   O906    1.384   .     S
C626   C636    1.401   .     A
C626   O907    1.385   .     S
C627   C635    1.396   .     A
C627   O908    1.380   .     S
C628   O830    1.386   .     S
C628   C660    1.411   .     A
C628   C1524   1.397   1_545 S
C629   C634    1.410   .     A
C629   O909    1.383   .     S
C630   C633    1.404   .     A
C630   O910    1.384   .     S
C631   C632    1.401   .     A
C631   O911    1.386   .     S
C632   O912    1.383   .     S
C633   O913    1.385   .     S
C634   O914    1.382   .     S
C635   O916    1.384   .     S
C636   O917    1.383   .     S
C637   O918    1.385   .     S
C638   O919    1.384   .     S
C639   O831    1.386   .     S
C640   O920    1.384   .     S
C641   O921    1.384   .     S
C641   C657    1.405   .     A
C642   C656    1.396   .     A
C642   O922    1.384   .     S
C643   C655    1.401   .     A
C643   O923    1.383   .     S
C644   O924    1.385   .     S
C644   C654    1.404   .     A
C645   C653    1.410   .     A
C645   O925    1.382   .     S
C646   C652    1.396   .     A
C646   O927    1.384   .     S
C647   C651    1.401   .     A
C647   O928    1.383   .     S
C648   C649    1.403   .     A
C648   O929    1.385   .     S
C649   O930    1.384   .     S
C650   O832    1.388   .     S
C650   C1527   1.405   1_545 S
C651   O931    1.385   .     S
C652   O932    1.380   .     S
C653   O933    1.383   .     S
C654   O934    1.384   .     S
C655   O935    1.386   .     S
C656   O936    1.380   .     S
C657   O823    1.385   .     S
C658   C34     1.418   1_655 S
C660   C1465   1.424   1_545 S
H661   O886    0.991   .     S
H662   O896    0.991   .     S
H673   O897    0.990   .     S
H684   O898    0.991   .     S
H695   O899    0.991   .     S
H706   O900    0.990   .     S
H717   O901    0.991   .     S
H728   O902    0.991   .     S
H730   O903    0.990   .     S
H731   O905    0.989   .     S
H732   O906    0.990   .     S
H733   O887    0.991   .     S
H734   O907    0.990   .     S
H735   O908    0.990   .     S
H736   O909    0.990   .     S
H737   O910    0.990   .     S
H738   O911    0.989   .     S
H739   O912    0.990   .     S
H740   O913    0.989   .     S
H741   O914    0.991   .     S
H742   O916    0.990   .     S
H743   O917    0.990   .     S
H744   O888    0.990   .     S
H745   O918    0.989   .     S
H746   O919    0.989   .     S
H747   O920    0.990   .     S
H748   O921    0.989   .     S
H749   O922    0.990   .     S
H750   O923    0.990   .     S
H751   O924    0.989   .     S
H752   O925    0.991   .     S
H753   O927    0.990   .     S
H754   O928    0.990   .     S
H755   O889    0.991   .     S
H756   O929    0.989   .     S
H757   O930    0.990   .     S
H758   O931    0.990   .     S
H759   O932    0.990   .     S
H760   O933    0.990   .     S
H761   O934    0.990   .     S
H762   O935    0.990   .     S
H763   O936    0.990   .     S
H764   O823    0.989   .     S
H766   O414    0.991   1_655 S
H775   C48     1.110   1_655 S
H776   C48     1.111   1_655 S
H777   O891    0.990   .     S
H781   C1478   1.115   1_545 S
H782   C1478   1.114   1_545 S
H786   C1480   1.110   .     S
H788   O892    0.991   .     S
H799   O894    0.991   .     S
H810   O895    0.991   .     S
H812   C1491   1.115   .     S
H813   C1491   1.114   .     S
H817   C1493   1.110   1_545 S
O821   Zn940   1.948   .     S
O821   Zn937   1.948   .     S
O821   Zn948   1.949   .     S
O821   Zn1896  1.949   1_545 S
O822   Zn939   1.946   .     S
O825   C47     1.416   1_655 S
O833   Zn942   1.946   .     S
O833   C123    1.279   1_655 S
O841   Zn941   1.946   .     S
O842   Zn951   1.946   .     S
O843   Zn950   1.946   .     S
O844   Zn945   1.946   .     S
O845   Zn937   1.946   .     S
O845   C1556   1.276   1_545 S
O846   Zn947   1.946   .     S
O847   Zn946   1.946   .     S
O848   Zn949   1.946   .     S
O849   Zn943   1.949   .     S
O849   Zn949   1.949   .     S
O849   Zn945   1.948   .     S
O849   Zn1891  1.948   1_545 S
O850   Zn948   1.946   .     S
O850   C1556   1.277   1_545 S
O851   Zn940   1.936   .     S
O852   Zn939   1.936   .     S
O853   Zn942   1.941   .     S
O854   Zn941   1.941   .     S
O855   Zn944   1.936   .     S
O856   Zn943   1.936   .     S
O857   Zn938   1.942   .     S
O858   Zn952   1.942   .     S
O859   Zn939   1.942   .     S
O860   Zn938   1.948   .     S
O860   Zn950   1.949   .     S
O860   Zn946   1.948   .     S
O861   Zn940   1.942   .     S
O862   Zn952   1.936   .     S
O863   Zn938   1.936   .     S
O864   Zn943   1.941   .     S
O865   Zn944   1.941   .     S
O866   Zn941   1.936   .     S
O867   Zn942   1.936   .     S
O868   Zn471   1.936   1_655 S
O869   Zn946   1.936   .     S
O870   Zn1901  1.941   .     S
O871   Zn941   1.949   .     S
O871   Zn951   1.949   .     S
O871   Zn947   1.948   .     S
O872   Zn948   1.941   .     S
O873   Zn951   1.936   .     S
O874   Zn474   1.936   1_655 S
O875   Zn945   1.942   .     S
O876   Zn1889  1.942   .     S
O877   Zn470   1.942   1_655 S
O878   Zn947   1.942   .     S
O879   Zn937   1.936   .     S
O880   Zn1897  1.936   .     S
O881   Zn950   1.941   .     S
O882   Zn944   1.946   .     S
O882   C1549   1.276   .     A
O883   Zn475   1.941   1_655 S
O884   Zn1900  1.936   .     S
O885   Zn949   1.936   .     S
O893   Zn943   1.946   .     S
O893   C1550   1.281   1_545 S
O904   Zn938   1.946   .     S
O915   Zn952   1.946   .     S
O915   C124    1.277   1_655 A
O926   Zn940   1.946   .     S
Zn937  O1828   1.942   1_545 S
Zn939  O1801   1.948   .     S
Zn942  O384    1.949   1_655 S
Zn944  O1773   1.949   .     S
Zn945  O1832   1.936   1_545 S
Zn948  O1836   1.936   1_545 S
Zn949  O1822   1.941   1_545 S
Zn952  O395    1.948   1_655 S
C953   O1300   1.388   .     S
C953   C1031   1.402   .     A
C953   C956    1.411   .     A
C954   C966    1.411   .     A
C954   O1310   1.386   .     S
C954   C1052   1.397   .     A
C955   C1115   1.413   .     A
C955   C1058   1.412   .     A
C955   C990    1.419   .     A
C956   C1059   1.408   .     A
C956   C986    1.419   .     A
C957   C1049   1.414   .     A
C957   C1061   1.416   .     A
C957   C1464   1.424   .     S
C958   C1062   1.413   .     A
C958   C989    1.422   .     A
C958   C1060   1.409   .     A
C959   C1071   1.409   .     A
C959   C1063   1.415   .     A
C960   C987    1.413   .     A
C960   C1064   1.417   .     A
C960   C991    1.418   .     A
C961   C998    1.409   .     A
C961   C1065   1.413   .     A
C962   C993    1.424   .     A
C962   C1066   1.417   .     A
C962   C1009   1.414   .     A
C963   C1067   1.408   .     A
C963   C1020   1.411   .     A
C963   C1470   1.419   .     S
C964   C1126   1.408   .     A
C964   C1068   1.409   .     A
C965   O1311   1.388   .     S
C965   C967    1.412   .     A
C965   C1529   1.400   .     S
C966   C1069   1.415   .     A
C966   C992    1.423   .     A
C967   C1070   1.415   .     A
C967   C1469   1.423   .     S
C968   C1072   1.414   .     A
C968   C976    1.412   .     A
C968   C994    1.418   .     A
C969   C1116   1.410   .     A
C969   C1118   1.410   .     A
C969   C1088   1.462   .     S
C970   C1089   1.461   .     S
C970   C1117   1.419   .     A
C970   C1114   1.418   .     A
C971   C1081   1.455   .     S
C971   C1113   1.404   .     A
C971   C1120   1.404   .     A
C972   C1083   1.455   .     S
C972   C1112   1.415   .     A
C972   C1119   1.415   .     A
C973   C1122   1.410   .     A
C973   C1111   1.410   .     A
C973   C1084   1.462   .     S
C974   C1085   1.464   .     S
C974   C1110   1.409   .     A
C974   C1121   1.409   .     A
C975   C1086   1.456   .     S
C975   C1109   1.404   .     A
C975   C1124   1.404   .     A
C976   O1312   1.388   .     S
C976   C1530   1.401   1_455 S
C977   C1123   1.415   .     A
C977   C1108   1.415   .     A
C977   C1087   1.455   .     S
C978   C1107   1.407   .     A
C978   C1097   1.457   .     S
C978   C1127   1.407   .     A
C979   C1106   1.417   .     A
C979   C1098   1.456   .     S
C979   C1125   1.417   .     A
C980   C1105   1.405   .     A
C980   C1129   1.405   .     A
C980   C1090   1.459   .     S
C981   C1091   1.459   .     S
C981   C1103   1.414   .     A
C981   C1128   1.415   .     A
C982   C1102   1.407   .     A
C982   C1131   1.407   .     A
C982   C1092   1.457   .     S
C983   C1130   1.417   .     A
C983   C1101   1.417   .     A
C983   C1094   1.456   .     S
C984   C1133   1.405   .     A
C984   C1100   1.405   .     A
C984   C1095   1.460   .     S
C985   C1099   1.415   .     A
C985   C1096   1.459   .     S
C985   C1132   1.414   .     A
C986   C988    1.414   .     A
C986   C1610   1.418   1_455 S
C987   O1313   1.386   .     S
C987   C1051   1.402   .     A
C988   C1135   1.423   .     A
C988   C1433   1.424   1_455 S
C989   C990    1.410   .     A
C989   C184    1.424   1_565 S
C990   C7      1.417   1_565 S
C991   C12     1.418   1_565 S
C991   C992    1.409   1_556 S
C992   C9      1.423   1_565 S
C992   C991    1.409   1_554 S
C993   C1443   1.423   1_455 S
C993   C994    1.414   1_556 S
C994   C1439   1.419   1_455 S
C994   C993    1.414   1_554 S
C995   C996    1.534   .     S
C995   H1243   1.118   .     S
C995   H1241   1.111   .     S
C995   O1300   1.420   .     S
C996   C997    1.525   .     S
C996   H1245   1.110   .     S
C996   H1244   1.111   .     S
C997   H1246   1.111   .     S
C997   H1248   1.110   .     S
C997   H1247   1.111   .     S
C998   O1314   1.386   .     S
C999   H1250   1.116   .     S
C999   H1249   1.110   .     S
C999   C1000   1.531   .     S
C999   O1777   1.416   1_455 S
C1000  C1001   1.525   .     S
C1000  H1727   1.110   1_455 S
C1000  H1728   1.111   1_455 S
C1001  H1254   1.111   .     S
C1001  H1256   1.110   .     S
C1001  H1255   1.110   .     S
C1002  C1003   1.528   .     S
C1002  O1302   1.414   .     S
C1002  H305    1.115   1_565 S
C1002  H306    1.114   1_565 S
C1003  H1260   1.112   .     S
C1003  H1259   1.112   .     S
C1003  C52     1.526   1_565 S
C1004  H1261   1.111   .     S
C1004  H1263   1.110   .     S
C1005  C1006   1.530   .     S
C1005  O1303   1.420   .     S
C1005  H1266   1.118   .     S
C1005  H1265   1.111   .     S
C1006  H1268   1.110   .     S
C1006  C1007   1.526   .     S
C1006  H1267   1.112   .     S
C1007  H1269   1.111   .     S
C1007  H1270   1.110   .     S
C1007  H1271   1.111   .     S
C1008  O1304   1.419   .     S
C1008  H1273   1.117   .     S
C1008  C1010   1.533   .     S
C1008  H1272   1.111   .     S
C1009  C1053   1.402   .     A
C1009  O1315   1.388   .     S
C1010  H1276   1.110   .     S
C1010  H1274   1.111   .     S
C1010  C1011   1.525   .     S
C1011  H1278   1.111   .     S
C1011  H1279   1.110   .     S
C1011  H1277   1.111   .     S
C1012  H1280   1.110   .     S
C1012  C1013   1.530   .     S
C1012  H1281   1.115   .     S
C1012  O1781   1.415   .     S
C1013  C1014   1.525   .     S
C1013  H1758   1.112   .     S
C1013  H1759   1.111   .     S
C1014  H1284   1.111   .     S
C1014  H1287   1.110   .     S
C1014  H1285   1.110   .     S
C1015  O1306   1.415   .     S
C1015  C1016   1.528   .     S
C1016  H1291   1.112   .     S
C1016  H1290   1.111   .     S
C1017  H1294   1.110   .     S
C1017  H1292   1.111   .     S
C1017  C64     1.526   1_565 S
C1017  H341    1.110   1_565 S
C1018  C1019   1.529   .     S
C1018  H1295   1.114   .     S
C1018  O1307   1.415   .     S
C1018  H1296   1.114   .     S
C1019  H1139   1.110   .     S
C1019  H1140   1.112   .     S
C1019  C1021   1.526   .     S
C1020  O1316   1.389   .     S
C1020  C1054   1.401   .     A
C1021  H1142   1.111   .     S
C1021  H1143   1.111   .     S
C1021  H1141   1.111   .     S
C1022  H1144   1.111   .     S
C1022  H1145   1.118   .     S
C1022  O1308   1.421   .     S
C1022  C1023   1.531   .     S
C1023  H1146   1.111   .     S
C1023  H1147   1.110   .     S
C1023  C1024   1.526   .     S
C1024  H1148   1.111   .     S
C1024  H1151   1.111   .     S
C1024  H1150   1.110   .     S
C1025  H1153   1.114   .     S
C1025  O1310   1.415   .     S
C1025  C1026   1.528   .     S
C1025  H1152   1.115   .     S
C1026  H1155   1.112   .     S
C1026  H1154   1.111   .     S
C1026  C1027   1.526   .     S
C1027  H1157   1.110   .     S
C1027  H1158   1.110   .     S
C1027  H1156   1.111   .     S
C1028  O1311   1.415   .     S
C1028  H1161   1.116   .     S
C1028  C1029   1.530   .     S
C1028  H1159   1.111   .     S
C1029  C1030   1.525   .     S
C1029  H1163   1.111   .     S
C1029  H1162   1.111   .     S
C1030  H1166   1.109   .     S
C1030  H1164   1.111   .     S
C1030  H1165   1.110   .     S
C1031  C1075   1.453   .     S
C1031  C1558   1.401   1_455 S
C1032  H1168   1.117   .     S
C1032  O1312   1.419   .     S
C1032  H1167   1.111   .     S
C1032  C1033   1.533   .     S
C1033  H1169   1.111   .     S
C1033  C1034   1.525   .     S
C1033  H1170   1.110   .     S
C1034  H1174   1.110   .     S
C1034  H1172   1.111   .     S
C1034  H1173   1.111   .     S
C1035  H1175   1.115   .     S
C1035  C1036   1.529   .     S
C1035  H1176   1.114   .     S
C1035  O1313   1.414   .     S
C1036  H1177   1.110   .     S
C1036  C1037   1.525   .     S
C1036  H1178   1.112   .     S
C1037  H1181   1.111   .     S
C1037  H1180   1.111   .     S
C1037  H1179   1.111   .     S
C1038  H1183   1.115   .     S
C1038  H1184   1.114   .     S
C1038  C1039   1.528   .     S
C1038  O1314   1.414   .     S
C1039  H1185   1.111   .     S
C1039  C1040   1.526   .     S
C1039  H1186   1.112   .     S
C1040  H1187   1.111   .     S
C1040  H1189   1.110   .     S
C1040  H1188   1.110   .     S
C1041  H1190   1.109   .     S
C1041  O1315   1.415   .     S
C1041  C1043   1.530   .     S
C1041  H1191   1.115   .     S
C1042  C1093   1.400   .     A
C1042  C1525   1.401   1_455 S
C1042  C1076   1.448   .     S
C1043  C1044   1.525   .     S
C1043  H1192   1.112   .     S
C1043  H1194   1.111   .     S
C1044  H1195   1.111   .     S
C1044  H1197   1.110   .     S
C1044  H1196   1.110   .     S
C1045  H1199   1.117   .     S
C1045  H1198   1.111   .     S
C1045  C1046   1.534   .     S
C1045  O1316   1.420   .     S
C1046  H1200   1.111   .     S
C1046  C1047   1.525   .     S
C1046  H1201   1.110   .     S
C1047  H1205   1.110   .     S
C1047  H1202   1.111   .     S
C1047  H1203   1.111   .     S
C1048  C1060   1.396   .     A
C1048  C121    1.448   1_565 S
C1048  C152    1.397   1_565 S
C1049  O1301   1.389   .     S
C1049  C1518   1.401   .     S
C1050  C1074   1.459   .     S
C1050  C1115   1.403   .     A
C1050  C119    1.403   1_565 S
C1051  C127    1.459   1_565 S
C1051  C174    1.405   1_565 S
C1052  C1080   1.448   .     S
C1052  C46     1.396   1_565 S
C1053  C1441   1.400   1_455 S
C1053  C1553   1.448   1_455 S
C1054  C1078   1.454   .     S
C1054  C1452   1.401   .     S
C1055  C1061   1.404   .     A
C1055  C1134   1.413   .     A
C1055  O1838   1.380   .     S
C1056  O1363   1.382   .     S
C1056  C1135   1.415   .     A
C1056  C1059   1.410   .     A
C1057  C1136   1.415   .     A
C1057  C1063   1.404   .     A
C1057  O1364   1.385   .     S
C1058  O1365   1.383   .     S
C1058  C1062   1.411   .     A
C1059  O1366   1.383   .     S
C1060  O1302   1.386   .     S
C1061  O1367   1.383   .     S
C1062  O1368   1.383   .     S
C1063  O1370   1.381   .     S
C1064  O1371   1.380   .     S
C1064  C1069   1.405   1_556 S
C1065  O1372   1.383   .     S
C1065  C1068   1.410   1_554 S
C1066  O1373   1.384   .     S
C1066  C1072   1.404   1_556 S
C1067  O1374   1.383   .     S
C1067  C1070   1.409   1_554 S
C1068  O1375   1.383   .     S
C1068  C1065   1.410   1_556 S
C1069  O1376   1.385   .     S
C1069  C1064   1.405   1_554 S
C1070  O1377   1.381   .     S
C1070  C1067   1.409   1_556 S
C1071  O1303   1.388   .     S
C1072  O1378   1.380   .     S
C1072  C1066   1.404   1_554 S
C1073  O1402   1.277   .     S
C1074  O1298   1.280   .     A
C1074  O417    1.281   1_565 S
C1075  O1380   1.278   .     A
C1075  O1785   1.279   1_455 S
C1076  O1867   1.277   1_455 A
C1076  O1317   1.276   .     S
C1077  O1794   1.277   .     A
C1077  O1798   1.277   .     A
C1077  C1529   1.448   .     S
C1078  O1795   1.279   .     S
C1078  O1799   1.278   .     S
C1079  O1324   1.282   .     A
C1079  O1320   1.279   .     A
C1080  O369    1.276   1_565 S
C1080  O374    1.277   1_565 S
C1081  O1327   1.280   .     A
C1081  O1355   1.280   .     A
C1082  O1304   1.388   .     S
C1082  C1134   1.411   .     A
C1082  C1507   1.401   .     S
C1083  O1356   1.280   .     A
C1083  O1328   1.280   .     A
C1084  O1329   1.281   .     A
C1084  O1353   1.281   .     A
C1085  O1330   1.281   .     A
C1085  O1354   1.282   .     A
C1086  O1360   1.281   .     A
C1086  O1331   1.281   .     A
C1087  O1361   1.280   .     A
C1087  O1332   1.280   .     A
C1088  O1357   1.281   .     A
C1088  O1333   1.281   .     A
C1089  O1334   1.280   .     A
C1089  O1359   1.280   .     A
C1090  O1346   1.280   .     A
C1090  O1335   1.280   .     A
C1091  O1337   1.280   .     A
C1091  O1348   1.280   .     A
C1092  O1338   1.281   .     A
C1092  O1344   1.280   .     A
C1093  O1305   1.388   .     S
C1093  C1135   1.412   .     A
C1094  O1339   1.280   .     A
C1094  O1345   1.280   .     A
C1095  O1351   1.281   .     A
C1095  O1340   1.280   .     A
C1096  O1341   1.280   .     A
C1096  O1352   1.280   .     A
C1097  O1342   1.281   .     A
C1097  O1349   1.282   .     A
C1098  O1350   1.281   .     A
C1098  O1343   1.281   .     A
C1099  C1116   1.396   .     A
C1099  O1379   1.380   .     S
C1100  O1381   1.385   .     S
C1100  C1114   1.405   .     A
C1101  C1113   1.404   .     A
C1101  O1382   1.384   .     S
C1102  C1112   1.401   .     A
C1102  O1383   1.385   .     S
C1103  C1111   1.396   .     A
C1103  O1384   1.380   .     S
C1104  O1306   1.386   .     S
C1104  C1136   1.411   .     A
C1105  C1110   1.410   .     A
C1105  O1385   1.383   .     S
C1106  C1109   1.404   .     A
C1106  O1386   1.384   .     S
C1107  C1108   1.401   .     A
C1107  O1387   1.386   .     S
C1108  O1388   1.383   .     S
C1109  O1389   1.385   .     S
C1110  O1390   1.382   .     S
C1111  O1392   1.384   .     S
C1112  O1393   1.383   .     S
C1113  O1394   1.385   .     S
C1114  O1395   1.384   .     S
C1115  O1307   1.386   .     S
C1116  O1396   1.384   .     S
C1117  O1397   1.384   .     S
C1117  C1133   1.405   .     A
C1118  C1132   1.396   .     A
C1118  O1398   1.384   .     S
C1119  C1131   1.401   .     A
C1119  O1399   1.383   .     S
C1120  O1400   1.385   .     S
C1120  C1130   1.404   .     A
C1121  C1129   1.410   .     A
C1121  O1401   1.382   .     S
C1122  C1128   1.396   .     A
C1122  O1403   1.384   .     S
C1123  C1127   1.401   .     A
C1123  O1404   1.383   .     S
C1124  C1125   1.403   .     A
C1124  O1405   1.385   .     S
C1125  O1406   1.384   .     S
C1126  O1308   1.388   .     S
C1127  O1407   1.385   .     S
C1128  O1408   1.380   .     S
C1129  O1409   1.383   .     S
C1130  O1410   1.384   .     S
C1131  O1411   1.386   .     S
C1132  O1412   1.380   .     S
C1133  O1299   1.385   .     S
C1134  C1462   1.418   .     S
H1137  O1362   0.991   .     S
H1138  O1372   0.991   .     S
H1149  O1373   0.990   .     S
H1160  O1374   0.991   .     S
H1171  O1375   0.991   .     S
H1182  O1376   0.990   .     S
H1193  O1377   0.991   .     S
H1204  O1378   0.991   .     S
H1206  O1379   0.990   .     S
H1207  O1381   0.989   .     S
H1208  O1382   0.990   .     S
H1209  O1363   0.991   .     S
H1210  O1383   0.990   .     S
H1211  O1384   0.990   .     S
H1212  O1385   0.990   .     S
H1213  O1386   0.990   .     S
H1214  O1387   0.989   .     S
H1215  O1388   0.990   .     S
H1216  O1389   0.989   .     S
H1217  O1390   0.991   .     S
H1218  O1392   0.990   .     S
H1219  O1393   0.990   .     S
H1220  O1364   0.990   .     S
H1221  O1394   0.989   .     S
H1222  O1395   0.989   .     S
H1223  O1396   0.990   .     S
H1224  O1397   0.989   .     S
H1225  O1398   0.990   .     S
H1226  O1399   0.990   .     S
H1227  O1400   0.989   .     S
H1228  O1401   0.991   .     S
H1229  O1403   0.990   .     S
H1230  O1404   0.990   .     S
H1231  O1365   0.991   .     S
H1232  O1405   0.989   .     S
H1233  O1406   0.990   .     S
H1234  O1407   0.990   .     S
H1235  O1408   0.990   .     S
H1236  O1409   0.990   .     S
H1237  O1410   0.990   .     S
H1238  O1411   0.990   .     S
H1239  O1412   0.990   .     S
H1240  O1299   0.989   .     S
H1242  O1842   0.991   .     S
H1251  C1476   1.110   .     S
H1252  C1476   1.111   .     S
H1253  O1367   0.990   .     S
H1262  C52     1.110   1_565 S
H1264  O1368   0.991   .     S
H1275  O1370   0.991   .     S
H1282  C1489   1.112   1_455 S
H1283  C1489   1.111   1_455 S
H1286  O1371   0.991   .     S
H1288  C63     1.115   1_565 S
H1289  C63     1.114   1_565 S
O1297  Zn1416  1.948   .     S
O1297  Zn1413  1.948   .     S
O1297  Zn1424  1.949   .     S
O1298  Zn1415  1.946   .     S
O1301  C1475   1.416   .     S
O1305  C1488   1.415   1_455 S
O1309  Zn1418  1.946   .     S
O1309  C1551   1.279   .     S
O1317  Zn1417  1.946   .     S
O1318  C1553   1.277   1_455 A
O1318  Zn1427  1.946   .     S
O1319  Zn1426  1.946   .     S
O1319  C1554   1.279   1_455 S
O1320  Zn1421  1.946   .     S
O1321  Zn1413  1.946   .     S
O1322  Zn1423  1.946   .     S
O1322  C1553   1.277   1_455 A
O1323  Zn1422  1.946   .     S
O1323  C1554   1.278   1_455 S
O1324  Zn1425  1.946   .     S
O1325  Zn1419  1.949   .     S
O1325  Zn1425  1.949   .     S
O1325  Zn1421  1.948   .     S
O1326  Zn1424  1.946   .     S
O1327  Zn1416  1.936   .     S
O1328  Zn1415  1.936   .     S
O1329  Zn1418  1.941   .     S
O1330  Zn1417  1.941   .     S
O1331  Zn1420  1.936   .     S
O1332  Zn1419  1.936   .     S
O1333  Zn1414  1.942   .     S
O1334  Zn1428  1.942   .     S
O1335  Zn1415  1.942   .     S
O1336  Zn1414  1.948   .     S
O1336  Zn1426  1.949   .     S
O1336  Zn1422  1.948   .     S
O1336  Zn1894  1.949   1_455 S
O1337  Zn1416  1.942   .     S
O1338  Zn1428  1.936   .     S
O1339  Zn1414  1.936   .     S
O1340  Zn1419  1.941   .     S
O1341  Zn1420  1.941   .     S
O1342  Zn1417  1.936   .     S
O1343  Zn1418  1.936   .     S
O1344  Zn1899  1.936   .     S
O1345  Zn1422  1.936   .     S
O1346  Zn473   1.941   1_565 S
O1347  Zn1417  1.949   .     S
O1347  Zn1427  1.949   .     S
O1347  Zn1423  1.948   .     S
O1347  Zn1904  1.948   1_455 S
O1348  Zn1424  1.941   .     S
O1349  Zn1427  1.936   .     S
O1350  Zn1902  1.936   .     S
O1351  Zn1421  1.942   .     S
O1352  Zn461   1.942   1_565 S
O1353  Zn1898  1.942   .     S
O1354  Zn1423  1.942   .     S
O1355  Zn1413  1.936   .     S
O1356  Zn469   1.936   1_565 S
O1357  Zn1426  1.941   .     S
O1358  Zn1420  1.946   .     S
O1358  C121    1.276   1_565 A
O1359  Zn1903  1.941   .     S
O1360  Zn472   1.936   1_565 S
O1361  Zn1425  1.936   .     S
O1362  C1531   1.380   1_455 S
O1366  H1718   0.991   1_455 S
O1369  Zn1419  1.946   .     S
O1380  Zn1414  1.946   .     S
O1391  Zn1428  1.946   .     S
O1391  C1552   1.277   .     A
O1402  Zn1416  1.946   .     S
Zn1415 O373    1.948   1_565 S
Zn1418 O1812   1.949   .     S
Zn1420 O345    1.949   1_565 S
Zn1422 O1829   1.942   1_455 S
Zn1423 O1820   1.936   1_455 S
Zn1426 O1826   1.936   1_455 S
Zn1427 O1835   1.941   1_455 S
Zn1428 O1823   1.948   .     S
C1429  O1776   1.388   .     S
C1429  C1507   1.402   .     A
C1429  C1432   1.411   .     A
C1430  C1442   1.411   .     A
C1430  O1786   1.386   .     S
C1430  C1528   1.397   .     A
C1431  C1591   1.413   .     A
C1431  C1534   1.412   .     A
C1431  C1466   1.419   .     A
C1432  C1535   1.408   .     A
C1432  C1462   1.419   .     A
C1433  C1525   1.414   .     A
C1433  C1537   1.416   .     A
C1433  C988    1.424   1_655 S
C1434  C1538   1.413   .     A
C1434  C1465   1.422   .     A
C1434  C1536   1.409   .     A
C1435  C1547   1.409   .     A
C1435  C1539   1.415   .     A
C1436  C1463   1.413   .     A
C1436  C1540   1.417   .     A
C1436  C1467   1.418   .     A
C1437  C1474   1.409   .     A
C1437  C1541   1.413   .     A
C1438  C1469   1.424   .     A
C1438  C1542   1.417   .     A
C1438  C1485   1.414   .     A
C1439  C1543   1.408   .     A
C1439  C1496   1.411   .     A
C1439  C994    1.419   1_655 S
C1440  C1602   1.408   .     A
C1440  C1544   1.409   .     A
C1441  O1787   1.388   .     S
C1441  C1443   1.412   .     A
C1441  C1053   1.400   1_655 S
C1442  C1545   1.415   .     A
C1442  C1468   1.423   .     A
C1443  C1546   1.415   .     A
C1443  C993    1.423   1_655 S
C1444  C1548   1.414   .     A
C1444  C1452   1.412   .     A
C1444  C1470   1.418   .     A
C1445  C1592   1.410   .     A
C1445  C1594   1.410   .     A
C1445  C1564   1.462   .     S
C1446  C1565   1.461   .     S
C1446  C1593   1.419   .     A
C1446  C1590   1.418   .     A
C1447  C1557   1.455   .     S
C1447  C1589   1.404   .     A
C1447  C1596   1.404   .     A
C1448  C1559   1.455   .     S
C1448  C1588   1.415   .     A
C1448  C1595   1.415   .     A
C1449  C1598   1.410   .     A
C1449  C1587   1.410   .     A
C1449  C1560   1.462   .     S
C1450  C1561   1.464   .     S
C1450  C1586   1.409   .     A
C1450  C1597   1.409   .     A
C1451  C1562   1.456   .     S
C1451  C1585   1.404   .     A
C1451  C1600   1.404   .     A
C1452  O1788   1.388   .     S
C1453  C1599   1.415   .     A
C1453  C1584   1.415   .     A
C1453  C1563   1.455   .     S
C1454  C1583   1.407   .     A
C1454  C1573   1.457   .     S
C1454  C1603   1.407   .     A
C1455  C1582   1.417   .     A
C1455  C1574   1.456   .     S
C1455  C1601   1.417   .     A
C1456  C1581   1.405   .     A
C1456  C1605   1.405   .     A
C1456  C1566   1.459   .     S
C1457  C1567   1.459   .     S
C1457  C1579   1.414   .     A
C1457  C1604   1.415   .     A
C1458  C1578   1.407   .     A
C1458  C1607   1.407   .     A
C1458  C1568   1.457   .     S
C1459  C1606   1.417   .     A
C1459  C1577   1.417   .     A
C1459  C1570   1.456   .     S
C1460  C1609   1.405   .     A
C1460  C1576   1.405   .     A
C1460  C1571   1.460   .     S
C1461  C1575   1.415   .     A
C1461  C1572   1.459   .     S
C1461  C1608   1.414   .     A
C1462  C1464   1.414   .     A
C1463  O1789   1.386   .     S
C1463  C1527   1.402   .     A
C1464  C1611   1.423   .     A
C1465  C1466   1.410   .     A
C1465  C660    1.424   1_565 S
C1466  C483    1.417   1_565 S
C1467  C488    1.418   1_565 S
C1467  C1468   1.409   1_556 S
C1468  C485    1.423   1_565 S
C1468  C1467   1.409   1_554 S
C1469  C1470   1.414   1_556 S
C1470  C1469   1.414   1_554 S
C1471  C1472   1.534   .     S
C1471  H1719   1.118   .     S
C1471  H1717   1.111   .     S
C1471  O1776   1.420   .     S
C1472  C1473   1.525   .     S
C1472  H1721   1.110   .     S
C1472  H1720   1.111   .     S
C1473  H1722   1.111   .     S
C1473  H1724   1.110   .     S
C1473  H1723   1.111   .     S
C1474  O1790   1.386   .     S
C1475  H1726   1.116   .     S
C1475  H1725   1.110   .     S
C1475  C1476   1.531   .     S
C1476  C1477   1.525   .     S
C1477  H1730   1.111   .     S
C1477  H1732   1.110   .     S
C1477  H1731   1.110   .     S
C1478  C1479   1.528   .     S
C1478  O1778   1.414   .     S
C1478  H781    1.115   1_565 S
C1478  H782    1.114   1_565 S
C1479  H1736   1.112   .     S
C1479  H1735   1.112   .     S
C1479  C528    1.526   1_565 S
C1480  H1737   1.111   .     S
C1480  H1739   1.110   .     S
C1481  C1482   1.530   .     S
C1481  O1779   1.420   .     S
C1481  H1742   1.118   .     S
C1481  H1741   1.111   .     S
C1482  H1744   1.110   .     S
C1482  C1483   1.526   .     S
C1482  H1743   1.112   .     S
C1483  H1745   1.111   .     S
C1483  H1746   1.110   .     S
C1483  H1747   1.111   .     S
C1484  O1780   1.419   .     S
C1484  H1749   1.117   .     S
C1484  C1486   1.533   .     S
C1484  H1748   1.111   .     S
C1485  C1529   1.402   .     A
C1485  O1791   1.388   .     S
C1486  H1752   1.110   .     S
C1486  H1750   1.111   .     S
C1486  C1487   1.525   .     S
C1487  H1754   1.111   .     S
C1487  H1755   1.110   .     S
C1487  H1753   1.111   .     S
C1488  H1756   1.110   .     S
C1488  C1489   1.530   .     S
C1488  H1757   1.115   .     S
C1488  O1305   1.415   1_655 S
C1489  C1490   1.525   .     S
C1489  H1282   1.112   1_655 S
C1489  H1283   1.111   1_655 S
C1490  H1760   1.111   .     S
C1490  H1763   1.110   .     S
C1490  H1761   1.110   .     S
C1491  O1782   1.415   .     S
C1491  C1492   1.528   .     S
C1492  H1767   1.112   .     S
C1492  H1766   1.111   .     S
C1493  H1770   1.110   .     S
C1493  H1768   1.111   .     S
C1493  C540    1.526   1_565 S
C1493  H817    1.110   1_565 S
C1494  C1495   1.529   .     S
C1494  H1771   1.114   .     S
C1494  O1783   1.415   .     S
C1494  H1772   1.114   .     S
C1495  H1615   1.110   .     S
C1495  H1616   1.112   .     S
C1495  C1497   1.526   .     S
C1496  O1792   1.389   .     S
C1496  C1530   1.401   .     A
C1497  H1618   1.111   .     S
C1497  H1619   1.111   .     S
C1497  H1617   1.111   .     S
C1498  H1620   1.111   .     S
C1498  H1621   1.118   .     S
C1498  O1784   1.421   .     S
C1498  C1499   1.531   .     S
C1499  H1622   1.111   .     S
C1499  H1623   1.110   .     S
C1499  C1500   1.526   .     S
C1500  H1624   1.111   .     S
C1500  H1627   1.111   .     S
C1500  H1626   1.110   .     S
C1501  H1629   1.114   .     S
C1501  O1786   1.415   .     S
C1501  C1502   1.528   .     S
C1501  H1628   1.115   .     S
C1502  H1631   1.112   .     S
C1502  H1630   1.111   .     S
C1502  C1503   1.526   .     S
C1503  H1633   1.110   .     S
C1503  H1634   1.110   .     S
C1503  H1632   1.111   .     S
C1504  O1787   1.415   .     S
C1504  H1637   1.116   .     S
C1504  C1505   1.530   .     S
C1504  H1635   1.111   .     S
C1505  C1506   1.525   .     S
C1505  H1639   1.111   .     S
C1505  H1638   1.111   .     S
C1506  H1642   1.109   .     S
C1506  H1640   1.111   .     S
C1506  H1641   1.110   .     S
C1507  C1551   1.453   .     S
C1508  H1644   1.117   .     S
C1508  O1788   1.419   .     S
C1508  H1643   1.111   .     S
C1508  C1509   1.533   .     S
C1509  H1645   1.111   .     S
C1509  C1510   1.525   .     S
C1509  H1646   1.110   .     S
C1510  H1650   1.110   .     S
C1510  H1648   1.111   .     S
C1510  H1649   1.111   .     S
C1511  H1651   1.115   .     S
C1511  C1512   1.529   .     S
C1511  H1652   1.114   .     S
C1511  O1789   1.414   .     S
C1512  H1653   1.110   .     S
C1512  C1513   1.525   .     S
C1512  H1654   1.112   .     S
C1513  H1657   1.111   .     S
C1513  H1656   1.111   .     S
C1513  H1655   1.111   .     S
C1514  H1659   1.115   .     S
C1514  H1660   1.114   .     S
C1514  C1515   1.528   .     S
C1514  O1790   1.414   .     S
C1515  H1661   1.111   .     S
C1515  C1516   1.526   .     S
C1515  H1662   1.112   .     S
C1516  H1663   1.111   .     S
C1516  H1665   1.110   .     S
C1516  H1664   1.110   .     S
C1517  H1666   1.109   .     S
C1517  O1791   1.415   .     S
C1517  C1519   1.530   .     S
C1517  H1667   1.115   .     S
C1518  C1569   1.400   .     A
C1518  C1552   1.448   .     S
C1519  C1520   1.525   .     S
C1519  H1668   1.112   .     S
C1519  H1670   1.111   .     S
C1520  H1671   1.111   .     S
C1520  H1673   1.110   .     S
C1520  H1672   1.110   .     S
C1521  H1675   1.117   .     S
C1521  H1674   1.111   .     S
C1521  C1522   1.534   .     S
C1521  O1792   1.420   .     S
C1522  H1676   1.111   .     S
C1522  C1523   1.525   .     S
C1522  H1677   1.110   .     S
C1523  H1681   1.110   .     S
C1523  H1678   1.111   .     S
C1523  H1679   1.111   .     S
C1524  C1536   1.396   .     A
C1524  C597    1.448   1_565 S
C1524  C628    1.397   1_565 S
C1525  O1777   1.389   .     S
C1525  C1042   1.401   1_655 S
C1526  C1550   1.459   .     S
C1526  C1591   1.403   .     A
C1526  C595    1.403   1_565 S
C1527  C603    1.459   1_565 S
C1527  C650    1.405   1_565 S
C1528  C1556   1.448   .     S
C1528  C522    1.396   1_565 S
C1530  C1554   1.454   .     S
C1530  C976    1.401   1_655 S
C1531  C1537   1.404   .     A
C1531  C1610   1.413   .     A
C1531  O1362   1.380   1_655 S
C1532  O1839   1.382   .     S
C1532  C1611   1.415   .     A
C1532  C1535   1.410   .     A
C1533  C1612   1.415   .     A
C1533  C1539   1.404   .     A
C1533  O1840   1.385   .     S
C1534  O1841   1.383   .     S
C1534  C1538   1.411   .     A
C1535  O1842   1.383   .     S
C1536  O1778   1.386   .     S
C1537  O1843   1.383   .     S
C1538  O1844   1.383   .     S
C1539  O1846   1.381   .     S
C1540  O1847   1.380   .     S
C1540  C1545   1.405   1_556 S
C1541  O1848   1.383   .     S
C1541  C1544   1.410   1_554 S
C1542  O1849   1.384   .     S
C1542  C1548   1.404   1_556 S
C1543  O1850   1.383   .     S
C1543  C1546   1.409   1_554 S
C1544  O1851   1.383   .     S
C1544  C1541   1.410   1_556 S
C1545  O1852   1.385   .     S
C1545  C1540   1.405   1_554 S
C1546  O1853   1.381   .     S
C1546  C1543   1.409   1_556 S
C1547  O1779   1.388   .     S
C1548  O1854   1.380   .     S
C1548  C1542   1.404   1_554 S
C1549  O1878   1.277   .     S
C1550  O1774   1.280   .     A
C1550  O893    1.281   1_565 S
C1551  O1856   1.278   .     A
C1552  O1793   1.276   .     S
C1553  O1318   1.277   1_655 A
C1553  O1322   1.277   1_655 A
C1553  C1053   1.448   1_655 S
C1554  O1319   1.279   1_655 S
C1554  O1323   1.278   1_655 S
C1555  O1800   1.282   .     A
C1555  O1796   1.279   .     A
C1556  O845    1.276   1_565 S
C1556  O850    1.277   1_565 S
C1557  O1803   1.280   .     A
C1557  O1831   1.280   .     A
C1558  O1780   1.388   .     S
C1558  C1610   1.411   .     A
C1558  C1031   1.401   1_655 S
C1559  O1832   1.280   .     A
C1559  O1804   1.280   .     A
C1560  O1805   1.281   .     A
C1560  O1829   1.281   .     A
C1561  O1806   1.281   .     A
C1561  O1830   1.282   .     A
C1562  O1836   1.281   .     A
C1562  O1807   1.281   .     A
C1563  O1837   1.280   .     A
C1563  O1808   1.280   .     A
C1564  O1833   1.281   .     A
C1564  O1809   1.281   .     A
C1565  O1810   1.280   .     A
C1565  O1835   1.280   .     A
C1566  O1822   1.280   .     A
C1566  O1811   1.280   .     A
C1567  O1813   1.280   .     A
C1567  O1824   1.280   .     A
C1568  O1814   1.281   .     A
C1568  O1820   1.280   .     A
C1569  O1781   1.388   .     S
C1569  C1611   1.412   .     A
C1570  O1815   1.280   .     A
C1570  O1821   1.280   .     A
C1571  O1827   1.281   .     A
C1571  O1816   1.280   .     A
C1572  O1817   1.280   .     A
C1572  O1828   1.280   .     A
C1573  O1818   1.281   .     A
C1573  O1825   1.282   .     A
C1574  O1826   1.281   .     A
C1574  O1819   1.281   .     A
C1575  C1592   1.396   .     A
C1575  O1855   1.380   .     S
C1576  O1857   1.385   .     S
C1576  C1590   1.405   .     A
C1577  C1589   1.404   .     A
C1577  O1858   1.384   .     S
C1578  C1588   1.401   .     A
C1578  O1859   1.385   .     S
C1579  C1587   1.396   .     A
C1579  O1860   1.380   .     S
C1580  O1782   1.386   .     S
C1580  C1612   1.411   .     A
C1581  C1586   1.410   .     A
C1581  O1861   1.383   .     S
C1582  C1585   1.404   .     A
C1582  O1862   1.384   .     S
C1583  C1584   1.401   .     A
C1583  O1863   1.386   .     S
C1584  O1864   1.383   .     S
C1585  O1865   1.385   .     S
C1586  O1866   1.382   .     S
C1587  O1868   1.384   .     S
C1588  O1869   1.383   .     S
C1589  O1870   1.385   .     S
C1590  O1871   1.384   .     S
C1591  O1783   1.386   .     S
C1592  O1872   1.384   .     S
C1593  O1873   1.384   .     S
C1593  C1609   1.405   .     A
C1594  C1608   1.396   .     A
C1594  O1874   1.384   .     S
C1595  C1607   1.401   .     A
C1595  O1875   1.383   .     S
C1596  O1876   1.385   .     S
C1596  C1606   1.404   .     A
C1597  C1605   1.410   .     A
C1597  O1877   1.382   .     S
C1598  C1604   1.396   .     A
C1598  O1879   1.384   .     S
C1599  C1603   1.401   .     A
C1599  O1880   1.383   .     S
C1600  C1601   1.403   .     A
C1600  O1881   1.385   .     S
C1601  O1882   1.384   .     S
C1602  O1784   1.388   .     S
C1603  O1883   1.385   .     S
C1604  O1884   1.380   .     S
C1605  O1885   1.383   .     S
C1606  O1886   1.384   .     S
C1607  O1887   1.386   .     S
C1608  O1888   1.380   .     S
C1609  O1775   1.385   .     S
C1610  C986    1.418   1_655 S
H1613  O1838   0.991   .     S
H1614  O1848   0.991   .     S
H1625  O1849   0.990   .     S
H1636  O1850   0.991   .     S
H1647  O1851   0.991   .     S
H1658  O1852   0.990   .     S
H1669  O1853   0.991   .     S
H1680  O1854   0.991   .     S
H1682  O1855   0.990   .     S
H1683  O1857   0.989   .     S
H1684  O1858   0.990   .     S
H1685  O1839   0.991   .     S
H1686  O1859   0.990   .     S
H1687  O1860   0.990   .     S
H1688  O1861   0.990   .     S
H1689  O1862   0.990   .     S
H1690  O1863   0.989   .     S
H1691  O1864   0.990   .     S
H1692  O1865   0.989   .     S
H1693  O1866   0.991   .     S
H1694  O1868   0.990   .     S
H1695  O1869   0.990   .     S
H1696  O1840   0.990   .     S
H1697  O1870   0.989   .     S
H1698  O1871   0.989   .     S
H1699  O1872   0.990   .     S
H1700  O1873   0.989   .     S
H1701  O1874   0.990   .     S
H1702  O1875   0.990   .     S
H1703  O1876   0.989   .     S
H1704  O1877   0.991   .     S
H1705  O1879   0.990   .     S
H1706  O1880   0.990   .     S
H1707  O1841   0.991   .     S
H1708  O1881   0.989   .     S
H1709  O1882   0.990   .     S
H1710  O1883   0.990   .     S
H1711  O1884   0.990   .     S
H1712  O1885   0.990   .     S
H1713  O1886   0.990   .     S
H1714  O1887   0.990   .     S
H1715  O1888   0.990   .     S
H1716  O1775   0.989   .     S
H1718  O1366   0.991   1_655 S
H1727  C1000   1.110   1_655 S
H1728  C1000   1.111   1_655 S
H1729  O1843   0.990   .     S
H1738  C528    1.110   1_565 S
H1740  O1844   0.991   .     S
H1751  O1846   0.991   .     S
H1762  O1847   0.991   .     S
H1764  C539    1.115   1_565 S
H1765  C539    1.114   1_565 S
O1773  Zn1892  1.948   .     S
O1773  Zn1889  1.948   .     S
O1773  Zn1900  1.949   .     S
O1774  Zn1891  1.946   .     S
O1777  C999    1.416   1_655 S
O1785  Zn1894  1.946   .     S
O1785  C1075   1.279   1_655 S
O1793  Zn1893  1.946   .     S
O1794  Zn1903  1.946   .     S
O1795  Zn1902  1.946   .     S
O1796  Zn1897  1.946   .     S
O1797  Zn1889  1.946   .     S
O1798  Zn1899  1.946   .     S
O1799  Zn1898  1.946   .     S
O1800  Zn1901  1.946   .     S
O1801  Zn1895  1.949   .     S
O1801  Zn1901  1.949   .     S
O1801  Zn1897  1.948   .     S
O1802  Zn1900  1.946   .     S
O1803  Zn1892  1.936   .     S
O1804  Zn1891  1.936   .     S
O1805  Zn1894  1.941   .     S
O1806  Zn1893  1.941   .     S
O1807  Zn1896  1.936   .     S
O1808  Zn1895  1.936   .     S
O1809  Zn1890  1.942   .     S
O1810  Zn1904  1.942   .     S
O1811  Zn1891  1.942   .     S
O1812  Zn1890  1.948   .     S
O1812  Zn1902  1.949   .     S
O1812  Zn1898  1.948   .     S
O1813  Zn1892  1.942   .     S
O1814  Zn1904  1.936   .     S
O1815  Zn1890  1.936   .     S
O1816  Zn1895  1.941   .     S
O1817  Zn1896  1.941   .     S
O1818  Zn1893  1.936   .     S
O1819  Zn1894  1.936   .     S
O1820  Zn1423  1.936   1_655 S
O1821  Zn1898  1.936   .     S
O1822  Zn949   1.941   1_565 S
O1823  Zn1893  1.949   .     S
O1823  Zn1903  1.949   .     S
O1823  Zn1899  1.948   .     S
O1824  Zn1900  1.941   .     S
O1825  Zn1903  1.936   .     S
O1826  Zn1426  1.936   1_655 S
O1827  Zn1897  1.942   .     S
O1828  Zn937   1.942   1_565 S
O1829  Zn1422  1.942   1_655 S
O1830  Zn1899  1.942   .     S
O1831  Zn1889  1.936   .     S
O1832  Zn945   1.936   1_565 S
O1833  Zn1902  1.941   .     S
O1834  Zn1896  1.946   .     S
O1834  C597    1.276   1_565 A
O1835  Zn1427  1.941   1_655 S
O1836  Zn948   1.936   1_565 S
O1837  Zn1901  1.936   .     S
O1845  Zn1895  1.946   .     S
O1856  Zn1890  1.946   .     S
O1867  Zn1904  1.946   .     S
O1867  C1076   1.277   1_655 A
O1878  Zn1892  1.946   .     S
Zn1891 O849    1.948   1_565 S
Zn1894 O1336   1.949   1_655 S
Zn1896 O821    1.949   1_565 S
Zn1904 O1347   1.948   1_655 S
