data_str_m3_o1_o16_pcu_sym.242
_audit_creation_date              2020-01-03
_audit_creation_method            'Materials Studio'
_symmetry_space_group_name_H-M    'P1'
_symmetry_Int_Tables_number       1
_symmetry_cell_setting            triclinic
loop_
_symmetry_equiv_pos_as_xyz
  x,y,z
_cell_length_a                    29.6567
_cell_length_b                    32.3077
_cell_length_c                    26.5081
_cell_angle_alpha                 90.0539
_cell_angle_beta                  72.0855
_cell_angle_gamma                 90.4863
loop_
_atom_site_label
_atom_site_type_symbol
_atom_site_fract_x
_atom_site_fract_y
_atom_site_fract_z
_atom_site_U_iso_or_equiv
_atom_site_adp_type
_atom_site_occupancy
C1     C     0.16710   0.24643   0.24881   0.00000  Uiso   1.00
C2     C     0.14331   0.14210   0.49031   0.00000  Uiso   1.00
C3     C     0.15722   0.13882   0.43469   0.00000  Uiso   1.00
C4     C     0.17900   0.14213   0.01553   0.00000  Uiso   1.00
C5     C     0.22392   0.12560   0.48877   0.00000  Uiso   1.00
C6     C     0.23376   0.11284   0.43651   0.00000  Uiso   1.00
C7     C     0.20178   0.12074   0.40903   0.00000  Uiso   1.00
C8     C     0.17207   0.16041   0.06517   0.00000  Uiso   1.00
C9     C     0.24929   0.13670   0.06604   0.00000  Uiso   1.00
C10    C     0.12452   0.15036   0.40790   0.00000  Uiso   1.00
C11    C     0.19553   0.31120   0.27222   0.00000  Uiso   1.00
C12    C     0.14084   0.16187   0.35117   0.00000  Uiso   1.00
C13    C     0.19588   0.02031   0.27291   0.00000  Uiso   1.00
C14    C     0.16661   0.04197   0.24899   0.00000  Uiso   1.00
C15    C     0.13796   0.02022   0.22383   0.00000  Uiso   1.00
C16    C     0.13948   0.31082   0.22247   0.00000  Uiso   1.00
C17    C     0.16764   0.29019   0.24734   0.00000  Uiso   1.00
C18    C     0.31943   0.14449   0.21334   0.00000  Uiso   1.00
C19    C     0.03396   0.14484   0.21323   0.00000  Uiso   1.00
C20    C     0.01424   0.18813   0.28747   0.00000  Uiso   1.00
C21    C     0.29944   0.18865   0.28749   0.00000  Uiso   1.00
C22    C     0.16654   0.08652   0.24983   0.00000  Uiso   1.00
C23    C     0.19235   0.16561   0.14827   0.00000  Uiso   1.00
C24    C     0.25826   0.12206   0.01463   0.00000  Uiso   1.00
C25    C     0.20616   0.15619   0.09160   0.00000  Uiso   1.00
C26    C     0.07553   0.15132   0.43673   0.00000  Uiso   1.00
C27    C     0.06125   0.14713   0.49157   0.00000  Uiso   1.00
C28    C     0.09427   0.14148   0.01859   0.00000  Uiso   1.00
H29    H     0.11819   0.29379   0.20262   0.00000  Uiso   1.00
H30    H     0.26671   0.09768   0.41629   0.00000  Uiso   1.00
H31    H     0.29177   0.10741   0.49543   0.00000  Uiso   1.00
H32    H     0.02387   0.14532   0.01308   0.00000  Uiso   1.00
H33    H     0.21660   0.29463   0.29195   0.00000  Uiso   1.00
N34    N     0.04760   0.16668   0.25001   0.00000  Uiso   1.00
N35    N     0.28573   0.16665   0.25000   0.00000  Uiso   1.00
O36    O     0.12846   0.22775   0.25000   0.00000  Uiso   1.00
O37    O     0.20490   0.22774   0.25000   0.00000  Uiso   1.00
O38    O     0.10947   0.16666   0.32681   0.00000  Uiso   1.00
O39    O     0.18591   0.16665   0.32681   0.00000  Uiso   1.00
O40    O     0.12843   0.10559   0.24999   0.00000  Uiso   1.00
O41    O     0.20488   0.10558   0.24999   0.00000  Uiso   1.00
O42    O     0.14742   0.16668   0.17319   0.00000  Uiso   1.00
O43    O     0.22387   0.16667   0.17319   0.00000  Uiso   1.00
Zn44   Zn    0.11562   0.16667   0.25000   0.00000  Uiso   1.00
Zn45   Zn    0.21771   0.16666   0.25000   0.00000  Uiso   1.00
F46    F     0.28232   0.13077   0.09095   0.00000  Uiso   1.00
N47    N     0.22376   0.04066   0.30044   0.00000  Uiso   1.00
H48    H     0.21764   0.02931   0.33838   0.00000  Uiso   1.00
C49    C     0.27381   0.04211   0.27187   0.00000  Uiso   1.00
H50    H     0.28918   0.01066   0.26934   0.00000  Uiso   1.00
H51    H     0.29203   0.06279   0.29303   0.00000  Uiso   1.00
H52    H     0.27984   0.05435   0.23121   0.00000  Uiso   1.00
N53    N     0.10779   0.04075   0.19960   0.00000  Uiso   1.00
H54    H     0.11367   0.03176   0.16077   0.00000  Uiso   1.00
C55    C     0.05816   0.03763   0.23002   0.00000  Uiso   1.00
H56    H     0.04654   0.00471   0.23582   0.00000  Uiso   1.00
H57    H     0.03645   0.05317   0.20846   0.00000  Uiso   1.00
H58    H     0.05174   0.05274   0.26925   0.00000  Uiso   1.00
F59    F     0.30681   0.12127   0.17734   0.00000  Uiso   1.00
F60    F     0.06687   0.12294   0.17684   0.00000  Uiso   1.00
F61    F     0.02757   0.20838   0.32539   0.00000  Uiso   1.00
N62    N     0.26467   0.20953   0.32847   0.00000  Uiso   1.00
H63    H     0.25454   0.19301   0.36346   0.00000  Uiso   1.00
C64    C     0.27388   0.25267   0.33675   0.00000  Uiso   1.00
H65    H     0.29859   0.25586   0.36056   0.00000  Uiso   1.00
H66    H     0.24022   0.26753   0.35969   0.00000  Uiso   1.00
H67    H     0.28876   0.26897   0.29823   0.00000  Uiso   1.00
F68    F     0.13361   0.18467   0.08645   0.00000  Uiso   1.00
N69    N     0.04006   0.15185   0.41068   0.00000  Uiso   1.00
H70    H     0.00847   0.16497   0.43250   0.00000  Uiso   1.00
C71    C     0.03318   0.11248   0.38759   0.00000  Uiso   1.00
H72    H     0.00954   0.11674   0.36272   0.00000  Uiso   1.00
H73    H     0.01730   0.08940   0.41915   0.00000  Uiso   1.00
H74    H     0.06725   0.09994   0.36186   0.00000  Uiso   1.00
N75    N     0.07764   0.12518   0.07084   0.00000  Uiso   1.00
H76    H     0.04486   0.13633   0.09225   0.00000  Uiso   1.00
C77    C     0.07920   0.08036   0.07216   0.00000  Uiso   1.00
H78    H     0.11645   0.06961   0.05738   0.00000  Uiso   1.00
H79    H     0.05854   0.06671   0.04754   0.00000  Uiso   1.00
H80    H     0.06338   0.06897   0.11325   0.00000  Uiso   1.00
F81    F     0.21293   0.10598   0.35925   0.00000  Uiso   1.00
C82    C     0.50043   0.24643   0.24881   0.00000  Uiso   1.00
C83    C     0.47664   0.14210   0.49031   0.00000  Uiso   1.00
C84    C     0.49055   0.13882   0.43469   0.00000  Uiso   1.00
C85    C     0.51233   0.14213   0.01553   0.00000  Uiso   1.00
C86    C     0.55726   0.12560   0.48877   0.00000  Uiso   1.00
C87    C     0.56709   0.11284   0.43651   0.00000  Uiso   1.00
C88    C     0.53511   0.12074   0.40903   0.00000  Uiso   1.00
C89    C     0.50540   0.16041   0.06517   0.00000  Uiso   1.00
C90    C     0.58263   0.13670   0.06604   0.00000  Uiso   1.00
C91    C     0.45786   0.15036   0.40790   0.00000  Uiso   1.00
C92    C     0.52886   0.31120   0.27222   0.00000  Uiso   1.00
C93    C     0.47418   0.16187   0.35117   0.00000  Uiso   1.00
C94    C     0.52921   0.02031   0.27291   0.00000  Uiso   1.00
C95    C     0.49995   0.04197   0.24899   0.00000  Uiso   1.00
C96    C     0.47129   0.02022   0.22383   0.00000  Uiso   1.00
C97    C     0.47282   0.31082   0.22247   0.00000  Uiso   1.00
C98    C     0.50097   0.29019   0.24734   0.00000  Uiso   1.00
C99    C     0.65276   0.14449   0.21334   0.00000  Uiso   1.00
C100   C     0.36729   0.14484   0.21323   0.00000  Uiso   1.00
C101   C     0.34757   0.18813   0.28747   0.00000  Uiso   1.00
C102   C     0.63277   0.18865   0.28749   0.00000  Uiso   1.00
C103   C     0.49987   0.08652   0.24983   0.00000  Uiso   1.00
C104   C     0.52569   0.16561   0.14827   0.00000  Uiso   1.00
C105   C     0.59160   0.12206   0.01463   0.00000  Uiso   1.00
C106   C     0.53949   0.15619   0.09160   0.00000  Uiso   1.00
C107   C     0.40886   0.15132   0.43673   0.00000  Uiso   1.00
C108   C     0.39458   0.14713   0.49157   0.00000  Uiso   1.00
C109   C     0.42760   0.14148   0.01859   0.00000  Uiso   1.00
H110   H     0.45152   0.29379   0.20262   0.00000  Uiso   1.00
H111   H     0.60005   0.09768   0.41629   0.00000  Uiso   1.00
H112   H     0.62510   0.10741   0.49543   0.00000  Uiso   1.00
H113   H     0.35721   0.14532   0.01308   0.00000  Uiso   1.00
H114   H     0.54993   0.29463   0.29195   0.00000  Uiso   1.00
N115   N     0.38093   0.16668   0.25001   0.00000  Uiso   1.00
N116   N     0.61906   0.16665   0.25000   0.00000  Uiso   1.00
O117   O     0.46179   0.22775   0.25000   0.00000  Uiso   1.00
O118   O     0.53823   0.22774   0.25000   0.00000  Uiso   1.00
O119   O     0.44280   0.16666   0.32681   0.00000  Uiso   1.00
O120   O     0.51924   0.16665   0.32681   0.00000  Uiso   1.00
O121   O     0.46177   0.10559   0.24999   0.00000  Uiso   1.00
O122   O     0.53821   0.10558   0.24999   0.00000  Uiso   1.00
O123   O     0.48076   0.16668   0.17319   0.00000  Uiso   1.00
O124   O     0.55720   0.16667   0.17319   0.00000  Uiso   1.00
Zn125  Zn    0.44896   0.16667   0.25000   0.00000  Uiso   1.00
Zn126  Zn    0.55104   0.16666   0.25000   0.00000  Uiso   1.00
F127   F     0.61565   0.13077   0.09095   0.00000  Uiso   1.00
N128   N     0.55709   0.04066   0.30044   0.00000  Uiso   1.00
H129   H     0.55097   0.02931   0.33838   0.00000  Uiso   1.00
C130   C     0.60714   0.04211   0.27187   0.00000  Uiso   1.00
H131   H     0.62252   0.01066   0.26934   0.00000  Uiso   1.00
H132   H     0.62537   0.06279   0.29303   0.00000  Uiso   1.00
H133   H     0.61317   0.05435   0.23121   0.00000  Uiso   1.00
N134   N     0.44112   0.04075   0.19960   0.00000  Uiso   1.00
H135   H     0.44700   0.03176   0.16077   0.00000  Uiso   1.00
C136   C     0.39150   0.03763   0.23002   0.00000  Uiso   1.00
H137   H     0.37988   0.00471   0.23582   0.00000  Uiso   1.00
H138   H     0.36979   0.05317   0.20846   0.00000  Uiso   1.00
H139   H     0.38507   0.05274   0.26925   0.00000  Uiso   1.00
F140   F     0.64014   0.12127   0.17734   0.00000  Uiso   1.00
F141   F     0.40020   0.12294   0.17684   0.00000  Uiso   1.00
F142   F     0.36090   0.20838   0.32539   0.00000  Uiso   1.00
N143   N     0.59801   0.20953   0.32847   0.00000  Uiso   1.00
H144   H     0.58788   0.19301   0.36346   0.00000  Uiso   1.00
C145   C     0.60721   0.25267   0.33675   0.00000  Uiso   1.00
H146   H     0.63192   0.25586   0.36056   0.00000  Uiso   1.00
H147   H     0.57356   0.26753   0.35969   0.00000  Uiso   1.00
H148   H     0.62209   0.26897   0.29823   0.00000  Uiso   1.00
F149   F     0.46694   0.18467   0.08645   0.00000  Uiso   1.00
N150   N     0.37339   0.15185   0.41068   0.00000  Uiso   1.00
H151   H     0.34180   0.16497   0.43250   0.00000  Uiso   1.00
C152   C     0.36651   0.11248   0.38759   0.00000  Uiso   1.00
H153   H     0.34288   0.11674   0.36272   0.00000  Uiso   1.00
H154   H     0.35063   0.08940   0.41915   0.00000  Uiso   1.00
H155   H     0.40059   0.09994   0.36186   0.00000  Uiso   1.00
N156   N     0.41097   0.12518   0.07084   0.00000  Uiso   1.00
H157   H     0.37819   0.13633   0.09225   0.00000  Uiso   1.00
C158   C     0.41254   0.08036   0.07216   0.00000  Uiso   1.00
H159   H     0.44978   0.06961   0.05738   0.00000  Uiso   1.00
H160   H     0.39188   0.06671   0.04754   0.00000  Uiso   1.00
H161   H     0.39671   0.06897   0.11325   0.00000  Uiso   1.00
F162   F     0.54626   0.10598   0.35925   0.00000  Uiso   1.00
C163   C     0.83376   0.24643   0.24881   0.00000  Uiso   1.00
C164   C     0.80998   0.14210   0.49031   0.00000  Uiso   1.00
C165   C     0.82388   0.13882   0.43469   0.00000  Uiso   1.00
C166   C     0.84566   0.14213   0.01553   0.00000  Uiso   1.00
C167   C     0.89059   0.12560   0.48877   0.00000  Uiso   1.00
C168   C     0.90043   0.11284   0.43651   0.00000  Uiso   1.00
C169   C     0.86845   0.12074   0.40903   0.00000  Uiso   1.00
C170   C     0.83873   0.16041   0.06517   0.00000  Uiso   1.00
C171   C     0.91596   0.13670   0.06604   0.00000  Uiso   1.00
C172   C     0.79119   0.15036   0.40790   0.00000  Uiso   1.00
C173   C     0.86220   0.31120   0.27222   0.00000  Uiso   1.00
C174   C     0.80751   0.16187   0.35117   0.00000  Uiso   1.00
C175   C     0.86255   0.02031   0.27291   0.00000  Uiso   1.00
C176   C     0.83328   0.04197   0.24899   0.00000  Uiso   1.00
C177   C     0.80462   0.02022   0.22383   0.00000  Uiso   1.00
C178   C     0.80615   0.31082   0.22247   0.00000  Uiso   1.00
C179   C     0.83430   0.29019   0.24734   0.00000  Uiso   1.00
C180   C     0.98609   0.14449   0.21334   0.00000  Uiso   1.00
C181   C     0.70063   0.14484   0.21323   0.00000  Uiso   1.00
C182   C     0.68091   0.18813   0.28747   0.00000  Uiso   1.00
C183   C     0.96610   0.18865   0.28749   0.00000  Uiso   1.00
C184   C     0.83320   0.08652   0.24983   0.00000  Uiso   1.00
C185   C     0.85902   0.16561   0.14827   0.00000  Uiso   1.00
C186   C     0.92493   0.12206   0.01463   0.00000  Uiso   1.00
C187   C     0.87282   0.15619   0.09160   0.00000  Uiso   1.00
C188   C     0.74219   0.15132   0.43673   0.00000  Uiso   1.00
C189   C     0.72791   0.14713   0.49157   0.00000  Uiso   1.00
C190   C     0.76094   0.14148   0.01859   0.00000  Uiso   1.00
H191   H     0.78486   0.29379   0.20262   0.00000  Uiso   1.00
H192   H     0.93338   0.09768   0.41629   0.00000  Uiso   1.00
H193   H     0.95843   0.10741   0.49543   0.00000  Uiso   1.00
H194   H     0.69054   0.14532   0.01308   0.00000  Uiso   1.00
H195   H     0.88326   0.29463   0.29195   0.00000  Uiso   1.00
N196   N     0.71426   0.16668   0.25001   0.00000  Uiso   1.00
N197   N     0.95239   0.16665   0.25000   0.00000  Uiso   1.00
O198   O     0.79512   0.22775   0.25000   0.00000  Uiso   1.00
O199   O     0.87157   0.22774   0.25000   0.00000  Uiso   1.00
O200   O     0.77613   0.16666   0.32681   0.00000  Uiso   1.00
O201   O     0.85258   0.16665   0.32681   0.00000  Uiso   1.00
O202   O     0.79510   0.10559   0.24999   0.00000  Uiso   1.00
O203   O     0.87154   0.10558   0.24999   0.00000  Uiso   1.00
O204   O     0.81409   0.16668   0.17319   0.00000  Uiso   1.00
O205   O     0.89053   0.16667   0.17319   0.00000  Uiso   1.00
Zn206  Zn    0.78229   0.16667   0.25000   0.00000  Uiso   1.00
Zn207  Zn    0.88438   0.16666   0.25000   0.00000  Uiso   1.00
F208   F     0.94898   0.13077   0.09095   0.00000  Uiso   1.00
N209   N     0.89043   0.04066   0.30044   0.00000  Uiso   1.00
H210   H     0.88431   0.02931   0.33838   0.00000  Uiso   1.00
C211   C     0.94047   0.04211   0.27187   0.00000  Uiso   1.00
H212   H     0.95585   0.01066   0.26934   0.00000  Uiso   1.00
H213   H     0.95870   0.06279   0.29303   0.00000  Uiso   1.00
H214   H     0.94651   0.05435   0.23121   0.00000  Uiso   1.00
N215   N     0.77446   0.04075   0.19960   0.00000  Uiso   1.00
H216   H     0.78033   0.03176   0.16077   0.00000  Uiso   1.00
C217   C     0.72483   0.03763   0.23002   0.00000  Uiso   1.00
H218   H     0.71321   0.00471   0.23582   0.00000  Uiso   1.00
H219   H     0.70312   0.05317   0.20846   0.00000  Uiso   1.00
H220   H     0.71840   0.05274   0.26925   0.00000  Uiso   1.00
F221   F     0.97348   0.12127   0.17734   0.00000  Uiso   1.00
F222   F     0.73353   0.12294   0.17684   0.00000  Uiso   1.00
F223   F     0.69424   0.20838   0.32539   0.00000  Uiso   1.00
N224   N     0.93134   0.20953   0.32847   0.00000  Uiso   1.00
H225   H     0.92121   0.19301   0.36346   0.00000  Uiso   1.00
C226   C     0.94054   0.25267   0.33675   0.00000  Uiso   1.00
H227   H     0.96526   0.25586   0.36056   0.00000  Uiso   1.00
H228   H     0.90689   0.26753   0.35969   0.00000  Uiso   1.00
H229   H     0.95542   0.26897   0.29823   0.00000  Uiso   1.00
F230   F     0.80027   0.18467   0.08645   0.00000  Uiso   1.00
N231   N     0.70673   0.15185   0.41068   0.00000  Uiso   1.00
H232   H     0.67514   0.16497   0.43250   0.00000  Uiso   1.00
C233   C     0.69985   0.11248   0.38759   0.00000  Uiso   1.00
H234   H     0.67621   0.11674   0.36272   0.00000  Uiso   1.00
H235   H     0.68396   0.08940   0.41915   0.00000  Uiso   1.00
H236   H     0.73392   0.09994   0.36186   0.00000  Uiso   1.00
N237   N     0.74430   0.12518   0.07084   0.00000  Uiso   1.00
H238   H     0.71152   0.13633   0.09225   0.00000  Uiso   1.00
C239   C     0.74587   0.08036   0.07216   0.00000  Uiso   1.00
H240   H     0.78311   0.06961   0.05738   0.00000  Uiso   1.00
H241   H     0.72521   0.06671   0.04754   0.00000  Uiso   1.00
H242   H     0.73005   0.06897   0.11325   0.00000  Uiso   1.00
F243   F     0.87960   0.10598   0.35925   0.00000  Uiso   1.00
C244   C     0.16710   0.57977   0.24881   0.00000  Uiso   1.00
C245   C     0.14331   0.47543   0.49031   0.00000  Uiso   1.00
C246   C     0.15722   0.47215   0.43469   0.00000  Uiso   1.00
C247   C     0.17900   0.47546   0.01553   0.00000  Uiso   1.00
C248   C     0.22392   0.45893   0.48877   0.00000  Uiso   1.00
C249   C     0.23376   0.44617   0.43651   0.00000  Uiso   1.00
C250   C     0.20178   0.45408   0.40903   0.00000  Uiso   1.00
C251   C     0.17207   0.49374   0.06517   0.00000  Uiso   1.00
C252   C     0.24929   0.47004   0.06604   0.00000  Uiso   1.00
C253   C     0.12452   0.48369   0.40790   0.00000  Uiso   1.00
C254   C     0.19553   0.64453   0.27222   0.00000  Uiso   1.00
C255   C     0.14084   0.49521   0.35117   0.00000  Uiso   1.00
C256   C     0.19588   0.35365   0.27291   0.00000  Uiso   1.00
C257   C     0.16661   0.37531   0.24899   0.00000  Uiso   1.00
C258   C     0.13796   0.35355   0.22383   0.00000  Uiso   1.00
C259   C     0.13948   0.64416   0.22247   0.00000  Uiso   1.00
C260   C     0.16764   0.62352   0.24734   0.00000  Uiso   1.00
C261   C     0.31943   0.47782   0.21334   0.00000  Uiso   1.00
C262   C     0.03396   0.47817   0.21323   0.00000  Uiso   1.00
C263   C     0.01424   0.52146   0.28747   0.00000  Uiso   1.00
C264   C     0.29944   0.52198   0.28749   0.00000  Uiso   1.00
C265   C     0.16654   0.41985   0.24983   0.00000  Uiso   1.00
C266   C     0.19235   0.49895   0.14827   0.00000  Uiso   1.00
C267   C     0.25826   0.45539   0.01463   0.00000  Uiso   1.00
C268   C     0.20616   0.48952   0.09160   0.00000  Uiso   1.00
C269   C     0.07553   0.48465   0.43673   0.00000  Uiso   1.00
C270   C     0.06125   0.48046   0.49157   0.00000  Uiso   1.00
C271   C     0.09427   0.47482   0.01859   0.00000  Uiso   1.00
H272   H     0.11819   0.62712   0.20262   0.00000  Uiso   1.00
H273   H     0.26671   0.43101   0.41629   0.00000  Uiso   1.00
H274   H     0.29177   0.44074   0.49543   0.00000  Uiso   1.00
H275   H     0.02387   0.47865   0.01308   0.00000  Uiso   1.00
H276   H     0.21660   0.62796   0.29195   0.00000  Uiso   1.00
N277   N     0.04760   0.50001   0.25001   0.00000  Uiso   1.00
N278   N     0.28573   0.49998   0.25000   0.00000  Uiso   1.00
O279   O     0.12846   0.56108   0.25000   0.00000  Uiso   1.00
O280   O     0.20490   0.56107   0.25000   0.00000  Uiso   1.00
O281   O     0.10947   0.50000   0.32681   0.00000  Uiso   1.00
O282   O     0.18591   0.49999   0.32681   0.00000  Uiso   1.00
O283   O     0.12843   0.43893   0.24999   0.00000  Uiso   1.00
O284   O     0.20488   0.43892   0.24999   0.00000  Uiso   1.00
O285   O     0.14742   0.50001   0.17319   0.00000  Uiso   1.00
O286   O     0.22387   0.50000   0.17319   0.00000  Uiso   1.00
Zn287  Zn    0.11562   0.50001   0.25000   0.00000  Uiso   1.00
Zn288  Zn    0.21771   0.49999   0.25000   0.00000  Uiso   1.00
F289   F     0.28232   0.46411   0.09095   0.00000  Uiso   1.00
N290   N     0.22376   0.37399   0.30044   0.00000  Uiso   1.00
H291   H     0.21764   0.36264   0.33838   0.00000  Uiso   1.00
C292   C     0.27381   0.37544   0.27187   0.00000  Uiso   1.00
H293   H     0.28918   0.34400   0.26934   0.00000  Uiso   1.00
H294   H     0.29203   0.39613   0.29303   0.00000  Uiso   1.00
H295   H     0.27984   0.38769   0.23121   0.00000  Uiso   1.00
N296   N     0.10779   0.37408   0.19960   0.00000  Uiso   1.00
H297   H     0.11367   0.36509   0.16077   0.00000  Uiso   1.00
C298   C     0.05816   0.37097   0.23002   0.00000  Uiso   1.00
H299   H     0.04654   0.33804   0.23582   0.00000  Uiso   1.00
H300   H     0.03645   0.38650   0.20846   0.00000  Uiso   1.00
H301   H     0.05174   0.38607   0.26925   0.00000  Uiso   1.00
F302   F     0.30681   0.45460   0.17734   0.00000  Uiso   1.00
F303   F     0.06687   0.45627   0.17684   0.00000  Uiso   1.00
F304   F     0.02757   0.54171   0.32539   0.00000  Uiso   1.00
N305   N     0.26467   0.54286   0.32847   0.00000  Uiso   1.00
H306   H     0.25454   0.52634   0.36346   0.00000  Uiso   1.00
C307   C     0.27388   0.58601   0.33675   0.00000  Uiso   1.00
H308   H     0.29859   0.58919   0.36056   0.00000  Uiso   1.00
H309   H     0.24022   0.60086   0.35969   0.00000  Uiso   1.00
H310   H     0.28876   0.60231   0.29823   0.00000  Uiso   1.00
F311   F     0.13361   0.51801   0.08645   0.00000  Uiso   1.00
N312   N     0.04006   0.48519   0.41068   0.00000  Uiso   1.00
H313   H     0.00847   0.49830   0.43250   0.00000  Uiso   1.00
C314   C     0.03318   0.44581   0.38759   0.00000  Uiso   1.00
H315   H     0.00954   0.45007   0.36272   0.00000  Uiso   1.00
H316   H     0.01730   0.42273   0.41915   0.00000  Uiso   1.00
H317   H     0.06725   0.43327   0.36186   0.00000  Uiso   1.00
N318   N     0.07764   0.45851   0.07084   0.00000  Uiso   1.00
H319   H     0.04486   0.46967   0.09225   0.00000  Uiso   1.00
C320   C     0.07920   0.41370   0.07216   0.00000  Uiso   1.00
H321   H     0.11645   0.40294   0.05738   0.00000  Uiso   1.00
H322   H     0.05854   0.40004   0.04754   0.00000  Uiso   1.00
H323   H     0.06338   0.40230   0.11325   0.00000  Uiso   1.00
F324   F     0.21293   0.43931   0.35925   0.00000  Uiso   1.00
C325   C     0.50043   0.57977   0.24881   0.00000  Uiso   1.00
C326   C     0.47664   0.47543   0.49031   0.00000  Uiso   1.00
C327   C     0.49055   0.47215   0.43469   0.00000  Uiso   1.00
C328   C     0.51233   0.47546   0.01553   0.00000  Uiso   1.00
C329   C     0.55726   0.45893   0.48877   0.00000  Uiso   1.00
C330   C     0.56709   0.44617   0.43651   0.00000  Uiso   1.00
C331   C     0.53511   0.45408   0.40903   0.00000  Uiso   1.00
C332   C     0.50540   0.49374   0.06517   0.00000  Uiso   1.00
C333   C     0.58263   0.47004   0.06604   0.00000  Uiso   1.00
C334   C     0.45786   0.48369   0.40790   0.00000  Uiso   1.00
C335   C     0.52886   0.64453   0.27222   0.00000  Uiso   1.00
C336   C     0.47418   0.49521   0.35117   0.00000  Uiso   1.00
C337   C     0.52921   0.35365   0.27291   0.00000  Uiso   1.00
C338   C     0.49995   0.37531   0.24899   0.00000  Uiso   1.00
C339   C     0.47129   0.35355   0.22383   0.00000  Uiso   1.00
C340   C     0.47282   0.64416   0.22247   0.00000  Uiso   1.00
C341   C     0.50097   0.62352   0.24734   0.00000  Uiso   1.00
C342   C     0.65276   0.47782   0.21334   0.00000  Uiso   1.00
C343   C     0.36729   0.47817   0.21323   0.00000  Uiso   1.00
C344   C     0.34757   0.52146   0.28747   0.00000  Uiso   1.00
C345   C     0.63277   0.52198   0.28749   0.00000  Uiso   1.00
C346   C     0.49987   0.41985   0.24983   0.00000  Uiso   1.00
C347   C     0.52569   0.49895   0.14827   0.00000  Uiso   1.00
C348   C     0.59160   0.45539   0.01463   0.00000  Uiso   1.00
C349   C     0.53949   0.48952   0.09160   0.00000  Uiso   1.00
C350   C     0.40886   0.48465   0.43673   0.00000  Uiso   1.00
C351   C     0.39458   0.48046   0.49157   0.00000  Uiso   1.00
C352   C     0.42760   0.47482   0.01859   0.00000  Uiso   1.00
H353   H     0.45152   0.62712   0.20262   0.00000  Uiso   1.00
H354   H     0.60005   0.43101   0.41629   0.00000  Uiso   1.00
H355   H     0.62510   0.44074   0.49543   0.00000  Uiso   1.00
H356   H     0.35721   0.47865   0.01308   0.00000  Uiso   1.00
H357   H     0.54993   0.62796   0.29195   0.00000  Uiso   1.00
N358   N     0.38093   0.50001   0.25001   0.00000  Uiso   1.00
N359   N     0.61906   0.49998   0.25000   0.00000  Uiso   1.00
O360   O     0.46179   0.56108   0.25000   0.00000  Uiso   1.00
O361   O     0.53823   0.56107   0.25000   0.00000  Uiso   1.00
O362   O     0.44280   0.50000   0.32681   0.00000  Uiso   1.00
O363   O     0.51924   0.49999   0.32681   0.00000  Uiso   1.00
O364   O     0.46177   0.43893   0.24999   0.00000  Uiso   1.00
O365   O     0.53821   0.43892   0.24999   0.00000  Uiso   1.00
O366   O     0.48076   0.50001   0.17319   0.00000  Uiso   1.00
O367   O     0.55720   0.50000   0.17319   0.00000  Uiso   1.00
Zn368  Zn    0.44896   0.50001   0.25000   0.00000  Uiso   1.00
Zn369  Zn    0.55104   0.49999   0.25000   0.00000  Uiso   1.00
F370   F     0.61565   0.46411   0.09095   0.00000  Uiso   1.00
N371   N     0.55709   0.37399   0.30044   0.00000  Uiso   1.00
H372   H     0.55097   0.36264   0.33838   0.00000  Uiso   1.00
C373   C     0.60714   0.37544   0.27187   0.00000  Uiso   1.00
H374   H     0.62252   0.34400   0.26934   0.00000  Uiso   1.00
H375   H     0.62537   0.39613   0.29303   0.00000  Uiso   1.00
H376   H     0.61317   0.38769   0.23121   0.00000  Uiso   1.00
N377   N     0.44112   0.37408   0.19960   0.00000  Uiso   1.00
H378   H     0.44700   0.36509   0.16077   0.00000  Uiso   1.00
C379   C     0.39150   0.37097   0.23002   0.00000  Uiso   1.00
H380   H     0.37988   0.33804   0.23582   0.00000  Uiso   1.00
H381   H     0.36979   0.38650   0.20846   0.00000  Uiso   1.00
H382   H     0.38507   0.38607   0.26925   0.00000  Uiso   1.00
F383   F     0.64014   0.45460   0.17734   0.00000  Uiso   1.00
F384   F     0.40020   0.45627   0.17684   0.00000  Uiso   1.00
F385   F     0.36090   0.54171   0.32539   0.00000  Uiso   1.00
N386   N     0.59801   0.54286   0.32847   0.00000  Uiso   1.00
H387   H     0.58788   0.52634   0.36346   0.00000  Uiso   1.00
C388   C     0.60721   0.58601   0.33675   0.00000  Uiso   1.00
H389   H     0.63192   0.58919   0.36056   0.00000  Uiso   1.00
H390   H     0.57356   0.60086   0.35969   0.00000  Uiso   1.00
H391   H     0.62209   0.60231   0.29823   0.00000  Uiso   1.00
F392   F     0.46694   0.51801   0.08645   0.00000  Uiso   1.00
N393   N     0.37339   0.48519   0.41068   0.00000  Uiso   1.00
H394   H     0.34180   0.49830   0.43250   0.00000  Uiso   1.00
C395   C     0.36651   0.44581   0.38759   0.00000  Uiso   1.00
H396   H     0.34288   0.45007   0.36272   0.00000  Uiso   1.00
H397   H     0.35063   0.42273   0.41915   0.00000  Uiso   1.00
H398   H     0.40059   0.43327   0.36186   0.00000  Uiso   1.00
N399   N     0.41097   0.45851   0.07084   0.00000  Uiso   1.00
H400   H     0.37819   0.46967   0.09225   0.00000  Uiso   1.00
C401   C     0.41254   0.41370   0.07216   0.00000  Uiso   1.00
H402   H     0.44978   0.40294   0.05738   0.00000  Uiso   1.00
H403   H     0.39188   0.40004   0.04754   0.00000  Uiso   1.00
H404   H     0.39671   0.40230   0.11325   0.00000  Uiso   1.00
F405   F     0.54626   0.43931   0.35925   0.00000  Uiso   1.00
C406   C     0.83376   0.57977   0.24881   0.00000  Uiso   1.00
C407   C     0.80998   0.47543   0.49031   0.00000  Uiso   1.00
C408   C     0.82388   0.47215   0.43469   0.00000  Uiso   1.00
C409   C     0.84566   0.47546   0.01553   0.00000  Uiso   1.00
C410   C     0.89059   0.45893   0.48877   0.00000  Uiso   1.00
C411   C     0.90043   0.44617   0.43651   0.00000  Uiso   1.00
C412   C     0.86845   0.45408   0.40903   0.00000  Uiso   1.00
C413   C     0.83873   0.49374   0.06517   0.00000  Uiso   1.00
C414   C     0.91596   0.47004   0.06604   0.00000  Uiso   1.00
C415   C     0.79119   0.48369   0.40790   0.00000  Uiso   1.00
C416   C     0.86220   0.64453   0.27222   0.00000  Uiso   1.00
C417   C     0.80751   0.49521   0.35117   0.00000  Uiso   1.00
C418   C     0.86255   0.35365   0.27291   0.00000  Uiso   1.00
C419   C     0.83328   0.37531   0.24899   0.00000  Uiso   1.00
C420   C     0.80462   0.35355   0.22383   0.00000  Uiso   1.00
C421   C     0.80615   0.64416   0.22247   0.00000  Uiso   1.00
C422   C     0.83430   0.62352   0.24734   0.00000  Uiso   1.00
C423   C     0.98609   0.47782   0.21334   0.00000  Uiso   1.00
C424   C     0.70063   0.47817   0.21323   0.00000  Uiso   1.00
C425   C     0.68091   0.52146   0.28747   0.00000  Uiso   1.00
C426   C     0.96610   0.52198   0.28749   0.00000  Uiso   1.00
C427   C     0.83320   0.41985   0.24983   0.00000  Uiso   1.00
C428   C     0.85902   0.49895   0.14827   0.00000  Uiso   1.00
C429   C     0.92493   0.45539   0.01463   0.00000  Uiso   1.00
C430   C     0.87282   0.48952   0.09160   0.00000  Uiso   1.00
C431   C     0.74219   0.48465   0.43673   0.00000  Uiso   1.00
C432   C     0.72791   0.48046   0.49157   0.00000  Uiso   1.00
C433   C     0.76094   0.47482   0.01859   0.00000  Uiso   1.00
H434   H     0.78486   0.62712   0.20262   0.00000  Uiso   1.00
H435   H     0.93338   0.43101   0.41629   0.00000  Uiso   1.00
H436   H     0.95843   0.44074   0.49543   0.00000  Uiso   1.00
H437   H     0.69054   0.47865   0.01308   0.00000  Uiso   1.00
H438   H     0.88326   0.62796   0.29195   0.00000  Uiso   1.00
N439   N     0.71426   0.50001   0.25001   0.00000  Uiso   1.00
N440   N     0.95239   0.49998   0.25000   0.00000  Uiso   1.00
O441   O     0.79512   0.56108   0.25000   0.00000  Uiso   1.00
O442   O     0.87157   0.56107   0.25000   0.00000  Uiso   1.00
O443   O     0.77613   0.50000   0.32681   0.00000  Uiso   1.00
O444   O     0.85258   0.49999   0.32681   0.00000  Uiso   1.00
O445   O     0.79510   0.43893   0.24999   0.00000  Uiso   1.00
O446   O     0.87154   0.43892   0.24999   0.00000  Uiso   1.00
O447   O     0.81409   0.50001   0.17319   0.00000  Uiso   1.00
O448   O     0.89053   0.50000   0.17319   0.00000  Uiso   1.00
Zn449  Zn    0.78229   0.50001   0.25000   0.00000  Uiso   1.00
Zn450  Zn    0.88438   0.49999   0.25000   0.00000  Uiso   1.00
F451   F     0.94898   0.46411   0.09095   0.00000  Uiso   1.00
N452   N     0.89043   0.37399   0.30044   0.00000  Uiso   1.00
H453   H     0.88431   0.36264   0.33838   0.00000  Uiso   1.00
C454   C     0.94047   0.37544   0.27187   0.00000  Uiso   1.00
H455   H     0.95585   0.34400   0.26934   0.00000  Uiso   1.00
H456   H     0.95870   0.39613   0.29303   0.00000  Uiso   1.00
H457   H     0.94651   0.38769   0.23121   0.00000  Uiso   1.00
N458   N     0.77446   0.37408   0.19960   0.00000  Uiso   1.00
H459   H     0.78033   0.36509   0.16077   0.00000  Uiso   1.00
C460   C     0.72483   0.37097   0.23002   0.00000  Uiso   1.00
H461   H     0.71321   0.33804   0.23582   0.00000  Uiso   1.00
H462   H     0.70312   0.38650   0.20846   0.00000  Uiso   1.00
H463   H     0.71840   0.38607   0.26925   0.00000  Uiso   1.00
F464   F     0.97348   0.45460   0.17734   0.00000  Uiso   1.00
F465   F     0.73353   0.45627   0.17684   0.00000  Uiso   1.00
F466   F     0.69424   0.54171   0.32539   0.00000  Uiso   1.00
N467   N     0.93134   0.54286   0.32847   0.00000  Uiso   1.00
H468   H     0.92121   0.52634   0.36346   0.00000  Uiso   1.00
C469   C     0.94054   0.58601   0.33675   0.00000  Uiso   1.00
H470   H     0.96526   0.58919   0.36056   0.00000  Uiso   1.00
H471   H     0.90689   0.60086   0.35969   0.00000  Uiso   1.00
H472   H     0.95542   0.60231   0.29823   0.00000  Uiso   1.00
F473   F     0.80027   0.51801   0.08645   0.00000  Uiso   1.00
N474   N     0.70673   0.48519   0.41068   0.00000  Uiso   1.00
H475   H     0.67514   0.49830   0.43250   0.00000  Uiso   1.00
C476   C     0.69985   0.44581   0.38759   0.00000  Uiso   1.00
H477   H     0.67621   0.45007   0.36272   0.00000  Uiso   1.00
H478   H     0.68396   0.42273   0.41915   0.00000  Uiso   1.00
H479   H     0.73392   0.43327   0.36186   0.00000  Uiso   1.00
N480   N     0.74430   0.45851   0.07084   0.00000  Uiso   1.00
H481   H     0.71152   0.46967   0.09225   0.00000  Uiso   1.00
C482   C     0.74587   0.41370   0.07216   0.00000  Uiso   1.00
H483   H     0.78311   0.40294   0.05738   0.00000  Uiso   1.00
H484   H     0.72521   0.40004   0.04754   0.00000  Uiso   1.00
H485   H     0.73005   0.40230   0.11325   0.00000  Uiso   1.00
F486   F     0.87960   0.43931   0.35925   0.00000  Uiso   1.00
C487   C     0.16710   0.91310   0.24881   0.00000  Uiso   1.00
C488   C     0.14331   0.80876   0.49031   0.00000  Uiso   1.00
C489   C     0.15722   0.80549   0.43469   0.00000  Uiso   1.00
C490   C     0.17900   0.80880   0.01553   0.00000  Uiso   1.00
C491   C     0.22392   0.79226   0.48877   0.00000  Uiso   1.00
C492   C     0.23376   0.77951   0.43651   0.00000  Uiso   1.00
C493   C     0.20178   0.78741   0.40903   0.00000  Uiso   1.00
C494   C     0.17207   0.82708   0.06517   0.00000  Uiso   1.00
C495   C     0.24929   0.80337   0.06604   0.00000  Uiso   1.00
C496   C     0.12452   0.81703   0.40790   0.00000  Uiso   1.00
C497   C     0.19553   0.97786   0.27222   0.00000  Uiso   1.00
C498   C     0.14084   0.82854   0.35117   0.00000  Uiso   1.00
C499   C     0.19588   0.68698   0.27291   0.00000  Uiso   1.00
C500   C     0.16661   0.70864   0.24899   0.00000  Uiso   1.00
C501   C     0.13796   0.68688   0.22383   0.00000  Uiso   1.00
C502   C     0.13948   0.97749   0.22247   0.00000  Uiso   1.00
C503   C     0.16764   0.95685   0.24734   0.00000  Uiso   1.00
C504   C     0.31943   0.81115   0.21334   0.00000  Uiso   1.00
C505   C     0.03396   0.81151   0.21323   0.00000  Uiso   1.00
C506   C     0.01424   0.85480   0.28747   0.00000  Uiso   1.00
C507   C     0.29944   0.85531   0.28749   0.00000  Uiso   1.00
C508   C     0.16654   0.75319   0.24983   0.00000  Uiso   1.00
C509   C     0.19235   0.83228   0.14827   0.00000  Uiso   1.00
C510   C     0.25826   0.78872   0.01463   0.00000  Uiso   1.00
C511   C     0.20616   0.82286   0.09160   0.00000  Uiso   1.00
C512   C     0.07553   0.81798   0.43673   0.00000  Uiso   1.00
C513   C     0.06125   0.81380   0.49157   0.00000  Uiso   1.00
C514   C     0.09427   0.80815   0.01859   0.00000  Uiso   1.00
H515   H     0.11819   0.96046   0.20262   0.00000  Uiso   1.00
H516   H     0.26671   0.76434   0.41629   0.00000  Uiso   1.00
H517   H     0.29177   0.77407   0.49543   0.00000  Uiso   1.00
H518   H     0.02387   0.81198   0.01308   0.00000  Uiso   1.00
H519   H     0.21660   0.96129   0.29195   0.00000  Uiso   1.00
N520   N     0.04760   0.83334   0.25001   0.00000  Uiso   1.00
N521   N     0.28573   0.83331   0.25000   0.00000  Uiso   1.00
O522   O     0.12846   0.89442   0.25000   0.00000  Uiso   1.00
O523   O     0.20490   0.89441   0.25000   0.00000  Uiso   1.00
O524   O     0.10947   0.83333   0.32681   0.00000  Uiso   1.00
O525   O     0.18591   0.83332   0.32681   0.00000  Uiso   1.00
O526   O     0.12843   0.77226   0.24999   0.00000  Uiso   1.00
O527   O     0.20488   0.77225   0.24999   0.00000  Uiso   1.00
O528   O     0.14742   0.83335   0.17319   0.00000  Uiso   1.00
O529   O     0.22387   0.83334   0.17319   0.00000  Uiso   1.00
Zn530  Zn    0.11562   0.83334   0.25000   0.00000  Uiso   1.00
Zn531  Zn    0.21771   0.83333   0.25000   0.00000  Uiso   1.00
F532   F     0.28232   0.79744   0.09095   0.00000  Uiso   1.00
N533   N     0.22376   0.70732   0.30044   0.00000  Uiso   1.00
H534   H     0.21764   0.69597   0.33838   0.00000  Uiso   1.00
C535   C     0.27381   0.70877   0.27187   0.00000  Uiso   1.00
H536   H     0.28918   0.67733   0.26934   0.00000  Uiso   1.00
H537   H     0.29203   0.72946   0.29303   0.00000  Uiso   1.00
H538   H     0.27984   0.72102   0.23121   0.00000  Uiso   1.00
N539   N     0.10779   0.70742   0.19960   0.00000  Uiso   1.00
H540   H     0.11367   0.69843   0.16077   0.00000  Uiso   1.00
C541   C     0.05816   0.70430   0.23002   0.00000  Uiso   1.00
H542   H     0.04654   0.67138   0.23582   0.00000  Uiso   1.00
H543   H     0.03645   0.71984   0.20846   0.00000  Uiso   1.00
H544   H     0.05174   0.71941   0.26925   0.00000  Uiso   1.00
F545   F     0.30681   0.78793   0.17734   0.00000  Uiso   1.00
F546   F     0.06687   0.78961   0.17684   0.00000  Uiso   1.00
F547   F     0.02757   0.87505   0.32539   0.00000  Uiso   1.00
N548   N     0.26467   0.87619   0.32847   0.00000  Uiso   1.00
H549   H     0.25454   0.85967   0.36346   0.00000  Uiso   1.00
C550   C     0.27388   0.91934   0.33675   0.00000  Uiso   1.00
H551   H     0.29859   0.92252   0.36056   0.00000  Uiso   1.00
H552   H     0.24022   0.93420   0.35969   0.00000  Uiso   1.00
H553   H     0.28876   0.93564   0.29823   0.00000  Uiso   1.00
F554   F     0.13361   0.85134   0.08645   0.00000  Uiso   1.00
N555   N     0.04006   0.81852   0.41068   0.00000  Uiso   1.00
H556   H     0.00847   0.83164   0.43250   0.00000  Uiso   1.00
C557   C     0.03318   0.77914   0.38759   0.00000  Uiso   1.00
H558   H     0.00954   0.78340   0.36272   0.00000  Uiso   1.00
H559   H     0.01730   0.75607   0.41915   0.00000  Uiso   1.00
H560   H     0.06725   0.76660   0.36186   0.00000  Uiso   1.00
N561   N     0.07764   0.79185   0.07084   0.00000  Uiso   1.00
H562   H     0.04486   0.80300   0.09225   0.00000  Uiso   1.00
C563   C     0.07920   0.74703   0.07216   0.00000  Uiso   1.00
H564   H     0.11645   0.73628   0.05738   0.00000  Uiso   1.00
H565   H     0.05854   0.73338   0.04754   0.00000  Uiso   1.00
H566   H     0.06338   0.73563   0.11325   0.00000  Uiso   1.00
F567   F     0.21293   0.77265   0.35925   0.00000  Uiso   1.00
C568   C     0.50043   0.91310   0.24881   0.00000  Uiso   1.00
C569   C     0.47664   0.80876   0.49031   0.00000  Uiso   1.00
C570   C     0.49055   0.80549   0.43469   0.00000  Uiso   1.00
C571   C     0.51233   0.80880   0.01553   0.00000  Uiso   1.00
C572   C     0.55726   0.79226   0.48877   0.00000  Uiso   1.00
C573   C     0.56709   0.77951   0.43651   0.00000  Uiso   1.00
C574   C     0.53511   0.78741   0.40903   0.00000  Uiso   1.00
C575   C     0.50540   0.82708   0.06517   0.00000  Uiso   1.00
C576   C     0.58263   0.80337   0.06604   0.00000  Uiso   1.00
C577   C     0.45786   0.81703   0.40790   0.00000  Uiso   1.00
C578   C     0.52886   0.97786   0.27222   0.00000  Uiso   1.00
C579   C     0.47418   0.82854   0.35117   0.00000  Uiso   1.00
C580   C     0.52921   0.68698   0.27291   0.00000  Uiso   1.00
C581   C     0.49995   0.70864   0.24899   0.00000  Uiso   1.00
C582   C     0.47129   0.68688   0.22383   0.00000  Uiso   1.00
C583   C     0.47282   0.97749   0.22247   0.00000  Uiso   1.00
C584   C     0.50097   0.95685   0.24734   0.00000  Uiso   1.00
C585   C     0.65276   0.81115   0.21334   0.00000  Uiso   1.00
C586   C     0.36729   0.81151   0.21323   0.00000  Uiso   1.00
C587   C     0.34757   0.85480   0.28747   0.00000  Uiso   1.00
C588   C     0.63277   0.85531   0.28749   0.00000  Uiso   1.00
C589   C     0.49987   0.75319   0.24983   0.00000  Uiso   1.00
C590   C     0.52569   0.83228   0.14827   0.00000  Uiso   1.00
C591   C     0.59160   0.78872   0.01463   0.00000  Uiso   1.00
C592   C     0.53949   0.82286   0.09160   0.00000  Uiso   1.00
C593   C     0.40886   0.81798   0.43673   0.00000  Uiso   1.00
C594   C     0.39458   0.81380   0.49157   0.00000  Uiso   1.00
C595   C     0.42760   0.80815   0.01859   0.00000  Uiso   1.00
H596   H     0.45152   0.96046   0.20262   0.00000  Uiso   1.00
H597   H     0.60005   0.76434   0.41629   0.00000  Uiso   1.00
H598   H     0.62510   0.77407   0.49543   0.00000  Uiso   1.00
H599   H     0.35721   0.81198   0.01308   0.00000  Uiso   1.00
H600   H     0.54993   0.96129   0.29195   0.00000  Uiso   1.00
N601   N     0.38093   0.83334   0.25001   0.00000  Uiso   1.00
N602   N     0.61906   0.83331   0.25000   0.00000  Uiso   1.00
O603   O     0.46179   0.89442   0.25000   0.00000  Uiso   1.00
O604   O     0.53823   0.89441   0.25000   0.00000  Uiso   1.00
O605   O     0.44280   0.83333   0.32681   0.00000  Uiso   1.00
O606   O     0.51924   0.83332   0.32681   0.00000  Uiso   1.00
O607   O     0.46177   0.77226   0.24999   0.00000  Uiso   1.00
O608   O     0.53821   0.77225   0.24999   0.00000  Uiso   1.00
O609   O     0.48076   0.83335   0.17319   0.00000  Uiso   1.00
O610   O     0.55720   0.83334   0.17319   0.00000  Uiso   1.00
Zn611  Zn    0.44896   0.83334   0.25000   0.00000  Uiso   1.00
Zn612  Zn    0.55104   0.83333   0.25000   0.00000  Uiso   1.00
F613   F     0.61565   0.79744   0.09095   0.00000  Uiso   1.00
N614   N     0.55709   0.70732   0.30044   0.00000  Uiso   1.00
H615   H     0.55097   0.69597   0.33838   0.00000  Uiso   1.00
C616   C     0.60714   0.70877   0.27187   0.00000  Uiso   1.00
H617   H     0.62252   0.67733   0.26934   0.00000  Uiso   1.00
H618   H     0.62537   0.72946   0.29303   0.00000  Uiso   1.00
H619   H     0.61317   0.72102   0.23121   0.00000  Uiso   1.00
N620   N     0.44112   0.70742   0.19960   0.00000  Uiso   1.00
H621   H     0.44700   0.69843   0.16077   0.00000  Uiso   1.00
C622   C     0.39150   0.70430   0.23002   0.00000  Uiso   1.00
H623   H     0.37988   0.67138   0.23582   0.00000  Uiso   1.00
H624   H     0.36979   0.71984   0.20846   0.00000  Uiso   1.00
H625   H     0.38507   0.71941   0.26925   0.00000  Uiso   1.00
F626   F     0.64014   0.78793   0.17734   0.00000  Uiso   1.00
F627   F     0.40020   0.78961   0.17684   0.00000  Uiso   1.00
F628   F     0.36090   0.87505   0.32539   0.00000  Uiso   1.00
N629   N     0.59801   0.87619   0.32847   0.00000  Uiso   1.00
H630   H     0.58788   0.85967   0.36346   0.00000  Uiso   1.00
C631   C     0.60721   0.91934   0.33675   0.00000  Uiso   1.00
H632   H     0.63192   0.92252   0.36056   0.00000  Uiso   1.00
H633   H     0.57356   0.93420   0.35969   0.00000  Uiso   1.00
H634   H     0.62209   0.93564   0.29823   0.00000  Uiso   1.00
F635   F     0.46694   0.85134   0.08645   0.00000  Uiso   1.00
N636   N     0.37339   0.81852   0.41068   0.00000  Uiso   1.00
H637   H     0.34180   0.83164   0.43250   0.00000  Uiso   1.00
C638   C     0.36651   0.77914   0.38759   0.00000  Uiso   1.00
H639   H     0.34288   0.78340   0.36272   0.00000  Uiso   1.00
H640   H     0.35063   0.75607   0.41915   0.00000  Uiso   1.00
H641   H     0.40059   0.76660   0.36186   0.00000  Uiso   1.00
N642   N     0.41097   0.79185   0.07084   0.00000  Uiso   1.00
H643   H     0.37819   0.80300   0.09225   0.00000  Uiso   1.00
C644   C     0.41254   0.74703   0.07216   0.00000  Uiso   1.00
H645   H     0.44978   0.73628   0.05738   0.00000  Uiso   1.00
H646   H     0.39188   0.73338   0.04754   0.00000  Uiso   1.00
H647   H     0.39671   0.73563   0.11325   0.00000  Uiso   1.00
F648   F     0.54626   0.77265   0.35925   0.00000  Uiso   1.00
C649   C     0.83376   0.91310   0.24881   0.00000  Uiso   1.00
C650   C     0.80998   0.80876   0.49031   0.00000  Uiso   1.00
C651   C     0.82388   0.80549   0.43469   0.00000  Uiso   1.00
C652   C     0.84566   0.80880   0.01553   0.00000  Uiso   1.00
C653   C     0.89059   0.79226   0.48877   0.00000  Uiso   1.00
C654   C     0.90043   0.77951   0.43651   0.00000  Uiso   1.00
C655   C     0.86845   0.78741   0.40903   0.00000  Uiso   1.00
C656   C     0.83873   0.82708   0.06517   0.00000  Uiso   1.00
C657   C     0.91596   0.80337   0.06604   0.00000  Uiso   1.00
C658   C     0.79119   0.81703   0.40790   0.00000  Uiso   1.00
C659   C     0.86220   0.97786   0.27222   0.00000  Uiso   1.00
C660   C     0.80751   0.82854   0.35117   0.00000  Uiso   1.00
C661   C     0.86255   0.68698   0.27291   0.00000  Uiso   1.00
C662   C     0.83328   0.70864   0.24899   0.00000  Uiso   1.00
C663   C     0.80462   0.68688   0.22383   0.00000  Uiso   1.00
C664   C     0.80615   0.97749   0.22247   0.00000  Uiso   1.00
C665   C     0.83430   0.95685   0.24734   0.00000  Uiso   1.00
C666   C     0.98609   0.81115   0.21334   0.00000  Uiso   1.00
C667   C     0.70063   0.81151   0.21323   0.00000  Uiso   1.00
C668   C     0.68091   0.85480   0.28747   0.00000  Uiso   1.00
C669   C     0.96610   0.85531   0.28749   0.00000  Uiso   1.00
C670   C     0.83320   0.75319   0.24983   0.00000  Uiso   1.00
C671   C     0.85902   0.83228   0.14827   0.00000  Uiso   1.00
C672   C     0.92493   0.78872   0.01463   0.00000  Uiso   1.00
C673   C     0.87282   0.82286   0.09160   0.00000  Uiso   1.00
C674   C     0.74219   0.81798   0.43673   0.00000  Uiso   1.00
C675   C     0.72791   0.81380   0.49157   0.00000  Uiso   1.00
C676   C     0.76094   0.80815   0.01859   0.00000  Uiso   1.00
H677   H     0.78486   0.96046   0.20262   0.00000  Uiso   1.00
H678   H     0.93338   0.76434   0.41629   0.00000  Uiso   1.00
H679   H     0.95843   0.77407   0.49543   0.00000  Uiso   1.00
H680   H     0.69054   0.81198   0.01308   0.00000  Uiso   1.00
H681   H     0.88326   0.96129   0.29195   0.00000  Uiso   1.00
N682   N     0.71426   0.83334   0.25001   0.00000  Uiso   1.00
N683   N     0.95239   0.83331   0.25000   0.00000  Uiso   1.00
O684   O     0.79512   0.89442   0.25000   0.00000  Uiso   1.00
O685   O     0.87157   0.89441   0.25000   0.00000  Uiso   1.00
O686   O     0.77613   0.83333   0.32681   0.00000  Uiso   1.00
O687   O     0.85258   0.83332   0.32681   0.00000  Uiso   1.00
O688   O     0.79510   0.77226   0.24999   0.00000  Uiso   1.00
O689   O     0.87154   0.77225   0.24999   0.00000  Uiso   1.00
O690   O     0.81409   0.83335   0.17319   0.00000  Uiso   1.00
O691   O     0.89053   0.83334   0.17319   0.00000  Uiso   1.00
Zn692  Zn    0.78229   0.83334   0.25000   0.00000  Uiso   1.00
Zn693  Zn    0.88438   0.83333   0.25000   0.00000  Uiso   1.00
F694   F     0.94898   0.79744   0.09095   0.00000  Uiso   1.00
N695   N     0.89043   0.70732   0.30044   0.00000  Uiso   1.00
H696   H     0.88431   0.69597   0.33838   0.00000  Uiso   1.00
C697   C     0.94047   0.70877   0.27187   0.00000  Uiso   1.00
H698   H     0.95585   0.67733   0.26934   0.00000  Uiso   1.00
H699   H     0.95870   0.72946   0.29303   0.00000  Uiso   1.00
H700   H     0.94651   0.72102   0.23121   0.00000  Uiso   1.00
N701   N     0.77446   0.70742   0.19960   0.00000  Uiso   1.00
H702   H     0.78033   0.69843   0.16077   0.00000  Uiso   1.00
C703   C     0.72483   0.70430   0.23002   0.00000  Uiso   1.00
H704   H     0.71321   0.67138   0.23582   0.00000  Uiso   1.00
H705   H     0.70312   0.71984   0.20846   0.00000  Uiso   1.00
H706   H     0.71840   0.71941   0.26925   0.00000  Uiso   1.00
F707   F     0.97348   0.78793   0.17734   0.00000  Uiso   1.00
F708   F     0.73353   0.78961   0.17684   0.00000  Uiso   1.00
F709   F     0.69424   0.87505   0.32539   0.00000  Uiso   1.00
N710   N     0.93134   0.87619   0.32847   0.00000  Uiso   1.00
H711   H     0.92121   0.85967   0.36346   0.00000  Uiso   1.00
C712   C     0.94054   0.91934   0.33675   0.00000  Uiso   1.00
H713   H     0.96526   0.92252   0.36056   0.00000  Uiso   1.00
H714   H     0.90689   0.93420   0.35969   0.00000  Uiso   1.00
H715   H     0.95542   0.93564   0.29823   0.00000  Uiso   1.00
F716   F     0.80027   0.85134   0.08645   0.00000  Uiso   1.00
N717   N     0.70673   0.81852   0.41068   0.00000  Uiso   1.00
H718   H     0.67514   0.83164   0.43250   0.00000  Uiso   1.00
C719   C     0.69985   0.77914   0.38759   0.00000  Uiso   1.00
H720   H     0.67621   0.78340   0.36272   0.00000  Uiso   1.00
H721   H     0.68396   0.75607   0.41915   0.00000  Uiso   1.00
H722   H     0.73392   0.76660   0.36186   0.00000  Uiso   1.00
N723   N     0.74430   0.79185   0.07084   0.00000  Uiso   1.00
H724   H     0.71152   0.80300   0.09225   0.00000  Uiso   1.00
C725   C     0.74587   0.74703   0.07216   0.00000  Uiso   1.00
H726   H     0.78311   0.73628   0.05738   0.00000  Uiso   1.00
H727   H     0.72521   0.73338   0.04754   0.00000  Uiso   1.00
H728   H     0.73005   0.73563   0.11325   0.00000  Uiso   1.00
F729   F     0.87960   0.77265   0.35925   0.00000  Uiso   1.00
C730   C     0.16710   0.24643   0.74881   0.00000  Uiso   1.00
C731   C     0.14331   0.14210   0.99031   0.00000  Uiso   1.00
C732   C     0.15722   0.13882   0.93469   0.00000  Uiso   1.00
C733   C     0.17900   0.14213   0.51553   0.00000  Uiso   1.00
C734   C     0.22392   0.12560   0.98877   0.00000  Uiso   1.00
C735   C     0.23376   0.11284   0.93651   0.00000  Uiso   1.00
C736   C     0.20178   0.12074   0.90903   0.00000  Uiso   1.00
C737   C     0.17207   0.16041   0.56517   0.00000  Uiso   1.00
C738   C     0.24929   0.13670   0.56604   0.00000  Uiso   1.00
C739   C     0.12452   0.15036   0.90790   0.00000  Uiso   1.00
C740   C     0.19553   0.31120   0.77222   0.00000  Uiso   1.00
C741   C     0.14084   0.16187   0.85117   0.00000  Uiso   1.00
C742   C     0.19588   0.02031   0.77291   0.00000  Uiso   1.00
C743   C     0.16661   0.04197   0.74899   0.00000  Uiso   1.00
C744   C     0.13796   0.02022   0.72383   0.00000  Uiso   1.00
C745   C     0.13948   0.31082   0.72247   0.00000  Uiso   1.00
C746   C     0.16764   0.29019   0.74734   0.00000  Uiso   1.00
C747   C     0.31943   0.14449   0.71334   0.00000  Uiso   1.00
C748   C     0.03396   0.14484   0.71323   0.00000  Uiso   1.00
C749   C     0.01424   0.18813   0.78747   0.00000  Uiso   1.00
C750   C     0.29944   0.18865   0.78749   0.00000  Uiso   1.00
C751   C     0.16654   0.08652   0.74983   0.00000  Uiso   1.00
C752   C     0.19235   0.16561   0.64827   0.00000  Uiso   1.00
C753   C     0.25826   0.12206   0.51463   0.00000  Uiso   1.00
C754   C     0.20616   0.15619   0.59160   0.00000  Uiso   1.00
C755   C     0.07553   0.15132   0.93673   0.00000  Uiso   1.00
C756   C     0.06125   0.14713   0.99157   0.00000  Uiso   1.00
C757   C     0.09427   0.14148   0.51859   0.00000  Uiso   1.00
H758   H     0.11819   0.29379   0.70262   0.00000  Uiso   1.00
H759   H     0.26671   0.09768   0.91629   0.00000  Uiso   1.00
H760   H     0.29177   0.10741   0.99543   0.00000  Uiso   1.00
H761   H     0.02387   0.14532   0.51308   0.00000  Uiso   1.00
H762   H     0.21660   0.29463   0.79195   0.00000  Uiso   1.00
N763   N     0.04760   0.16668   0.75001   0.00000  Uiso   1.00
N764   N     0.28573   0.16665   0.75000   0.00000  Uiso   1.00
O765   O     0.12846   0.22775   0.75000   0.00000  Uiso   1.00
O766   O     0.20490   0.22774   0.75000   0.00000  Uiso   1.00
O767   O     0.10947   0.16666   0.82681   0.00000  Uiso   1.00
O768   O     0.18591   0.16665   0.82681   0.00000  Uiso   1.00
O769   O     0.12843   0.10559   0.74999   0.00000  Uiso   1.00
O770   O     0.20488   0.10558   0.74999   0.00000  Uiso   1.00
O771   O     0.14742   0.16668   0.67319   0.00000  Uiso   1.00
O772   O     0.22387   0.16667   0.67319   0.00000  Uiso   1.00
Zn773  Zn    0.11562   0.16667   0.75000   0.00000  Uiso   1.00
Zn774  Zn    0.21771   0.16666   0.75000   0.00000  Uiso   1.00
F775   F     0.28232   0.13077   0.59095   0.00000  Uiso   1.00
N776   N     0.22376   0.04066   0.80044   0.00000  Uiso   1.00
H777   H     0.21764   0.02931   0.83838   0.00000  Uiso   1.00
C778   C     0.27381   0.04211   0.77187   0.00000  Uiso   1.00
H779   H     0.28918   0.01066   0.76934   0.00000  Uiso   1.00
H780   H     0.29203   0.06279   0.79303   0.00000  Uiso   1.00
H781   H     0.27984   0.05435   0.73121   0.00000  Uiso   1.00
N782   N     0.10779   0.04075   0.69960   0.00000  Uiso   1.00
H783   H     0.11367   0.03176   0.66077   0.00000  Uiso   1.00
C784   C     0.05816   0.03763   0.73002   0.00000  Uiso   1.00
H785   H     0.04654   0.00471   0.73582   0.00000  Uiso   1.00
H786   H     0.03645   0.05317   0.70846   0.00000  Uiso   1.00
H787   H     0.05174   0.05274   0.76925   0.00000  Uiso   1.00
F788   F     0.30681   0.12127   0.67734   0.00000  Uiso   1.00
F789   F     0.06687   0.12294   0.67684   0.00000  Uiso   1.00
F790   F     0.02757   0.20838   0.82539   0.00000  Uiso   1.00
N791   N     0.26467   0.20953   0.82847   0.00000  Uiso   1.00
H792   H     0.25454   0.19301   0.86346   0.00000  Uiso   1.00
C793   C     0.27388   0.25267   0.83675   0.00000  Uiso   1.00
H794   H     0.29859   0.25586   0.86056   0.00000  Uiso   1.00
H795   H     0.24022   0.26753   0.85969   0.00000  Uiso   1.00
H796   H     0.28876   0.26897   0.79823   0.00000  Uiso   1.00
F797   F     0.13361   0.18467   0.58645   0.00000  Uiso   1.00
N798   N     0.04006   0.15185   0.91068   0.00000  Uiso   1.00
H799   H     0.00847   0.16497   0.93250   0.00000  Uiso   1.00
C800   C     0.03318   0.11248   0.88759   0.00000  Uiso   1.00
H801   H     0.00954   0.11674   0.86272   0.00000  Uiso   1.00
H802   H     0.01730   0.08940   0.91915   0.00000  Uiso   1.00
H803   H     0.06725   0.09994   0.86186   0.00000  Uiso   1.00
N804   N     0.07764   0.12518   0.57084   0.00000  Uiso   1.00
H805   H     0.04486   0.13633   0.59225   0.00000  Uiso   1.00
C806   C     0.07920   0.08036   0.57216   0.00000  Uiso   1.00
H807   H     0.11645   0.06961   0.55738   0.00000  Uiso   1.00
H808   H     0.05854   0.06671   0.54754   0.00000  Uiso   1.00
H809   H     0.06338   0.06897   0.61325   0.00000  Uiso   1.00
F810   F     0.21293   0.10598   0.85925   0.00000  Uiso   1.00
C811   C     0.50043   0.24643   0.74881   0.00000  Uiso   1.00
C812   C     0.47664   0.14210   0.99031   0.00000  Uiso   1.00
C813   C     0.49055   0.13882   0.93469   0.00000  Uiso   1.00
C814   C     0.51233   0.14213   0.51553   0.00000  Uiso   1.00
C815   C     0.55726   0.12560   0.98877   0.00000  Uiso   1.00
C816   C     0.56709   0.11284   0.93651   0.00000  Uiso   1.00
C817   C     0.53511   0.12074   0.90903   0.00000  Uiso   1.00
C818   C     0.50540   0.16041   0.56517   0.00000  Uiso   1.00
C819   C     0.58263   0.13670   0.56604   0.00000  Uiso   1.00
C820   C     0.45786   0.15036   0.90790   0.00000  Uiso   1.00
C821   C     0.52886   0.31120   0.77222   0.00000  Uiso   1.00
C822   C     0.47418   0.16187   0.85117   0.00000  Uiso   1.00
C823   C     0.52921   0.02031   0.77291   0.00000  Uiso   1.00
C824   C     0.49995   0.04197   0.74899   0.00000  Uiso   1.00
C825   C     0.47129   0.02022   0.72383   0.00000  Uiso   1.00
C826   C     0.47282   0.31082   0.72247   0.00000  Uiso   1.00
C827   C     0.50097   0.29019   0.74734   0.00000  Uiso   1.00
C828   C     0.65276   0.14449   0.71334   0.00000  Uiso   1.00
C829   C     0.36729   0.14484   0.71323   0.00000  Uiso   1.00
C830   C     0.34757   0.18813   0.78747   0.00000  Uiso   1.00
C831   C     0.63277   0.18865   0.78749   0.00000  Uiso   1.00
C832   C     0.49987   0.08652   0.74983   0.00000  Uiso   1.00
C833   C     0.52569   0.16561   0.64827   0.00000  Uiso   1.00
C834   C     0.59160   0.12206   0.51463   0.00000  Uiso   1.00
C835   C     0.53949   0.15619   0.59160   0.00000  Uiso   1.00
C836   C     0.40886   0.15132   0.93673   0.00000  Uiso   1.00
C837   C     0.39458   0.14713   0.99157   0.00000  Uiso   1.00
C838   C     0.42760   0.14148   0.51859   0.00000  Uiso   1.00
H839   H     0.45152   0.29379   0.70262   0.00000  Uiso   1.00
H840   H     0.60005   0.09768   0.91629   0.00000  Uiso   1.00
H841   H     0.62510   0.10741   0.99543   0.00000  Uiso   1.00
H842   H     0.35721   0.14532   0.51308   0.00000  Uiso   1.00
H843   H     0.54993   0.29463   0.79195   0.00000  Uiso   1.00
N844   N     0.38093   0.16668   0.75001   0.00000  Uiso   1.00
N845   N     0.61906   0.16665   0.75000   0.00000  Uiso   1.00
O846   O     0.46179   0.22775   0.75000   0.00000  Uiso   1.00
O847   O     0.53823   0.22774   0.75000   0.00000  Uiso   1.00
O848   O     0.44280   0.16666   0.82681   0.00000  Uiso   1.00
O849   O     0.51924   0.16665   0.82681   0.00000  Uiso   1.00
O850   O     0.46177   0.10559   0.74999   0.00000  Uiso   1.00
O851   O     0.53821   0.10558   0.74999   0.00000  Uiso   1.00
O852   O     0.48076   0.16668   0.67319   0.00000  Uiso   1.00
O853   O     0.55720   0.16667   0.67319   0.00000  Uiso   1.00
Zn854  Zn    0.44896   0.16667   0.75000   0.00000  Uiso   1.00
Zn855  Zn    0.55104   0.16666   0.75000   0.00000  Uiso   1.00
F856   F     0.61565   0.13077   0.59095   0.00000  Uiso   1.00
N857   N     0.55709   0.04066   0.80044   0.00000  Uiso   1.00
H858   H     0.55097   0.02931   0.83838   0.00000  Uiso   1.00
C859   C     0.60714   0.04211   0.77187   0.00000  Uiso   1.00
H860   H     0.62252   0.01066   0.76934   0.00000  Uiso   1.00
H861   H     0.62537   0.06279   0.79303   0.00000  Uiso   1.00
H862   H     0.61317   0.05435   0.73121   0.00000  Uiso   1.00
N863   N     0.44112   0.04075   0.69960   0.00000  Uiso   1.00
H864   H     0.44700   0.03176   0.66077   0.00000  Uiso   1.00
C865   C     0.39150   0.03763   0.73002   0.00000  Uiso   1.00
H866   H     0.37988   0.00471   0.73582   0.00000  Uiso   1.00
H867   H     0.36979   0.05317   0.70846   0.00000  Uiso   1.00
H868   H     0.38507   0.05274   0.76925   0.00000  Uiso   1.00
F869   F     0.64014   0.12127   0.67734   0.00000  Uiso   1.00
F870   F     0.40020   0.12294   0.67684   0.00000  Uiso   1.00
F871   F     0.36090   0.20838   0.82539   0.00000  Uiso   1.00
N872   N     0.59801   0.20953   0.82847   0.00000  Uiso   1.00
H873   H     0.58788   0.19301   0.86346   0.00000  Uiso   1.00
C874   C     0.60721   0.25267   0.83675   0.00000  Uiso   1.00
H875   H     0.63192   0.25586   0.86056   0.00000  Uiso   1.00
H876   H     0.57356   0.26753   0.85969   0.00000  Uiso   1.00
H877   H     0.62209   0.26897   0.79823   0.00000  Uiso   1.00
F878   F     0.46694   0.18467   0.58645   0.00000  Uiso   1.00
N879   N     0.37339   0.15185   0.91068   0.00000  Uiso   1.00
H880   H     0.34180   0.16497   0.93250   0.00000  Uiso   1.00
C881   C     0.36651   0.11248   0.88759   0.00000  Uiso   1.00
H882   H     0.34288   0.11674   0.86272   0.00000  Uiso   1.00
H883   H     0.35063   0.08940   0.91915   0.00000  Uiso   1.00
H884   H     0.40059   0.09994   0.86186   0.00000  Uiso   1.00
N885   N     0.41097   0.12518   0.57084   0.00000  Uiso   1.00
H886   H     0.37819   0.13633   0.59225   0.00000  Uiso   1.00
C887   C     0.41254   0.08036   0.57216   0.00000  Uiso   1.00
H888   H     0.44978   0.06961   0.55738   0.00000  Uiso   1.00
H889   H     0.39188   0.06671   0.54754   0.00000  Uiso   1.00
H890   H     0.39671   0.06897   0.61325   0.00000  Uiso   1.00
F891   F     0.54626   0.10598   0.85925   0.00000  Uiso   1.00
C892   C     0.83376   0.24643   0.74881   0.00000  Uiso   1.00
C893   C     0.80998   0.14210   0.99031   0.00000  Uiso   1.00
C894   C     0.82388   0.13882   0.93469   0.00000  Uiso   1.00
C895   C     0.84566   0.14213   0.51553   0.00000  Uiso   1.00
C896   C     0.89059   0.12560   0.98877   0.00000  Uiso   1.00
C897   C     0.90043   0.11284   0.93651   0.00000  Uiso   1.00
C898   C     0.86845   0.12074   0.90903   0.00000  Uiso   1.00
C899   C     0.83873   0.16041   0.56517   0.00000  Uiso   1.00
C900   C     0.91596   0.13670   0.56604   0.00000  Uiso   1.00
C901   C     0.79119   0.15036   0.90790   0.00000  Uiso   1.00
C902   C     0.86220   0.31120   0.77222   0.00000  Uiso   1.00
C903   C     0.80751   0.16187   0.85117   0.00000  Uiso   1.00
C904   C     0.86255   0.02031   0.77291   0.00000  Uiso   1.00
C905   C     0.83328   0.04197   0.74899   0.00000  Uiso   1.00
C906   C     0.80462   0.02022   0.72383   0.00000  Uiso   1.00
C907   C     0.80615   0.31082   0.72247   0.00000  Uiso   1.00
C908   C     0.83430   0.29019   0.74734   0.00000  Uiso   1.00
C909   C     0.98609   0.14449   0.71334   0.00000  Uiso   1.00
C910   C     0.70063   0.14484   0.71323   0.00000  Uiso   1.00
C911   C     0.68091   0.18813   0.78747   0.00000  Uiso   1.00
C912   C     0.96610   0.18865   0.78749   0.00000  Uiso   1.00
C913   C     0.83320   0.08652   0.74983   0.00000  Uiso   1.00
C914   C     0.85902   0.16561   0.64827   0.00000  Uiso   1.00
C915   C     0.92493   0.12206   0.51463   0.00000  Uiso   1.00
C916   C     0.87282   0.15619   0.59160   0.00000  Uiso   1.00
C917   C     0.74219   0.15132   0.93673   0.00000  Uiso   1.00
C918   C     0.72791   0.14713   0.99157   0.00000  Uiso   1.00
C919   C     0.76094   0.14148   0.51859   0.00000  Uiso   1.00
H920   H     0.78486   0.29379   0.70262   0.00000  Uiso   1.00
H921   H     0.93338   0.09768   0.91629   0.00000  Uiso   1.00
H922   H     0.95843   0.10741   0.99543   0.00000  Uiso   1.00
H923   H     0.69054   0.14532   0.51308   0.00000  Uiso   1.00
H924   H     0.88326   0.29463   0.79195   0.00000  Uiso   1.00
N925   N     0.71426   0.16668   0.75001   0.00000  Uiso   1.00
N926   N     0.95239   0.16665   0.75000   0.00000  Uiso   1.00
O927   O     0.79512   0.22775   0.75000   0.00000  Uiso   1.00
O928   O     0.87157   0.22774   0.75000   0.00000  Uiso   1.00
O929   O     0.77613   0.16666   0.82681   0.00000  Uiso   1.00
O930   O     0.85258   0.16665   0.82681   0.00000  Uiso   1.00
O931   O     0.79510   0.10559   0.74999   0.00000  Uiso   1.00
O932   O     0.87154   0.10558   0.74999   0.00000  Uiso   1.00
O933   O     0.81409   0.16668   0.67319   0.00000  Uiso   1.00
O934   O     0.89053   0.16667   0.67319   0.00000  Uiso   1.00
Zn935  Zn    0.78229   0.16667   0.75000   0.00000  Uiso   1.00
Zn936  Zn    0.88438   0.16666   0.75000   0.00000  Uiso   1.00
F937   F     0.94898   0.13077   0.59095   0.00000  Uiso   1.00
N938   N     0.89043   0.04066   0.80044   0.00000  Uiso   1.00
H939   H     0.88431   0.02931   0.83838   0.00000  Uiso   1.00
C940   C     0.94047   0.04211   0.77187   0.00000  Uiso   1.00
H941   H     0.95585   0.01066   0.76934   0.00000  Uiso   1.00
H942   H     0.95870   0.06279   0.79303   0.00000  Uiso   1.00
H943   H     0.94651   0.05435   0.73121   0.00000  Uiso   1.00
N944   N     0.77446   0.04075   0.69960   0.00000  Uiso   1.00
H945   H     0.78033   0.03176   0.66077   0.00000  Uiso   1.00
C946   C     0.72483   0.03763   0.73002   0.00000  Uiso   1.00
H947   H     0.71321   0.00471   0.73582   0.00000  Uiso   1.00
H948   H     0.70312   0.05317   0.70846   0.00000  Uiso   1.00
H949   H     0.71840   0.05274   0.76925   0.00000  Uiso   1.00
F950   F     0.97348   0.12127   0.67734   0.00000  Uiso   1.00
F951   F     0.73353   0.12294   0.67684   0.00000  Uiso   1.00
F952   F     0.69424   0.20838   0.82539   0.00000  Uiso   1.00
N953   N     0.93134   0.20953   0.82847   0.00000  Uiso   1.00
H954   H     0.92121   0.19301   0.86346   0.00000  Uiso   1.00
C955   C     0.94054   0.25267   0.83675   0.00000  Uiso   1.00
H956   H     0.96526   0.25586   0.86056   0.00000  Uiso   1.00
H957   H     0.90689   0.26753   0.85969   0.00000  Uiso   1.00
H958   H     0.95542   0.26897   0.79823   0.00000  Uiso   1.00
F959   F     0.80027   0.18467   0.58645   0.00000  Uiso   1.00
N960   N     0.70673   0.15185   0.91068   0.00000  Uiso   1.00
H961   H     0.67514   0.16497   0.93250   0.00000  Uiso   1.00
C962   C     0.69985   0.11248   0.88759   0.00000  Uiso   1.00
H963   H     0.67621   0.11674   0.86272   0.00000  Uiso   1.00
H964   H     0.68396   0.08940   0.91915   0.00000  Uiso   1.00
H965   H     0.73392   0.09994   0.86186   0.00000  Uiso   1.00
N966   N     0.74430   0.12518   0.57084   0.00000  Uiso   1.00
H967   H     0.71152   0.13633   0.59225   0.00000  Uiso   1.00
C968   C     0.74587   0.08036   0.57216   0.00000  Uiso   1.00
H969   H     0.78311   0.06961   0.55738   0.00000  Uiso   1.00
H970   H     0.72521   0.06671   0.54754   0.00000  Uiso   1.00
H971   H     0.73005   0.06897   0.61325   0.00000  Uiso   1.00
F972   F     0.87960   0.10598   0.85925   0.00000  Uiso   1.00
C973   C     0.16710   0.57977   0.74881   0.00000  Uiso   1.00
C974   C     0.14331   0.47543   0.99031   0.00000  Uiso   1.00
C975   C     0.15722   0.47215   0.93469   0.00000  Uiso   1.00
C976   C     0.17900   0.47546   0.51553   0.00000  Uiso   1.00
C977   C     0.22392   0.45893   0.98877   0.00000  Uiso   1.00
C978   C     0.23376   0.44617   0.93651   0.00000  Uiso   1.00
C979   C     0.20178   0.45408   0.90903   0.00000  Uiso   1.00
C980   C     0.17207   0.49374   0.56517   0.00000  Uiso   1.00
C981   C     0.24929   0.47004   0.56604   0.00000  Uiso   1.00
C982   C     0.12452   0.48369   0.90790   0.00000  Uiso   1.00
C983   C     0.19553   0.64453   0.77222   0.00000  Uiso   1.00
C984   C     0.14084   0.49521   0.85117   0.00000  Uiso   1.00
C985   C     0.19588   0.35365   0.77291   0.00000  Uiso   1.00
C986   C     0.16661   0.37531   0.74899   0.00000  Uiso   1.00
C987   C     0.13796   0.35355   0.72383   0.00000  Uiso   1.00
C988   C     0.13948   0.64416   0.72247   0.00000  Uiso   1.00
C989   C     0.16764   0.62352   0.74734   0.00000  Uiso   1.00
C990   C     0.31943   0.47782   0.71334   0.00000  Uiso   1.00
C991   C     0.03396   0.47817   0.71323   0.00000  Uiso   1.00
C992   C     0.01424   0.52146   0.78747   0.00000  Uiso   1.00
C993   C     0.29944   0.52198   0.78749   0.00000  Uiso   1.00
C994   C     0.16654   0.41985   0.74983   0.00000  Uiso   1.00
C995   C     0.19235   0.49895   0.64827   0.00000  Uiso   1.00
C996   C     0.25826   0.45539   0.51463   0.00000  Uiso   1.00
C997   C     0.20616   0.48952   0.59160   0.00000  Uiso   1.00
C998   C     0.07553   0.48465   0.93673   0.00000  Uiso   1.00
C999   C     0.06125   0.48046   0.99157   0.00000  Uiso   1.00
C1000  C     0.09427   0.47482   0.51859   0.00000  Uiso   1.00
H1001  H     0.11819   0.62712   0.70262   0.00000  Uiso   1.00
H1002  H     0.26671   0.43101   0.91629   0.00000  Uiso   1.00
H1003  H     0.29177   0.44074   0.99543   0.00000  Uiso   1.00
H1004  H     0.02387   0.47865   0.51308   0.00000  Uiso   1.00
H1005  H     0.21660   0.62796   0.79195   0.00000  Uiso   1.00
N1006  N     0.04760   0.50001   0.75001   0.00000  Uiso   1.00
N1007  N     0.28573   0.49998   0.75000   0.00000  Uiso   1.00
O1008  O     0.12846   0.56108   0.75000   0.00000  Uiso   1.00
O1009  O     0.20490   0.56107   0.75000   0.00000  Uiso   1.00
O1010  O     0.10947   0.50000   0.82681   0.00000  Uiso   1.00
O1011  O     0.18591   0.49999   0.82681   0.00000  Uiso   1.00
O1012  O     0.12843   0.43893   0.74999   0.00000  Uiso   1.00
O1013  O     0.20488   0.43892   0.74999   0.00000  Uiso   1.00
O1014  O     0.14742   0.50001   0.67319   0.00000  Uiso   1.00
O1015  O     0.22387   0.50000   0.67319   0.00000  Uiso   1.00
Zn1016 Zn    0.11562   0.50001   0.75000   0.00000  Uiso   1.00
Zn1017 Zn    0.21771   0.49999   0.75000   0.00000  Uiso   1.00
F1018  F     0.28232   0.46411   0.59095   0.00000  Uiso   1.00
N1019  N     0.22376   0.37399   0.80044   0.00000  Uiso   1.00
H1020  H     0.21764   0.36264   0.83838   0.00000  Uiso   1.00
C1021  C     0.27381   0.37544   0.77187   0.00000  Uiso   1.00
H1022  H     0.28918   0.34400   0.76934   0.00000  Uiso   1.00
H1023  H     0.29203   0.39613   0.79303   0.00000  Uiso   1.00
H1024  H     0.27984   0.38769   0.73121   0.00000  Uiso   1.00
N1025  N     0.10779   0.37408   0.69960   0.00000  Uiso   1.00
H1026  H     0.11367   0.36509   0.66077   0.00000  Uiso   1.00
C1027  C     0.05816   0.37097   0.73002   0.00000  Uiso   1.00
H1028  H     0.04654   0.33804   0.73582   0.00000  Uiso   1.00
H1029  H     0.03645   0.38650   0.70846   0.00000  Uiso   1.00
H1030  H     0.05174   0.38607   0.76925   0.00000  Uiso   1.00
F1031  F     0.30681   0.45460   0.67734   0.00000  Uiso   1.00
F1032  F     0.06687   0.45627   0.67684   0.00000  Uiso   1.00
F1033  F     0.02757   0.54171   0.82539   0.00000  Uiso   1.00
N1034  N     0.26467   0.54286   0.82847   0.00000  Uiso   1.00
H1035  H     0.25454   0.52634   0.86346   0.00000  Uiso   1.00
C1036  C     0.27388   0.58601   0.83675   0.00000  Uiso   1.00
H1037  H     0.29859   0.58919   0.86056   0.00000  Uiso   1.00
H1038  H     0.24022   0.60086   0.85969   0.00000  Uiso   1.00
H1039  H     0.28876   0.60231   0.79823   0.00000  Uiso   1.00
F1040  F     0.13361   0.51801   0.58645   0.00000  Uiso   1.00
N1041  N     0.04006   0.48519   0.91068   0.00000  Uiso   1.00
H1042  H     0.00847   0.49830   0.93250   0.00000  Uiso   1.00
C1043  C     0.03318   0.44581   0.88759   0.00000  Uiso   1.00
H1044  H     0.00954   0.45007   0.86272   0.00000  Uiso   1.00
H1045  H     0.01730   0.42273   0.91915   0.00000  Uiso   1.00
H1046  H     0.06725   0.43327   0.86186   0.00000  Uiso   1.00
N1047  N     0.07764   0.45851   0.57084   0.00000  Uiso   1.00
H1048  H     0.04486   0.46967   0.59225   0.00000  Uiso   1.00
C1049  C     0.07920   0.41370   0.57216   0.00000  Uiso   1.00
H1050  H     0.11645   0.40294   0.55738   0.00000  Uiso   1.00
H1051  H     0.05854   0.40004   0.54754   0.00000  Uiso   1.00
H1052  H     0.06338   0.40230   0.61325   0.00000  Uiso   1.00
F1053  F     0.21293   0.43931   0.85925   0.00000  Uiso   1.00
C1054  C     0.50043   0.57977   0.74881   0.00000  Uiso   1.00
C1055  C     0.47664   0.47543   0.99031   0.00000  Uiso   1.00
C1056  C     0.49055   0.47215   0.93469   0.00000  Uiso   1.00
C1057  C     0.51233   0.47546   0.51553   0.00000  Uiso   1.00
C1058  C     0.55726   0.45893   0.98877   0.00000  Uiso   1.00
C1059  C     0.56709   0.44617   0.93651   0.00000  Uiso   1.00
C1060  C     0.53511   0.45408   0.90903   0.00000  Uiso   1.00
C1061  C     0.50540   0.49374   0.56517   0.00000  Uiso   1.00
C1062  C     0.58263   0.47004   0.56604   0.00000  Uiso   1.00
C1063  C     0.45786   0.48369   0.90790   0.00000  Uiso   1.00
C1064  C     0.52886   0.64453   0.77222   0.00000  Uiso   1.00
C1065  C     0.47418   0.49521   0.85117   0.00000  Uiso   1.00
C1066  C     0.52921   0.35365   0.77291   0.00000  Uiso   1.00
C1067  C     0.49995   0.37531   0.74899   0.00000  Uiso   1.00
C1068  C     0.47129   0.35355   0.72383   0.00000  Uiso   1.00
C1069  C     0.47282   0.64416   0.72247   0.00000  Uiso   1.00
C1070  C     0.50097   0.62352   0.74734   0.00000  Uiso   1.00
C1071  C     0.65276   0.47782   0.71334   0.00000  Uiso   1.00
C1072  C     0.36729   0.47817   0.71323   0.00000  Uiso   1.00
C1073  C     0.34757   0.52146   0.78747   0.00000  Uiso   1.00
C1074  C     0.63277   0.52198   0.78749   0.00000  Uiso   1.00
C1075  C     0.49987   0.41985   0.74983   0.00000  Uiso   1.00
C1076  C     0.52569   0.49895   0.64827   0.00000  Uiso   1.00
C1077  C     0.59160   0.45539   0.51463   0.00000  Uiso   1.00
C1078  C     0.53949   0.48952   0.59160   0.00000  Uiso   1.00
C1079  C     0.40886   0.48465   0.93673   0.00000  Uiso   1.00
C1080  C     0.39458   0.48046   0.99157   0.00000  Uiso   1.00
C1081  C     0.42760   0.47482   0.51859   0.00000  Uiso   1.00
H1082  H     0.45152   0.62712   0.70262   0.00000  Uiso   1.00
H1083  H     0.60005   0.43101   0.91629   0.00000  Uiso   1.00
H1084  H     0.62510   0.44074   0.99543   0.00000  Uiso   1.00
H1085  H     0.35721   0.47865   0.51308   0.00000  Uiso   1.00
H1086  H     0.54993   0.62796   0.79195   0.00000  Uiso   1.00
N1087  N     0.38093   0.50001   0.75001   0.00000  Uiso   1.00
N1088  N     0.61906   0.49998   0.75000   0.00000  Uiso   1.00
O1089  O     0.46179   0.56108   0.75000   0.00000  Uiso   1.00
O1090  O     0.53823   0.56107   0.75000   0.00000  Uiso   1.00
O1091  O     0.44280   0.50000   0.82681   0.00000  Uiso   1.00
O1092  O     0.51924   0.49999   0.82681   0.00000  Uiso   1.00
O1093  O     0.46177   0.43893   0.74999   0.00000  Uiso   1.00
O1094  O     0.53821   0.43892   0.74999   0.00000  Uiso   1.00
O1095  O     0.48076   0.50001   0.67319   0.00000  Uiso   1.00
O1096  O     0.55720   0.50000   0.67319   0.00000  Uiso   1.00
Zn1097 Zn    0.44896   0.50001   0.75000   0.00000  Uiso   1.00
Zn1098 Zn    0.55104   0.49999   0.75000   0.00000  Uiso   1.00
F1099  F     0.61565   0.46411   0.59095   0.00000  Uiso   1.00
N1100  N     0.55709   0.37399   0.80044   0.00000  Uiso   1.00
H1101  H     0.55097   0.36264   0.83838   0.00000  Uiso   1.00
C1102  C     0.60714   0.37544   0.77187   0.00000  Uiso   1.00
H1103  H     0.62252   0.34400   0.76934   0.00000  Uiso   1.00
H1104  H     0.62537   0.39613   0.79303   0.00000  Uiso   1.00
H1105  H     0.61317   0.38769   0.73121   0.00000  Uiso   1.00
N1106  N     0.44112   0.37408   0.69960   0.00000  Uiso   1.00
H1107  H     0.44700   0.36509   0.66077   0.00000  Uiso   1.00
C1108  C     0.39150   0.37097   0.73002   0.00000  Uiso   1.00
H1109  H     0.37988   0.33804   0.73582   0.00000  Uiso   1.00
H1110  H     0.36979   0.38650   0.70846   0.00000  Uiso   1.00
H1111  H     0.38507   0.38607   0.76925   0.00000  Uiso   1.00
F1112  F     0.64014   0.45460   0.67734   0.00000  Uiso   1.00
F1113  F     0.40020   0.45627   0.67684   0.00000  Uiso   1.00
F1114  F     0.36090   0.54171   0.82539   0.00000  Uiso   1.00
N1115  N     0.59801   0.54286   0.82847   0.00000  Uiso   1.00
H1116  H     0.58788   0.52634   0.86346   0.00000  Uiso   1.00
C1117  C     0.60721   0.58601   0.83675   0.00000  Uiso   1.00
H1118  H     0.63192   0.58919   0.86056   0.00000  Uiso   1.00
H1119  H     0.57356   0.60086   0.85969   0.00000  Uiso   1.00
H1120  H     0.62209   0.60231   0.79823   0.00000  Uiso   1.00
F1121  F     0.46694   0.51801   0.58645   0.00000  Uiso   1.00
N1122  N     0.37339   0.48519   0.91068   0.00000  Uiso   1.00
H1123  H     0.34180   0.49830   0.93250   0.00000  Uiso   1.00
C1124  C     0.36651   0.44581   0.88759   0.00000  Uiso   1.00
H1125  H     0.34288   0.45007   0.86272   0.00000  Uiso   1.00
H1126  H     0.35063   0.42273   0.91915   0.00000  Uiso   1.00
H1127  H     0.40059   0.43327   0.86186   0.00000  Uiso   1.00
N1128  N     0.41097   0.45851   0.57084   0.00000  Uiso   1.00
H1129  H     0.37819   0.46967   0.59225   0.00000  Uiso   1.00
C1130  C     0.41254   0.41370   0.57216   0.00000  Uiso   1.00
H1131  H     0.44978   0.40294   0.55738   0.00000  Uiso   1.00
H1132  H     0.39188   0.40004   0.54754   0.00000  Uiso   1.00
H1133  H     0.39671   0.40230   0.61325   0.00000  Uiso   1.00
F1134  F     0.54626   0.43931   0.85925   0.00000  Uiso   1.00
C1135  C     0.83376   0.57977   0.74881   0.00000  Uiso   1.00
C1136  C     0.80998   0.47543   0.99031   0.00000  Uiso   1.00
C1137  C     0.82388   0.47215   0.93469   0.00000  Uiso   1.00
C1138  C     0.84566   0.47546   0.51553   0.00000  Uiso   1.00
C1139  C     0.89059   0.45893   0.98877   0.00000  Uiso   1.00
C1140  C     0.90043   0.44617   0.93651   0.00000  Uiso   1.00
C1141  C     0.86845   0.45408   0.90903   0.00000  Uiso   1.00
C1142  C     0.83873   0.49374   0.56517   0.00000  Uiso   1.00
C1143  C     0.91596   0.47004   0.56604   0.00000  Uiso   1.00
C1144  C     0.79119   0.48369   0.90790   0.00000  Uiso   1.00
C1145  C     0.86220   0.64453   0.77222   0.00000  Uiso   1.00
C1146  C     0.80751   0.49521   0.85117   0.00000  Uiso   1.00
C1147  C     0.86255   0.35365   0.77291   0.00000  Uiso   1.00
C1148  C     0.83328   0.37531   0.74899   0.00000  Uiso   1.00
C1149  C     0.80462   0.35355   0.72383   0.00000  Uiso   1.00
C1150  C     0.80615   0.64416   0.72247   0.00000  Uiso   1.00
C1151  C     0.83430   0.62352   0.74734   0.00000  Uiso   1.00
C1152  C     0.98609   0.47782   0.71334   0.00000  Uiso   1.00
C1153  C     0.70063   0.47817   0.71323   0.00000  Uiso   1.00
C1154  C     0.68091   0.52146   0.78747   0.00000  Uiso   1.00
C1155  C     0.96610   0.52198   0.78749   0.00000  Uiso   1.00
C1156  C     0.83320   0.41985   0.74983   0.00000  Uiso   1.00
C1157  C     0.85902   0.49895   0.64827   0.00000  Uiso   1.00
C1158  C     0.92493   0.45539   0.51463   0.00000  Uiso   1.00
C1159  C     0.87282   0.48952   0.59160   0.00000  Uiso   1.00
C1160  C     0.74219   0.48465   0.93673   0.00000  Uiso   1.00
C1161  C     0.72791   0.48046   0.99157   0.00000  Uiso   1.00
C1162  C     0.76094   0.47482   0.51859   0.00000  Uiso   1.00
H1163  H     0.78486   0.62712   0.70262   0.00000  Uiso   1.00
H1164  H     0.93338   0.43101   0.91629   0.00000  Uiso   1.00
H1165  H     0.95843   0.44074   0.99543   0.00000  Uiso   1.00
H1166  H     0.69054   0.47865   0.51308   0.00000  Uiso   1.00
H1167  H     0.88326   0.62796   0.79195   0.00000  Uiso   1.00
N1168  N     0.71426   0.50001   0.75001   0.00000  Uiso   1.00
N1169  N     0.95239   0.49998   0.75000   0.00000  Uiso   1.00
O1170  O     0.79512   0.56108   0.75000   0.00000  Uiso   1.00
O1171  O     0.87157   0.56107   0.75000   0.00000  Uiso   1.00
O1172  O     0.77613   0.50000   0.82681   0.00000  Uiso   1.00
O1173  O     0.85258   0.49999   0.82681   0.00000  Uiso   1.00
O1174  O     0.79510   0.43893   0.74999   0.00000  Uiso   1.00
O1175  O     0.87154   0.43892   0.74999   0.00000  Uiso   1.00
O1176  O     0.81409   0.50001   0.67319   0.00000  Uiso   1.00
O1177  O     0.89053   0.50000   0.67319   0.00000  Uiso   1.00
Zn1178 Zn    0.78229   0.50001   0.75000   0.00000  Uiso   1.00
Zn1179 Zn    0.88438   0.49999   0.75000   0.00000  Uiso   1.00
F1180  F     0.94898   0.46411   0.59095   0.00000  Uiso   1.00
N1181  N     0.89043   0.37399   0.80044   0.00000  Uiso   1.00
H1182  H     0.88431   0.36264   0.83838   0.00000  Uiso   1.00
C1183  C     0.94047   0.37544   0.77187   0.00000  Uiso   1.00
H1184  H     0.95585   0.34400   0.76934   0.00000  Uiso   1.00
H1185  H     0.95870   0.39613   0.79303   0.00000  Uiso   1.00
H1186  H     0.94651   0.38769   0.73121   0.00000  Uiso   1.00
N1187  N     0.77446   0.37408   0.69960   0.00000  Uiso   1.00
H1188  H     0.78033   0.36509   0.66077   0.00000  Uiso   1.00
C1189  C     0.72483   0.37097   0.73002   0.00000  Uiso   1.00
H1190  H     0.71321   0.33804   0.73582   0.00000  Uiso   1.00
H1191  H     0.70312   0.38650   0.70846   0.00000  Uiso   1.00
H1192  H     0.71840   0.38607   0.76925   0.00000  Uiso   1.00
F1193  F     0.97348   0.45460   0.67734   0.00000  Uiso   1.00
F1194  F     0.73353   0.45627   0.67684   0.00000  Uiso   1.00
F1195  F     0.69424   0.54171   0.82539   0.00000  Uiso   1.00
N1196  N     0.93134   0.54286   0.82847   0.00000  Uiso   1.00
H1197  H     0.92121   0.52634   0.86346   0.00000  Uiso   1.00
C1198  C     0.94054   0.58601   0.83675   0.00000  Uiso   1.00
H1199  H     0.96526   0.58919   0.86056   0.00000  Uiso   1.00
H1200  H     0.90689   0.60086   0.85969   0.00000  Uiso   1.00
H1201  H     0.95542   0.60231   0.79823   0.00000  Uiso   1.00
F1202  F     0.80027   0.51801   0.58645   0.00000  Uiso   1.00
N1203  N     0.70673   0.48519   0.91068   0.00000  Uiso   1.00
H1204  H     0.67514   0.49830   0.93250   0.00000  Uiso   1.00
C1205  C     0.69985   0.44581   0.88759   0.00000  Uiso   1.00
H1206  H     0.67621   0.45007   0.86272   0.00000  Uiso   1.00
H1207  H     0.68396   0.42273   0.91915   0.00000  Uiso   1.00
H1208  H     0.73392   0.43327   0.86186   0.00000  Uiso   1.00
N1209  N     0.74430   0.45851   0.57084   0.00000  Uiso   1.00
H1210  H     0.71152   0.46967   0.59225   0.00000  Uiso   1.00
C1211  C     0.74587   0.41370   0.57216   0.00000  Uiso   1.00
H1212  H     0.78311   0.40294   0.55738   0.00000  Uiso   1.00
H1213  H     0.72521   0.40004   0.54754   0.00000  Uiso   1.00
H1214  H     0.73005   0.40230   0.61325   0.00000  Uiso   1.00
F1215  F     0.87960   0.43931   0.85925   0.00000  Uiso   1.00
C1216  C     0.16710   0.91310   0.74881   0.00000  Uiso   1.00
C1217  C     0.14331   0.80876   0.99031   0.00000  Uiso   1.00
C1218  C     0.15722   0.80549   0.93469   0.00000  Uiso   1.00
C1219  C     0.17900   0.80880   0.51553   0.00000  Uiso   1.00
C1220  C     0.22392   0.79226   0.98877   0.00000  Uiso   1.00
C1221  C     0.23376   0.77951   0.93651   0.00000  Uiso   1.00
C1222  C     0.20178   0.78741   0.90903   0.00000  Uiso   1.00
C1223  C     0.17207   0.82708   0.56517   0.00000  Uiso   1.00
C1224  C     0.24929   0.80337   0.56604   0.00000  Uiso   1.00
C1225  C     0.12452   0.81703   0.90790   0.00000  Uiso   1.00
C1226  C     0.19553   0.97786   0.77222   0.00000  Uiso   1.00
C1227  C     0.14084   0.82854   0.85117   0.00000  Uiso   1.00
C1228  C     0.19588   0.68698   0.77291   0.00000  Uiso   1.00
C1229  C     0.16661   0.70864   0.74899   0.00000  Uiso   1.00
C1230  C     0.13796   0.68688   0.72383   0.00000  Uiso   1.00
C1231  C     0.13948   0.97749   0.72247   0.00000  Uiso   1.00
C1232  C     0.16764   0.95685   0.74734   0.00000  Uiso   1.00
C1233  C     0.31943   0.81115   0.71334   0.00000  Uiso   1.00
C1234  C     0.03396   0.81151   0.71323   0.00000  Uiso   1.00
C1235  C     0.01424   0.85480   0.78747   0.00000  Uiso   1.00
C1236  C     0.29944   0.85531   0.78749   0.00000  Uiso   1.00
C1237  C     0.16654   0.75319   0.74983   0.00000  Uiso   1.00
C1238  C     0.19235   0.83228   0.64827   0.00000  Uiso   1.00
C1239  C     0.25826   0.78872   0.51463   0.00000  Uiso   1.00
C1240  C     0.20616   0.82286   0.59160   0.00000  Uiso   1.00
C1241  C     0.07553   0.81798   0.93673   0.00000  Uiso   1.00
C1242  C     0.06125   0.81380   0.99157   0.00000  Uiso   1.00
C1243  C     0.09427   0.80815   0.51859   0.00000  Uiso   1.00
H1244  H     0.11819   0.96046   0.70262   0.00000  Uiso   1.00
H1245  H     0.26671   0.76434   0.91629   0.00000  Uiso   1.00
H1246  H     0.29177   0.77407   0.99543   0.00000  Uiso   1.00
H1247  H     0.02387   0.81198   0.51308   0.00000  Uiso   1.00
H1248  H     0.21660   0.96129   0.79195   0.00000  Uiso   1.00
N1249  N     0.04760   0.83334   0.75001   0.00000  Uiso   1.00
N1250  N     0.28573   0.83331   0.75000   0.00000  Uiso   1.00
O1251  O     0.12846   0.89442   0.75000   0.00000  Uiso   1.00
O1252  O     0.20490   0.89441   0.75000   0.00000  Uiso   1.00
O1253  O     0.10947   0.83333   0.82681   0.00000  Uiso   1.00
O1254  O     0.18591   0.83332   0.82681   0.00000  Uiso   1.00
O1255  O     0.12843   0.77226   0.74999   0.00000  Uiso   1.00
O1256  O     0.20488   0.77225   0.74999   0.00000  Uiso   1.00
O1257  O     0.14742   0.83335   0.67319   0.00000  Uiso   1.00
O1258  O     0.22387   0.83334   0.67319   0.00000  Uiso   1.00
Zn1259 Zn    0.11562   0.83334   0.75000   0.00000  Uiso   1.00
Zn1260 Zn    0.21771   0.83333   0.75000   0.00000  Uiso   1.00
F1261  F     0.28232   0.79744   0.59095   0.00000  Uiso   1.00
N1262  N     0.22376   0.70732   0.80044   0.00000  Uiso   1.00
H1263  H     0.21764   0.69597   0.83838   0.00000  Uiso   1.00
C1264  C     0.27381   0.70877   0.77187   0.00000  Uiso   1.00
H1265  H     0.28918   0.67733   0.76934   0.00000  Uiso   1.00
H1266  H     0.29203   0.72946   0.79303   0.00000  Uiso   1.00
H1267  H     0.27984   0.72102   0.73121   0.00000  Uiso   1.00
N1268  N     0.10779   0.70742   0.69960   0.00000  Uiso   1.00
H1269  H     0.11367   0.69843   0.66077   0.00000  Uiso   1.00
C1270  C     0.05816   0.70430   0.73002   0.00000  Uiso   1.00
H1271  H     0.04654   0.67138   0.73582   0.00000  Uiso   1.00
H1272  H     0.03645   0.71984   0.70846   0.00000  Uiso   1.00
H1273  H     0.05174   0.71941   0.76925   0.00000  Uiso   1.00
F1274  F     0.30681   0.78793   0.67734   0.00000  Uiso   1.00
F1275  F     0.06687   0.78961   0.67684   0.00000  Uiso   1.00
F1276  F     0.02757   0.87505   0.82539   0.00000  Uiso   1.00
N1277  N     0.26467   0.87619   0.82847   0.00000  Uiso   1.00
H1278  H     0.25454   0.85967   0.86346   0.00000  Uiso   1.00
C1279  C     0.27388   0.91934   0.83675   0.00000  Uiso   1.00
H1280  H     0.29859   0.92252   0.86056   0.00000  Uiso   1.00
H1281  H     0.24022   0.93420   0.85969   0.00000  Uiso   1.00
H1282  H     0.28876   0.93564   0.79823   0.00000  Uiso   1.00
F1283  F     0.13361   0.85134   0.58645   0.00000  Uiso   1.00
N1284  N     0.04006   0.81852   0.91068   0.00000  Uiso   1.00
H1285  H     0.00847   0.83164   0.93250   0.00000  Uiso   1.00
C1286  C     0.03318   0.77914   0.88759   0.00000  Uiso   1.00
H1287  H     0.00954   0.78340   0.86272   0.00000  Uiso   1.00
H1288  H     0.01730   0.75607   0.91915   0.00000  Uiso   1.00
H1289  H     0.06725   0.76660   0.86186   0.00000  Uiso   1.00
N1290  N     0.07764   0.79185   0.57084   0.00000  Uiso   1.00
H1291  H     0.04486   0.80300   0.59225   0.00000  Uiso   1.00
C1292  C     0.07920   0.74703   0.57216   0.00000  Uiso   1.00
H1293  H     0.11645   0.73628   0.55738   0.00000  Uiso   1.00
H1294  H     0.05854   0.73338   0.54754   0.00000  Uiso   1.00
H1295  H     0.06338   0.73563   0.61325   0.00000  Uiso   1.00
F1296  F     0.21293   0.77265   0.85925   0.00000  Uiso   1.00
C1297  C     0.50043   0.91310   0.74881   0.00000  Uiso   1.00
C1298  C     0.47664   0.80876   0.99031   0.00000  Uiso   1.00
C1299  C     0.49055   0.80549   0.93469   0.00000  Uiso   1.00
C1300  C     0.51233   0.80880   0.51553   0.00000  Uiso   1.00
C1301  C     0.55726   0.79226   0.98877   0.00000  Uiso   1.00
C1302  C     0.56709   0.77951   0.93651   0.00000  Uiso   1.00
C1303  C     0.53511   0.78741   0.90903   0.00000  Uiso   1.00
C1304  C     0.50540   0.82708   0.56517   0.00000  Uiso   1.00
C1305  C     0.58263   0.80337   0.56604   0.00000  Uiso   1.00
C1306  C     0.45786   0.81703   0.90790   0.00000  Uiso   1.00
C1307  C     0.52886   0.97786   0.77222   0.00000  Uiso   1.00
C1308  C     0.47418   0.82854   0.85117   0.00000  Uiso   1.00
C1309  C     0.52921   0.68698   0.77291   0.00000  Uiso   1.00
C1310  C     0.49995   0.70864   0.74899   0.00000  Uiso   1.00
C1311  C     0.47129   0.68688   0.72383   0.00000  Uiso   1.00
C1312  C     0.47282   0.97749   0.72247   0.00000  Uiso   1.00
C1313  C     0.50097   0.95685   0.74734   0.00000  Uiso   1.00
C1314  C     0.65276   0.81115   0.71334   0.00000  Uiso   1.00
C1315  C     0.36729   0.81151   0.71323   0.00000  Uiso   1.00
C1316  C     0.34757   0.85480   0.78747   0.00000  Uiso   1.00
C1317  C     0.63277   0.85531   0.78749   0.00000  Uiso   1.00
C1318  C     0.49987   0.75319   0.74983   0.00000  Uiso   1.00
C1319  C     0.52569   0.83228   0.64827   0.00000  Uiso   1.00
C1320  C     0.59160   0.78872   0.51463   0.00000  Uiso   1.00
C1321  C     0.53949   0.82286   0.59160   0.00000  Uiso   1.00
C1322  C     0.40886   0.81798   0.93673   0.00000  Uiso   1.00
C1323  C     0.39458   0.81380   0.99157   0.00000  Uiso   1.00
C1324  C     0.42760   0.80815   0.51859   0.00000  Uiso   1.00
H1325  H     0.45152   0.96046   0.70262   0.00000  Uiso   1.00
H1326  H     0.60005   0.76434   0.91629   0.00000  Uiso   1.00
H1327  H     0.62510   0.77407   0.99543   0.00000  Uiso   1.00
H1328  H     0.35721   0.81198   0.51308   0.00000  Uiso   1.00
H1329  H     0.54993   0.96129   0.79195   0.00000  Uiso   1.00
N1330  N     0.38093   0.83334   0.75001   0.00000  Uiso   1.00
N1331  N     0.61906   0.83331   0.75000   0.00000  Uiso   1.00
O1332  O     0.46179   0.89442   0.75000   0.00000  Uiso   1.00
O1333  O     0.53823   0.89441   0.75000   0.00000  Uiso   1.00
O1334  O     0.44280   0.83333   0.82681   0.00000  Uiso   1.00
O1335  O     0.51924   0.83332   0.82681   0.00000  Uiso   1.00
O1336  O     0.46177   0.77226   0.74999   0.00000  Uiso   1.00
O1337  O     0.53821   0.77225   0.74999   0.00000  Uiso   1.00
O1338  O     0.48076   0.83335   0.67319   0.00000  Uiso   1.00
O1339  O     0.55720   0.83334   0.67319   0.00000  Uiso   1.00
Zn1340 Zn    0.44896   0.83334   0.75000   0.00000  Uiso   1.00
Zn1341 Zn    0.55104   0.83333   0.75000   0.00000  Uiso   1.00
F1342  F     0.61565   0.79744   0.59095   0.00000  Uiso   1.00
N1343  N     0.55709   0.70732   0.80044   0.00000  Uiso   1.00
H1344  H     0.55097   0.69597   0.83838   0.00000  Uiso   1.00
C1345  C     0.60714   0.70877   0.77187   0.00000  Uiso   1.00
H1346  H     0.62252   0.67733   0.76934   0.00000  Uiso   1.00
H1347  H     0.62537   0.72946   0.79303   0.00000  Uiso   1.00
H1348  H     0.61317   0.72102   0.73121   0.00000  Uiso   1.00
N1349  N     0.44112   0.70742   0.69960   0.00000  Uiso   1.00
H1350  H     0.44700   0.69843   0.66077   0.00000  Uiso   1.00
C1351  C     0.39150   0.70430   0.73002   0.00000  Uiso   1.00
H1352  H     0.37988   0.67138   0.73582   0.00000  Uiso   1.00
H1353  H     0.36979   0.71984   0.70846   0.00000  Uiso   1.00
H1354  H     0.38507   0.71941   0.76925   0.00000  Uiso   1.00
F1355  F     0.64014   0.78793   0.67734   0.00000  Uiso   1.00
F1356  F     0.40020   0.78961   0.67684   0.00000  Uiso   1.00
F1357  F     0.36090   0.87505   0.82539   0.00000  Uiso   1.00
N1358  N     0.59801   0.87619   0.82847   0.00000  Uiso   1.00
H1359  H     0.58788   0.85967   0.86346   0.00000  Uiso   1.00
C1360  C     0.60721   0.91934   0.83675   0.00000  Uiso   1.00
H1361  H     0.63192   0.92252   0.86056   0.00000  Uiso   1.00
H1362  H     0.57356   0.93420   0.85969   0.00000  Uiso   1.00
H1363  H     0.62209   0.93564   0.79823   0.00000  Uiso   1.00
F1364  F     0.46694   0.85134   0.58645   0.00000  Uiso   1.00
N1365  N     0.37339   0.81852   0.91068   0.00000  Uiso   1.00
H1366  H     0.34180   0.83164   0.93250   0.00000  Uiso   1.00
C1367  C     0.36651   0.77914   0.88759   0.00000  Uiso   1.00
H1368  H     0.34288   0.78340   0.86272   0.00000  Uiso   1.00
H1369  H     0.35063   0.75607   0.91915   0.00000  Uiso   1.00
H1370  H     0.40059   0.76660   0.86186   0.00000  Uiso   1.00
N1371  N     0.41097   0.79185   0.57084   0.00000  Uiso   1.00
H1372  H     0.37819   0.80300   0.59225   0.00000  Uiso   1.00
C1373  C     0.41254   0.74703   0.57216   0.00000  Uiso   1.00
H1374  H     0.44978   0.73628   0.55738   0.00000  Uiso   1.00
H1375  H     0.39188   0.73338   0.54754   0.00000  Uiso   1.00
H1376  H     0.39671   0.73563   0.61325   0.00000  Uiso   1.00
F1377  F     0.54626   0.77265   0.85925   0.00000  Uiso   1.00
C1378  C     0.83376   0.91310   0.74881   0.00000  Uiso   1.00
C1379  C     0.80998   0.80876   0.99031   0.00000  Uiso   1.00
C1380  C     0.82388   0.80549   0.93469   0.00000  Uiso   1.00
C1381  C     0.84566   0.80880   0.51553   0.00000  Uiso   1.00
C1382  C     0.89059   0.79226   0.98877   0.00000  Uiso   1.00
C1383  C     0.90043   0.77951   0.93651   0.00000  Uiso   1.00
C1384  C     0.86845   0.78741   0.90903   0.00000  Uiso   1.00
C1385  C     0.83873   0.82708   0.56517   0.00000  Uiso   1.00
C1386  C     0.91596   0.80337   0.56604   0.00000  Uiso   1.00
C1387  C     0.79119   0.81703   0.90790   0.00000  Uiso   1.00
C1388  C     0.86220   0.97786   0.77222   0.00000  Uiso   1.00
C1389  C     0.80751   0.82854   0.85117   0.00000  Uiso   1.00
C1390  C     0.86255   0.68698   0.77291   0.00000  Uiso   1.00
C1391  C     0.83328   0.70864   0.74899   0.00000  Uiso   1.00
C1392  C     0.80462   0.68688   0.72383   0.00000  Uiso   1.00
C1393  C     0.80615   0.97749   0.72247   0.00000  Uiso   1.00
C1394  C     0.83430   0.95685   0.74734   0.00000  Uiso   1.00
C1395  C     0.98609   0.81115   0.71334   0.00000  Uiso   1.00
C1396  C     0.70063   0.81151   0.71323   0.00000  Uiso   1.00
C1397  C     0.68091   0.85480   0.78747   0.00000  Uiso   1.00
C1398  C     0.96610   0.85531   0.78749   0.00000  Uiso   1.00
C1399  C     0.83320   0.75319   0.74983   0.00000  Uiso   1.00
C1400  C     0.85902   0.83228   0.64827   0.00000  Uiso   1.00
C1401  C     0.92493   0.78872   0.51463   0.00000  Uiso   1.00
C1402  C     0.87282   0.82286   0.59160   0.00000  Uiso   1.00
C1403  C     0.74219   0.81798   0.93673   0.00000  Uiso   1.00
C1404  C     0.72791   0.81380   0.99157   0.00000  Uiso   1.00
C1405  C     0.76094   0.80815   0.51859   0.00000  Uiso   1.00
H1406  H     0.78486   0.96046   0.70262   0.00000  Uiso   1.00
H1407  H     0.93338   0.76434   0.91629   0.00000  Uiso   1.00
H1408  H     0.95843   0.77407   0.99543   0.00000  Uiso   1.00
H1409  H     0.69054   0.81198   0.51308   0.00000  Uiso   1.00
H1410  H     0.88326   0.96129   0.79195   0.00000  Uiso   1.00
N1411  N     0.71426   0.83334   0.75001   0.00000  Uiso   1.00
N1412  N     0.95239   0.83331   0.75000   0.00000  Uiso   1.00
O1413  O     0.79512   0.89442   0.75000   0.00000  Uiso   1.00
O1414  O     0.87157   0.89441   0.75000   0.00000  Uiso   1.00
O1415  O     0.77613   0.83333   0.82681   0.00000  Uiso   1.00
O1416  O     0.85258   0.83332   0.82681   0.00000  Uiso   1.00
O1417  O     0.79510   0.77226   0.74999   0.00000  Uiso   1.00
O1418  O     0.87154   0.77225   0.74999   0.00000  Uiso   1.00
O1419  O     0.81409   0.83335   0.67319   0.00000  Uiso   1.00
O1420  O     0.89053   0.83334   0.67319   0.00000  Uiso   1.00
Zn1421 Zn    0.78229   0.83334   0.75000   0.00000  Uiso   1.00
Zn1422 Zn    0.88438   0.83333   0.75000   0.00000  Uiso   1.00
F1423  F     0.94898   0.79744   0.59095   0.00000  Uiso   1.00
N1424  N     0.89043   0.70732   0.80044   0.00000  Uiso   1.00
H1425  H     0.88431   0.69597   0.83838   0.00000  Uiso   1.00
C1426  C     0.94047   0.70877   0.77187   0.00000  Uiso   1.00
H1427  H     0.95585   0.67733   0.76934   0.00000  Uiso   1.00
H1428  H     0.95870   0.72946   0.79303   0.00000  Uiso   1.00
H1429  H     0.94651   0.72102   0.73121   0.00000  Uiso   1.00
N1430  N     0.77446   0.70742   0.69960   0.00000  Uiso   1.00
H1431  H     0.78033   0.69843   0.66077   0.00000  Uiso   1.00
C1432  C     0.72483   0.70430   0.73002   0.00000  Uiso   1.00
H1433  H     0.71321   0.67138   0.73582   0.00000  Uiso   1.00
H1434  H     0.70312   0.71984   0.70846   0.00000  Uiso   1.00
H1435  H     0.71840   0.71941   0.76925   0.00000  Uiso   1.00
F1436  F     0.97348   0.78793   0.67734   0.00000  Uiso   1.00
F1437  F     0.73353   0.78961   0.67684   0.00000  Uiso   1.00
F1438  F     0.69424   0.87505   0.82539   0.00000  Uiso   1.00
N1439  N     0.93134   0.87619   0.82847   0.00000  Uiso   1.00
H1440  H     0.92121   0.85967   0.86346   0.00000  Uiso   1.00
C1441  C     0.94054   0.91934   0.83675   0.00000  Uiso   1.00
H1442  H     0.96526   0.92252   0.86056   0.00000  Uiso   1.00
H1443  H     0.90689   0.93420   0.85969   0.00000  Uiso   1.00
H1444  H     0.95542   0.93564   0.79823   0.00000  Uiso   1.00
F1445  F     0.80027   0.85134   0.58645   0.00000  Uiso   1.00
N1446  N     0.70673   0.81852   0.91068   0.00000  Uiso   1.00
H1447  H     0.67514   0.83164   0.93250   0.00000  Uiso   1.00
C1448  C     0.69985   0.77914   0.88759   0.00000  Uiso   1.00
H1449  H     0.67621   0.78340   0.86272   0.00000  Uiso   1.00
H1450  H     0.68396   0.75607   0.91915   0.00000  Uiso   1.00
H1451  H     0.73392   0.76660   0.86186   0.00000  Uiso   1.00
N1452  N     0.74430   0.79185   0.57084   0.00000  Uiso   1.00
H1453  H     0.71152   0.80300   0.59225   0.00000  Uiso   1.00
C1454  C     0.74587   0.74703   0.57216   0.00000  Uiso   1.00
H1455  H     0.78311   0.73628   0.55738   0.00000  Uiso   1.00
H1456  H     0.72521   0.73338   0.54754   0.00000  Uiso   1.00
H1457  H     0.73005   0.73563   0.61325   0.00000  Uiso   1.00
F1458  F     0.87960   0.77265   0.85925   0.00000  Uiso   1.00
loop_
_geom_bond_atom_site_label_1
_geom_bond_atom_site_label_2
_geom_bond_distance
_geom_bond_site_symmetry_2
_ccdc_geom_bond_type
C1     O37     1.287   .     A
C1     C17     1.414   .     S
C1     O36     1.282   .     A
C2     C3      1.408   .     A
C2     C733    1.415   .     S
C2     C757    1.416   .     S
C3     C7      1.418   .     A
C3     C10     1.419   .     A
C4     C8      1.399   .     A
C4     C731    1.415   1_554 S
C4     C734    1.412   1_554 S
C5     C6      1.388   .     A
C5     C733    1.412   .     S
C5     C753    1.397   .     S
C6     H30     1.081   .     S
C6     C7      1.387   .     A
C7     F81     1.346   .     S
C8     C25     1.403   .     A
C8     F68     1.361   .     S
C9     C25     1.404   .     A
C9     F46     1.354   .     S
C9     C24     1.389   .     A
C10    C26     1.419   .     A
C10    C12     1.478   .     S
C11    H33     1.076   .     S
C11    C17     1.380   .     A
C11    C256    1.372   .     S
C12    O39     1.301   .     A
C12    O38     1.296   .     A
C13    C14     1.412   .     A
C13    N47     1.418   .     S
C13    C497    1.372   1_545 S
C14    C22     1.439   .     S
C14    C15     1.414   .     A
C15    N53     1.420   .     S
C15    C502    1.382   1_545 S
C16    C17     1.387   .     A
C16    H29     1.085   .     S
C16    C258    1.382   .     S
C18    N35     1.367   .     A
C18    F59     1.352   .     S
C18    C100    1.419   .     S
C19    N34     1.360   .     A
C19    F60     1.347   .     S
C19    C180    1.419   1_455 S
C20    F61     1.354   .     S
C20    N34     1.360   .     A
C20    C183    1.428   1_455 S
C21    N62     1.421   .     S
C21    N35     1.378   .     A
C21    C101    1.428   .     S
C22    O41     1.290   .     A
C22    O40     1.291   .     A
C23    O42     1.293   .     A
C23    O43     1.300   .     A
C23    C25     1.463   .     S
C24    C734    1.397   1_554 S
C24    H760    1.080   1_554 S
C26    C27     1.390   .     A
C26    N69     1.425   .     S
C27    C757    1.393   .     S
C27    H761    1.080   .     S
C28    N75     1.420   .     S
C28    C756    1.393   1_554 S
C28    C731    1.416   1_554 S
H31    C753    1.080   .     S
H32    C756    1.080   1_554 S
N34    Zn44    2.017   .     S
N35    Zn45    2.017   .     S
O36    Zn44    2.006   .     S
O37    Zn45    2.013   .     S
O38    Zn44    1.988   .     S
O39    Zn45    1.963   .     S
O40    Zn44    2.013   .     S
O41    Zn45    2.006   .     S
O42    Zn44    1.963   .     S
O43    Zn45    1.988   .     S
N47    C49     1.444   .     S
N47    H48     1.032   .     S
C49    H51     1.110   .     S
C49    H52     1.110   .     S
C49    H50     1.111   .     S
N53    C55     1.447   .     S
N53    H54     1.032   .     S
C55    H56     1.111   .     S
C55    H57     1.107   .     S
C55    H58     1.111   .     S
N62    C64     1.448   .     S
N62    H63     1.031   .     S
C64    H67     1.111   .     S
C64    H66     1.109   .     S
C64    H65     1.109   .     S
N69    C71     1.451   .     S
N69    H70     1.032   .     S
C71    H73     1.109   .     S
C71    H74     1.110   .     S
C71    H72     1.109   .     S
N75    H76     1.031   .     S
N75    C77     1.450   .     S
C77    H78     1.111   .     S
C77    H79     1.112   .     S
C77    H80     1.107   .     S
C82    O118    1.287   .     A
C82    C98     1.414   .     S
C82    O117    1.282   .     A
C83    C84     1.408   .     A
C83    C814    1.415   .     S
C83    C838    1.416   .     S
C84    C88     1.418   .     A
C84    C91     1.419   .     A
C85    C89     1.399   .     A
C85    C812    1.415   1_554 S
C85    C815    1.412   1_554 S
C86    C87     1.388   .     A
C86    C814    1.412   .     S
C86    C834    1.397   .     S
C87    H111    1.081   .     S
C87    C88     1.387   .     A
C88    F162    1.346   .     S
C89    C106    1.403   .     A
C89    F149    1.361   .     S
C90    C106    1.404   .     A
C90    F127    1.354   .     S
C90    C105    1.389   .     A
C91    C107    1.419   .     A
C91    C93     1.478   .     S
C92    H114    1.076   .     S
C92    C98     1.380   .     A
C92    C337    1.372   .     S
C93    O120    1.301   .     A
C93    O119    1.296   .     A
C94    C95     1.412   .     A
C94    N128    1.418   .     S
C94    C578    1.372   1_545 S
C95    C103    1.439   .     S
C95    C96     1.414   .     A
C96    N134    1.420   .     S
C96    C583    1.382   1_545 S
C97    C98     1.387   .     A
C97    H110    1.085   .     S
C97    C339    1.382   .     S
C99    N116    1.367   .     A
C99    F140    1.352   .     S
C99    C181    1.419   .     S
C100   N115    1.360   .     A
C100   F141    1.347   .     S
C101   F142    1.354   .     S
C101   N115    1.360   .     A
C102   N143    1.421   .     S
C102   N116    1.378   .     A
C102   C182    1.428   .     S
C103   O122    1.290   .     A
C103   O121    1.291   .     A
C104   O123    1.293   .     A
C104   O124    1.300   .     A
C104   C106    1.463   .     S
C105   C815    1.397   1_554 S
C105   H841    1.080   1_554 S
C107   C108    1.390   .     A
C107   N150    1.425   .     S
C108   C838    1.393   .     S
C108   H842    1.080   .     S
C109   N156    1.420   .     S
C109   C837    1.393   1_554 S
C109   C812    1.416   1_554 S
H112   C834    1.080   .     S
H113   C837    1.080   1_554 S
N115   Zn125   2.017   .     S
N116   Zn126   2.017   .     S
O117   Zn125   2.006   .     S
O118   Zn126   2.013   .     S
O119   Zn125   1.988   .     S
O120   Zn126   1.963   .     S
O121   Zn125   2.013   .     S
O122   Zn126   2.006   .     S
O123   Zn125   1.963   .     S
O124   Zn126   1.988   .     S
N128   C130    1.444   .     S
N128   H129    1.032   .     S
C130   H132    1.110   .     S
C130   H133    1.110   .     S
C130   H131    1.111   .     S
N134   C136    1.447   .     S
N134   H135    1.032   .     S
C136   H137    1.111   .     S
C136   H138    1.107   .     S
C136   H139    1.111   .     S
N143   C145    1.448   .     S
N143   H144    1.031   .     S
C145   H148    1.111   .     S
C145   H147    1.109   .     S
C145   H146    1.109   .     S
N150   C152    1.451   .     S
N150   H151    1.032   .     S
C152   H154    1.109   .     S
C152   H155    1.110   .     S
C152   H153    1.109   .     S
N156   H157    1.031   .     S
N156   C158    1.450   .     S
C158   H159    1.111   .     S
C158   H160    1.112   .     S
C158   H161    1.107   .     S
C163   O199    1.287   .     A
C163   C179    1.414   .     S
C163   O198    1.282   .     A
C164   C165    1.408   .     A
C164   C895    1.415   .     S
C164   C919    1.416   .     S
C165   C169    1.418   .     A
C165   C172    1.419   .     A
C166   C170    1.399   .     A
C166   C893    1.415   1_554 S
C166   C896    1.412   1_554 S
C167   C168    1.388   .     A
C167   C895    1.412   .     S
C167   C915    1.397   .     S
C168   H192    1.081   .     S
C168   C169    1.387   .     A
C169   F243    1.346   .     S
C170   C187    1.403   .     A
C170   F230    1.361   .     S
C171   C187    1.404   .     A
C171   F208    1.354   .     S
C171   C186    1.389   .     A
C172   C188    1.419   .     A
C172   C174    1.478   .     S
C173   H195    1.076   .     S
C173   C179    1.380   .     A
C173   C418    1.372   .     S
C174   O201    1.301   .     A
C174   O200    1.296   .     A
C175   C176    1.412   .     A
C175   N209    1.418   .     S
C175   C659    1.372   1_545 S
C176   C184    1.439   .     S
C176   C177    1.414   .     A
C177   N215    1.420   .     S
C177   C664    1.382   1_545 S
C178   C179    1.387   .     A
C178   H191    1.085   .     S
C178   C420    1.382   .     S
C180   N197    1.367   .     A
C180   F221    1.352   .     S
C180   C19     1.419   1_655 S
C181   N196    1.360   .     A
C181   F222    1.347   .     S
C182   F223    1.354   .     S
C182   N196    1.360   .     A
C183   N224    1.421   .     S
C183   N197    1.378   .     A
C183   C20     1.428   1_655 S
C184   O203    1.290   .     A
C184   O202    1.291   .     A
C185   O204    1.293   .     A
C185   O205    1.300   .     A
C185   C187    1.463   .     S
C186   C896    1.397   1_554 S
C186   H922    1.080   1_554 S
C188   C189    1.390   .     A
C188   N231    1.425   .     S
C189   C919    1.393   .     S
C189   H923    1.080   .     S
C190   N237    1.420   .     S
C190   C918    1.393   1_554 S
C190   C893    1.416   1_554 S
H193   C915    1.080   .     S
H194   C918    1.080   1_554 S
N196   Zn206   2.017   .     S
N197   Zn207   2.017   .     S
O198   Zn206   2.006   .     S
O199   Zn207   2.013   .     S
O200   Zn206   1.988   .     S
O201   Zn207   1.963   .     S
O202   Zn206   2.013   .     S
O203   Zn207   2.006   .     S
O204   Zn206   1.963   .     S
O205   Zn207   1.988   .     S
N209   C211    1.444   .     S
N209   H210    1.032   .     S
C211   H213    1.110   .     S
C211   H214    1.110   .     S
C211   H212    1.111   .     S
N215   C217    1.447   .     S
N215   H216    1.032   .     S
C217   H218    1.111   .     S
C217   H219    1.107   .     S
C217   H220    1.111   .     S
N224   C226    1.448   .     S
N224   H225    1.031   .     S
C226   H229    1.111   .     S
C226   H228    1.109   .     S
C226   H227    1.109   .     S
N231   C233    1.451   .     S
N231   H232    1.032   .     S
C233   H235    1.109   .     S
C233   H236    1.110   .     S
C233   H234    1.109   .     S
N237   H238    1.031   .     S
N237   C239    1.450   .     S
C239   H240    1.111   .     S
C239   H241    1.112   .     S
C239   H242    1.107   .     S
C244   O280    1.287   .     A
C244   C260    1.414   .     S
C244   O279    1.282   .     A
C245   C246    1.408   .     A
C245   C976    1.415   .     S
C245   C1000   1.416   .     S
C246   C250    1.418   .     A
C246   C253    1.419   .     A
C247   C251    1.399   .     A
C247   C974    1.415   1_554 S
C247   C977    1.412   1_554 S
C248   C249    1.388   .     A
C248   C976    1.412   .     S
C248   C996    1.397   .     S
C249   H273    1.081   .     S
C249   C250    1.387   .     A
C250   F324    1.346   .     S
C251   C268    1.403   .     A
C251   F311    1.361   .     S
C252   C268    1.404   .     A
C252   F289    1.354   .     S
C252   C267    1.389   .     A
C253   C269    1.419   .     A
C253   C255    1.478   .     S
C254   H276    1.076   .     S
C254   C260    1.380   .     A
C254   C499    1.372   .     S
C255   O282    1.301   .     A
C255   O281    1.296   .     A
C256   C257    1.412   .     A
C256   N290    1.418   .     S
C257   C265    1.439   .     S
C257   C258    1.414   .     A
C258   N296    1.420   .     S
C259   C260    1.387   .     A
C259   H272    1.085   .     S
C259   C501    1.382   .     S
C261   N278    1.367   .     A
C261   F302    1.352   .     S
C261   C343    1.419   .     S
C262   N277    1.360   .     A
C262   F303    1.347   .     S
C262   C423    1.419   1_455 S
C263   F304    1.354   .     S
C263   N277    1.360   .     A
C263   C426    1.428   1_455 S
C264   N305    1.421   .     S
C264   N278    1.378   .     A
C264   C344    1.428   .     S
C265   O284    1.290   .     A
C265   O283    1.291   .     A
C266   O285    1.293   .     A
C266   O286    1.300   .     A
C266   C268    1.463   .     S
C267   C977    1.397   1_554 S
C267   H1003   1.080   1_554 S
C269   C270    1.390   .     A
C269   N312    1.425   .     S
C270   C1000   1.393   .     S
C270   H1004   1.080   .     S
C271   N318    1.420   .     S
C271   C999    1.393   1_554 S
C271   C974    1.416   1_554 S
H274   C996    1.080   .     S
H275   C999    1.080   1_554 S
N277   Zn287   2.017   .     S
N278   Zn288   2.017   .     S
O279   Zn287   2.006   .     S
O280   Zn288   2.013   .     S
O281   Zn287   1.988   .     S
O282   Zn288   1.963   .     S
O283   Zn287   2.013   .     S
O284   Zn288   2.006   .     S
O285   Zn287   1.963   .     S
O286   Zn288   1.988   .     S
N290   C292    1.444   .     S
N290   H291    1.032   .     S
C292   H294    1.110   .     S
C292   H295    1.110   .     S
C292   H293    1.111   .     S
N296   C298    1.447   .     S
N296   H297    1.032   .     S
C298   H299    1.111   .     S
C298   H300    1.107   .     S
C298   H301    1.111   .     S
N305   C307    1.448   .     S
N305   H306    1.031   .     S
C307   H310    1.111   .     S
C307   H309    1.109   .     S
C307   H308    1.109   .     S
N312   C314    1.451   .     S
N312   H313    1.032   .     S
C314   H316    1.109   .     S
C314   H317    1.110   .     S
C314   H315    1.109   .     S
N318   H319    1.031   .     S
N318   C320    1.450   .     S
C320   H321    1.111   .     S
C320   H322    1.112   .     S
C320   H323    1.107   .     S
C325   O361    1.287   .     A
C325   C341    1.414   .     S
C325   O360    1.282   .     A
C326   C327    1.408   .     A
C326   C1057   1.415   .     S
C326   C1081   1.416   .     S
C327   C331    1.418   .     A
C327   C334    1.419   .     A
C328   C332    1.399   .     A
C328   C1055   1.415   1_554 S
C328   C1058   1.412   1_554 S
C329   C330    1.388   .     A
C329   C1057   1.412   .     S
C329   C1077   1.397   .     S
C330   H354    1.081   .     S
C330   C331    1.387   .     A
C331   F405    1.346   .     S
C332   C349    1.403   .     A
C332   F392    1.361   .     S
C333   C349    1.404   .     A
C333   F370    1.354   .     S
C333   C348    1.389   .     A
C334   C350    1.419   .     A
C334   C336    1.478   .     S
C335   H357    1.076   .     S
C335   C341    1.380   .     A
C335   C580    1.372   .     S
C336   O363    1.301   .     A
C336   O362    1.296   .     A
C337   C338    1.412   .     A
C337   N371    1.418   .     S
C338   C346    1.439   .     S
C338   C339    1.414   .     A
C339   N377    1.420   .     S
C340   C341    1.387   .     A
C340   H353    1.085   .     S
C340   C582    1.382   .     S
C342   N359    1.367   .     A
C342   F383    1.352   .     S
C342   C424    1.419   .     S
C343   N358    1.360   .     A
C343   F384    1.347   .     S
C344   F385    1.354   .     S
C344   N358    1.360   .     A
C345   N386    1.421   .     S
C345   N359    1.378   .     A
C345   C425    1.428   .     S
C346   O365    1.290   .     A
C346   O364    1.291   .     A
C347   O366    1.293   .     A
C347   O367    1.300   .     A
C347   C349    1.463   .     S
C348   C1058   1.397   1_554 S
C348   H1084   1.080   1_554 S
C350   C351    1.390   .     A
C350   N393    1.425   .     S
C351   C1081   1.393   .     S
C351   H1085   1.080   .     S
C352   N399    1.420   .     S
C352   C1080   1.393   1_554 S
C352   C1055   1.416   1_554 S
H355   C1077   1.080   .     S
H356   C1080   1.080   1_554 S
N358   Zn368   2.017   .     S
N359   Zn369   2.017   .     S
O360   Zn368   2.006   .     S
O361   Zn369   2.013   .     S
O362   Zn368   1.988   .     S
O363   Zn369   1.963   .     S
O364   Zn368   2.013   .     S
O365   Zn369   2.006   .     S
O366   Zn368   1.963   .     S
O367   Zn369   1.988   .     S
N371   C373    1.444   .     S
N371   H372    1.032   .     S
C373   H375    1.110   .     S
C373   H376    1.110   .     S
C373   H374    1.111   .     S
N377   C379    1.447   .     S
N377   H378    1.032   .     S
C379   H380    1.111   .     S
C379   H381    1.107   .     S
C379   H382    1.111   .     S
N386   C388    1.448   .     S
N386   H387    1.031   .     S
C388   H391    1.111   .     S
C388   H390    1.109   .     S
C388   H389    1.109   .     S
N393   C395    1.451   .     S
N393   H394    1.032   .     S
C395   H397    1.109   .     S
C395   H398    1.110   .     S
C395   H396    1.109   .     S
N399   H400    1.031   .     S
N399   C401    1.450   .     S
C401   H402    1.111   .     S
C401   H403    1.112   .     S
C401   H404    1.107   .     S
C406   O442    1.287   .     A
C406   C422    1.414   .     S
C406   O441    1.282   .     A
C407   C408    1.408   .     A
C407   C1138   1.415   .     S
C407   C1162   1.416   .     S
C408   C412    1.418   .     A
C408   C415    1.419   .     A
C409   C413    1.399   .     A
C409   C1136   1.415   1_554 S
C409   C1139   1.412   1_554 S
C410   C411    1.388   .     A
C410   C1138   1.412   .     S
C410   C1158   1.397   .     S
C411   H435    1.081   .     S
C411   C412    1.387   .     A
C412   F486    1.346   .     S
C413   C430    1.403   .     A
C413   F473    1.361   .     S
C414   C430    1.404   .     A
C414   F451    1.354   .     S
C414   C429    1.389   .     A
C415   C431    1.419   .     A
C415   C417    1.478   .     S
C416   H438    1.076   .     S
C416   C422    1.380   .     A
C416   C661    1.372   .     S
C417   O444    1.301   .     A
C417   O443    1.296   .     A
C418   C419    1.412   .     A
C418   N452    1.418   .     S
C419   C427    1.439   .     S
C419   C420    1.414   .     A
C420   N458    1.420   .     S
C421   C422    1.387   .     A
C421   H434    1.085   .     S
C421   C663    1.382   .     S
C423   N440    1.367   .     A
C423   F464    1.352   .     S
C423   C262    1.419   1_655 S
C424   N439    1.360   .     A
C424   F465    1.347   .     S
C425   F466    1.354   .     S
C425   N439    1.360   .     A
C426   N467    1.421   .     S
C426   N440    1.378   .     A
C426   C263    1.428   1_655 S
C427   O446    1.290   .     A
C427   O445    1.291   .     A
C428   O447    1.293   .     A
C428   O448    1.300   .     A
C428   C430    1.463   .     S
C429   C1139   1.397   1_554 S
C429   H1165   1.080   1_554 S
C431   C432    1.390   .     A
C431   N474    1.425   .     S
C432   C1162   1.393   .     S
C432   H1166   1.080   .     S
C433   N480    1.420   .     S
C433   C1161   1.393   1_554 S
C433   C1136   1.416   1_554 S
H436   C1158   1.080   .     S
H437   C1161   1.080   1_554 S
N439   Zn449   2.017   .     S
N440   Zn450   2.017   .     S
O441   Zn449   2.006   .     S
O442   Zn450   2.013   .     S
O443   Zn449   1.988   .     S
O444   Zn450   1.963   .     S
O445   Zn449   2.013   .     S
O446   Zn450   2.006   .     S
O447   Zn449   1.963   .     S
O448   Zn450   1.988   .     S
N452   C454    1.444   .     S
N452   H453    1.032   .     S
C454   H456    1.110   .     S
C454   H457    1.110   .     S
C454   H455    1.111   .     S
N458   C460    1.447   .     S
N458   H459    1.032   .     S
C460   H461    1.111   .     S
C460   H462    1.107   .     S
C460   H463    1.111   .     S
N467   C469    1.448   .     S
N467   H468    1.031   .     S
C469   H472    1.111   .     S
C469   H471    1.109   .     S
C469   H470    1.109   .     S
N474   C476    1.451   .     S
N474   H475    1.032   .     S
C476   H478    1.109   .     S
C476   H479    1.110   .     S
C476   H477    1.109   .     S
N480   H481    1.031   .     S
N480   C482    1.450   .     S
C482   H483    1.111   .     S
C482   H484    1.112   .     S
C482   H485    1.107   .     S
C487   O523    1.287   .     A
C487   C503    1.414   .     S
C487   O522    1.282   .     A
C488   C489    1.408   .     A
C488   C1219   1.415   .     S
C488   C1243   1.416   .     S
C489   C493    1.418   .     A
C489   C496    1.419   .     A
C490   C494    1.399   .     A
C490   C1217   1.415   1_554 S
C490   C1220   1.412   1_554 S
C491   C492    1.388   .     A
C491   C1219   1.412   .     S
C491   C1239   1.397   .     S
C492   H516    1.081   .     S
C492   C493    1.387   .     A
C493   F567    1.346   .     S
C494   C511    1.403   .     A
C494   F554    1.361   .     S
C495   C511    1.404   .     A
C495   F532    1.354   .     S
C495   C510    1.389   .     A
C496   C512    1.419   .     A
C496   C498    1.478   .     S
C497   H519    1.076   .     S
C497   C503    1.380   .     A
C497   C13     1.372   1_565 S
C498   O525    1.301   .     A
C498   O524    1.296   .     A
C499   C500    1.412   .     A
C499   N533    1.418   .     S
C500   C508    1.439   .     S
C500   C501    1.414   .     A
C501   N539    1.420   .     S
C502   C503    1.387   .     A
C502   H515    1.085   .     S
C502   C15     1.382   1_565 S
C504   N521    1.367   .     A
C504   F545    1.352   .     S
C504   C586    1.419   .     S
C505   N520    1.360   .     A
C505   F546    1.347   .     S
C505   C666    1.419   1_455 S
C506   F547    1.354   .     S
C506   N520    1.360   .     A
C506   C669    1.428   1_455 S
C507   N548    1.421   .     S
C507   N521    1.378   .     A
C507   C587    1.428   .     S
C508   O527    1.290   .     A
C508   O526    1.291   .     A
C509   O528    1.293   .     A
C509   O529    1.300   .     A
C509   C511    1.463   .     S
C510   C1220   1.397   1_554 S
C510   H1246   1.080   1_554 S
C512   C513    1.390   .     A
C512   N555    1.425   .     S
C513   C1243   1.393   .     S
C513   H1247   1.080   .     S
C514   N561    1.420   .     S
C514   C1242   1.393   1_554 S
C514   C1217   1.416   1_554 S
H517   C1239   1.080   .     S
H518   C1242   1.080   1_554 S
N520   Zn530   2.017   .     S
N521   Zn531   2.017   .     S
O522   Zn530   2.006   .     S
O523   Zn531   2.013   .     S
O524   Zn530   1.988   .     S
O525   Zn531   1.963   .     S
O526   Zn530   2.013   .     S
O527   Zn531   2.006   .     S
O528   Zn530   1.963   .     S
O529   Zn531   1.988   .     S
N533   C535    1.444   .     S
N533   H534    1.032   .     S
C535   H537    1.110   .     S
C535   H538    1.110   .     S
C535   H536    1.111   .     S
N539   C541    1.447   .     S
N539   H540    1.032   .     S
C541   H542    1.111   .     S
C541   H543    1.107   .     S
C541   H544    1.111   .     S
N548   C550    1.448   .     S
N548   H549    1.031   .     S
C550   H553    1.111   .     S
C550   H552    1.109   .     S
C550   H551    1.109   .     S
N555   C557    1.451   .     S
N555   H556    1.032   .     S
C557   H559    1.109   .     S
C557   H560    1.110   .     S
C557   H558    1.109   .     S
N561   H562    1.031   .     S
N561   C563    1.450   .     S
C563   H564    1.111   .     S
C563   H565    1.112   .     S
C563   H566    1.107   .     S
C568   O604    1.287   .     A
C568   C584    1.414   .     S
C568   O603    1.282   .     A
C569   C570    1.408   .     A
C569   C1300   1.415   .     S
C569   C1324   1.416   .     S
C570   C574    1.418   .     A
C570   C577    1.419   .     A
C571   C575    1.399   .     A
C571   C1298   1.415   1_554 S
C571   C1301   1.412   1_554 S
C572   C573    1.388   .     A
C572   C1300   1.412   .     S
C572   C1320   1.397   .     S
C573   H597    1.081   .     S
C573   C574    1.387   .     A
C574   F648    1.346   .     S
C575   C592    1.403   .     A
C575   F635    1.361   .     S
C576   C592    1.404   .     A
C576   F613    1.354   .     S
C576   C591    1.389   .     A
C577   C593    1.419   .     A
C577   C579    1.478   .     S
C578   H600    1.076   .     S
C578   C584    1.380   .     A
C578   C94     1.372   1_565 S
C579   O606    1.301   .     A
C579   O605    1.296   .     A
C580   C581    1.412   .     A
C580   N614    1.418   .     S
C581   C589    1.439   .     S
C581   C582    1.414   .     A
C582   N620    1.420   .     S
C583   C584    1.387   .     A
C583   H596    1.085   .     S
C583   C96     1.382   1_565 S
C585   N602    1.367   .     A
C585   F626    1.352   .     S
C585   C667    1.419   .     S
C586   N601    1.360   .     A
C586   F627    1.347   .     S
C587   F628    1.354   .     S
C587   N601    1.360   .     A
C588   N629    1.421   .     S
C588   N602    1.378   .     A
C588   C668    1.428   .     S
C589   O608    1.290   .     A
C589   O607    1.291   .     A
C590   O609    1.293   .     A
C590   O610    1.300   .     A
C590   C592    1.463   .     S
C591   C1301   1.397   1_554 S
C591   H1327   1.080   1_554 S
C593   C594    1.390   .     A
C593   N636    1.425   .     S
C594   C1324   1.393   .     S
C594   H1328   1.080   .     S
C595   N642    1.420   .     S
C595   C1323   1.393   1_554 S
C595   C1298   1.416   1_554 S
H598   C1320   1.080   .     S
H599   C1323   1.080   1_554 S
N601   Zn611   2.017   .     S
N602   Zn612   2.017   .     S
O603   Zn611   2.006   .     S
O604   Zn612   2.013   .     S
O605   Zn611   1.988   .     S
O606   Zn612   1.963   .     S
O607   Zn611   2.013   .     S
O608   Zn612   2.006   .     S
O609   Zn611   1.963   .     S
O610   Zn612   1.988   .     S
N614   C616    1.444   .     S
N614   H615    1.032   .     S
C616   H618    1.110   .     S
C616   H619    1.110   .     S
C616   H617    1.111   .     S
N620   C622    1.447   .     S
N620   H621    1.032   .     S
C622   H623    1.111   .     S
C622   H624    1.107   .     S
C622   H625    1.111   .     S
N629   C631    1.448   .     S
N629   H630    1.031   .     S
C631   H634    1.111   .     S
C631   H633    1.109   .     S
C631   H632    1.109   .     S
N636   C638    1.451   .     S
N636   H637    1.032   .     S
C638   H640    1.109   .     S
C638   H641    1.110   .     S
C638   H639    1.109   .     S
N642   H643    1.031   .     S
N642   C644    1.450   .     S
C644   H645    1.111   .     S
C644   H646    1.112   .     S
C644   H647    1.107   .     S
C649   O685    1.287   .     A
C649   C665    1.414   .     S
C649   O684    1.282   .     A
C650   C651    1.408   .     A
C650   C1381   1.415   .     S
C650   C1405   1.416   .     S
C651   C655    1.418   .     A
C651   C658    1.419   .     A
C652   C656    1.399   .     A
C652   C1379   1.415   1_554 S
C652   C1382   1.412   1_554 S
C653   C654    1.388   .     A
C653   C1381   1.412   .     S
C653   C1401   1.397   .     S
C654   H678    1.081   .     S
C654   C655    1.387   .     A
C655   F729    1.346   .     S
C656   C673    1.403   .     A
C656   F716    1.361   .     S
C657   C673    1.404   .     A
C657   F694    1.354   .     S
C657   C672    1.389   .     A
C658   C674    1.419   .     A
C658   C660    1.478   .     S
C659   H681    1.076   .     S
C659   C665    1.380   .     A
C659   C175    1.372   1_565 S
C660   O687    1.301   .     A
C660   O686    1.296   .     A
C661   C662    1.412   .     A
C661   N695    1.418   .     S
C662   C670    1.439   .     S
C662   C663    1.414   .     A
C663   N701    1.420   .     S
C664   C665    1.387   .     A
C664   H677    1.085   .     S
C664   C177    1.382   1_565 S
C666   N683    1.367   .     A
C666   F707    1.352   .     S
C666   C505    1.419   1_655 S
C667   N682    1.360   .     A
C667   F708    1.347   .     S
C668   F709    1.354   .     S
C668   N682    1.360   .     A
C669   N710    1.421   .     S
C669   N683    1.378   .     A
C669   C506    1.428   1_655 S
C670   O689    1.290   .     A
C670   O688    1.291   .     A
C671   O690    1.293   .     A
C671   O691    1.300   .     A
C671   C673    1.463   .     S
C672   C1382   1.397   1_554 S
C672   H1408   1.080   1_554 S
C674   C675    1.390   .     A
C674   N717    1.425   .     S
C675   C1405   1.393   .     S
C675   H1409   1.080   .     S
C676   N723    1.420   .     S
C676   C1404   1.393   1_554 S
C676   C1379   1.416   1_554 S
H679   C1401   1.080   .     S
H680   C1404   1.080   1_554 S
N682   Zn692   2.017   .     S
N683   Zn693   2.017   .     S
O684   Zn692   2.006   .     S
O685   Zn693   2.013   .     S
O686   Zn692   1.988   .     S
O687   Zn693   1.963   .     S
O688   Zn692   2.013   .     S
O689   Zn693   2.006   .     S
O690   Zn692   1.963   .     S
O691   Zn693   1.988   .     S
N695   C697    1.444   .     S
N695   H696    1.032   .     S
C697   H699    1.110   .     S
C697   H700    1.110   .     S
C697   H698    1.111   .     S
N701   C703    1.447   .     S
N701   H702    1.032   .     S
C703   H704    1.111   .     S
C703   H705    1.107   .     S
C703   H706    1.111   .     S
N710   C712    1.448   .     S
N710   H711    1.031   .     S
C712   H715    1.111   .     S
C712   H714    1.109   .     S
C712   H713    1.109   .     S
N717   C719    1.451   .     S
N717   H718    1.032   .     S
C719   H721    1.109   .     S
C719   H722    1.110   .     S
C719   H720    1.109   .     S
N723   H724    1.031   .     S
N723   C725    1.450   .     S
C725   H726    1.111   .     S
C725   H727    1.112   .     S
C725   H728    1.107   .     S
C730   O766    1.287   .     A
C730   C746    1.414   .     S
C730   O765    1.282   .     A
C731   C732    1.408   .     A
C731   C4      1.415   1_556 S
C731   C28     1.416   1_556 S
C732   C736    1.418   .     A
C732   C739    1.419   .     A
C733   C737    1.399   .     A
C734   C735    1.388   .     A
C734   C4      1.412   1_556 S
C734   C24     1.397   1_556 S
C735   H759    1.081   .     S
C735   C736    1.387   .     A
C736   F810    1.346   .     S
C737   C754    1.403   .     A
C737   F797    1.361   .     S
C738   C754    1.404   .     A
C738   F775    1.354   .     S
C738   C753    1.389   .     A
C739   C755    1.419   .     A
C739   C741    1.478   .     S
C740   H762    1.076   .     S
C740   C746    1.380   .     A
C740   C985    1.372   .     S
C741   O768    1.301   .     A
C741   O767    1.296   .     A
C742   C743    1.412   .     A
C742   N776    1.418   .     S
C742   C1226   1.372   1_545 S
C743   C751    1.439   .     S
C743   C744    1.414   .     A
C744   N782    1.420   .     S
C744   C1231   1.382   1_545 S
C745   C746    1.387   .     A
C745   H758    1.085   .     S
C745   C987    1.382   .     S
C747   N764    1.367   .     A
C747   F788    1.352   .     S
C747   C829    1.419   .     S
C748   N763    1.360   .     A
C748   F789    1.347   .     S
C748   C909    1.419   1_455 S
C749   F790    1.354   .     S
C749   N763    1.360   .     A
C749   C912    1.428   1_455 S
C750   N791    1.421   .     S
C750   N764    1.378   .     A
C750   C830    1.428   .     S
C751   O770    1.290   .     A
C751   O769    1.291   .     A
C752   O771    1.293   .     A
C752   O772    1.300   .     A
C752   C754    1.463   .     S
C755   C756    1.390   .     A
C755   N798    1.425   .     S
C756   C28     1.393   1_556 S
C756   H32     1.080   1_556 S
C757   N804    1.420   .     S
H760   C24     1.080   1_556 S
N763   Zn773   2.017   .     S
N764   Zn774   2.017   .     S
O765   Zn773   2.006   .     S
O766   Zn774   2.013   .     S
O767   Zn773   1.988   .     S
O768   Zn774   1.963   .     S
O769   Zn773   2.013   .     S
O770   Zn774   2.006   .     S
O771   Zn773   1.963   .     S
O772   Zn774   1.988   .     S
N776   C778    1.444   .     S
N776   H777    1.032   .     S
C778   H780    1.110   .     S
C778   H781    1.110   .     S
C778   H779    1.111   .     S
N782   C784    1.447   .     S
N782   H783    1.032   .     S
C784   H785    1.111   .     S
C784   H786    1.107   .     S
C784   H787    1.111   .     S
N791   C793    1.448   .     S
N791   H792    1.031   .     S
C793   H796    1.111   .     S
C793   H795    1.109   .     S
C793   H794    1.109   .     S
N798   C800    1.451   .     S
N798   H799    1.032   .     S
C800   H802    1.109   .     S
C800   H803    1.110   .     S
C800   H801    1.109   .     S
N804   H805    1.031   .     S
N804   C806    1.450   .     S
C806   H807    1.111   .     S
C806   H808    1.112   .     S
C806   H809    1.107   .     S
C811   O847    1.287   .     A
C811   C827    1.414   .     S
C811   O846    1.282   .     A
C812   C813    1.408   .     A
C812   C85     1.415   1_556 S
C812   C109    1.416   1_556 S
C813   C817    1.418   .     A
C813   C820    1.419   .     A
C814   C818    1.399   .     A
C815   C816    1.388   .     A
C815   C85     1.412   1_556 S
C815   C105    1.397   1_556 S
C816   H840    1.081   .     S
C816   C817    1.387   .     A
C817   F891    1.346   .     S
C818   C835    1.403   .     A
C818   F878    1.361   .     S
C819   C835    1.404   .     A
C819   F856    1.354   .     S
C819   C834    1.389   .     A
C820   C836    1.419   .     A
C820   C822    1.478   .     S
C821   H843    1.076   .     S
C821   C827    1.380   .     A
C821   C1066   1.372   .     S
C822   O849    1.301   .     A
C822   O848    1.296   .     A
C823   C824    1.412   .     A
C823   N857    1.418   .     S
C823   C1307   1.372   1_545 S
C824   C832    1.439   .     S
C824   C825    1.414   .     A
C825   N863    1.420   .     S
C825   C1312   1.382   1_545 S
C826   C827    1.387   .     A
C826   H839    1.085   .     S
C826   C1068   1.382   .     S
C828   N845    1.367   .     A
C828   F869    1.352   .     S
C828   C910    1.419   .     S
C829   N844    1.360   .     A
C829   F870    1.347   .     S
C830   F871    1.354   .     S
C830   N844    1.360   .     A
C831   N872    1.421   .     S
C831   N845    1.378   .     A
C831   C911    1.428   .     S
C832   O851    1.290   .     A
C832   O850    1.291   .     A
C833   O852    1.293   .     A
C833   O853    1.300   .     A
C833   C835    1.463   .     S
C836   C837    1.390   .     A
C836   N879    1.425   .     S
C837   C109    1.393   1_556 S
C837   H113    1.080   1_556 S
C838   N885    1.420   .     S
H841   C105    1.080   1_556 S
N844   Zn854   2.017   .     S
N845   Zn855   2.017   .     S
O846   Zn854   2.006   .     S
O847   Zn855   2.013   .     S
O848   Zn854   1.988   .     S
O849   Zn855   1.963   .     S
O850   Zn854   2.013   .     S
O851   Zn855   2.006   .     S
O852   Zn854   1.963   .     S
O853   Zn855   1.988   .     S
N857   C859    1.444   .     S
N857   H858    1.032   .     S
C859   H861    1.110   .     S
C859   H862    1.110   .     S
C859   H860    1.111   .     S
N863   C865    1.447   .     S
N863   H864    1.032   .     S
C865   H866    1.111   .     S
C865   H867    1.107   .     S
C865   H868    1.111   .     S
N872   C874    1.448   .     S
N872   H873    1.031   .     S
C874   H877    1.111   .     S
C874   H876    1.109   .     S
C874   H875    1.109   .     S
N879   C881    1.451   .     S
N879   H880    1.032   .     S
C881   H883    1.109   .     S
C881   H884    1.110   .     S
C881   H882    1.109   .     S
N885   H886    1.031   .     S
N885   C887    1.450   .     S
C887   H888    1.111   .     S
C887   H889    1.112   .     S
C887   H890    1.107   .     S
C892   O928    1.287   .     A
C892   C908    1.414   .     S
C892   O927    1.282   .     A
C893   C894    1.408   .     A
C893   C166    1.415   1_556 S
C893   C190    1.416   1_556 S
C894   C898    1.418   .     A
C894   C901    1.419   .     A
C895   C899    1.399   .     A
C896   C897    1.388   .     A
C896   C166    1.412   1_556 S
C896   C186    1.397   1_556 S
C897   H921    1.081   .     S
C897   C898    1.387   .     A
C898   F972    1.346   .     S
C899   C916    1.403   .     A
C899   F959    1.361   .     S
C900   C916    1.404   .     A
C900   F937    1.354   .     S
C900   C915    1.389   .     A
C901   C917    1.419   .     A
C901   C903    1.478   .     S
C902   H924    1.076   .     S
C902   C908    1.380   .     A
C902   C1147   1.372   .     S
C903   O930    1.301   .     A
C903   O929    1.296   .     A
C904   C905    1.412   .     A
C904   N938    1.418   .     S
C904   C1388   1.372   1_545 S
C905   C913    1.439   .     S
C905   C906    1.414   .     A
C906   N944    1.420   .     S
C906   C1393   1.382   1_545 S
C907   C908    1.387   .     A
C907   H920    1.085   .     S
C907   C1149   1.382   .     S
C909   N926    1.367   .     A
C909   F950    1.352   .     S
C909   C748    1.419   1_655 S
C910   N925    1.360   .     A
C910   F951    1.347   .     S
C911   F952    1.354   .     S
C911   N925    1.360   .     A
C912   N953    1.421   .     S
C912   N926    1.378   .     A
C912   C749    1.428   1_655 S
C913   O932    1.290   .     A
C913   O931    1.291   .     A
C914   O933    1.293   .     A
C914   O934    1.300   .     A
C914   C916    1.463   .     S
C917   C918    1.390   .     A
C917   N960    1.425   .     S
C918   C190    1.393   1_556 S
C918   H194    1.080   1_556 S
C919   N966    1.420   .     S
H922   C186    1.080   1_556 S
N925   Zn935   2.017   .     S
N926   Zn936   2.017   .     S
O927   Zn935   2.006   .     S
O928   Zn936   2.013   .     S
O929   Zn935   1.988   .     S
O930   Zn936   1.963   .     S
O931   Zn935   2.013   .     S
O932   Zn936   2.006   .     S
O933   Zn935   1.963   .     S
O934   Zn936   1.988   .     S
N938   C940    1.444   .     S
N938   H939    1.032   .     S
C940   H942    1.110   .     S
C940   H943    1.110   .     S
C940   H941    1.111   .     S
N944   C946    1.447   .     S
N944   H945    1.032   .     S
C946   H947    1.111   .     S
C946   H948    1.107   .     S
C946   H949    1.111   .     S
N953   C955    1.448   .     S
N953   H954    1.031   .     S
C955   H958    1.111   .     S
C955   H957    1.109   .     S
C955   H956    1.109   .     S
N960   C962    1.451   .     S
N960   H961    1.032   .     S
C962   H964    1.109   .     S
C962   H965    1.110   .     S
C962   H963    1.109   .     S
N966   H967    1.031   .     S
N966   C968    1.450   .     S
C968   H969    1.111   .     S
C968   H970    1.112   .     S
C968   H971    1.107   .     S
C973   O1009   1.287   .     A
C973   C989    1.414   .     S
C973   O1008   1.282   .     A
C974   C975    1.408   .     A
C974   C247    1.415   1_556 S
C974   C271    1.416   1_556 S
C975   C979    1.418   .     A
C975   C982    1.419   .     A
C976   C980    1.399   .     A
C977   C978    1.388   .     A
C977   C247    1.412   1_556 S
C977   C267    1.397   1_556 S
C978   H1002   1.081   .     S
C978   C979    1.387   .     A
C979   F1053   1.346   .     S
C980   C997    1.403   .     A
C980   F1040   1.361   .     S
C981   C997    1.404   .     A
C981   F1018   1.354   .     S
C981   C996    1.389   .     A
C982   C998    1.419   .     A
C982   C984    1.478   .     S
C983   H1005   1.076   .     S
C983   C989    1.380   .     A
C983   C1228   1.372   .     S
C984   O1011   1.301   .     A
C984   O1010   1.296   .     A
C985   C986    1.412   .     A
C985   N1019   1.418   .     S
C986   C994    1.439   .     S
C986   C987    1.414   .     A
C987   N1025   1.420   .     S
C988   C989    1.387   .     A
C988   H1001   1.085   .     S
C988   C1230   1.382   .     S
C990   N1007   1.367   .     A
C990   F1031   1.352   .     S
C990   C1072   1.419   .     S
C991   N1006   1.360   .     A
C991   F1032   1.347   .     S
C991   C1152   1.419   1_455 S
C992   F1033   1.354   .     S
C992   N1006   1.360   .     A
C992   C1155   1.428   1_455 S
C993   N1034   1.421   .     S
C993   N1007   1.378   .     A
C993   C1073   1.428   .     S
C994   O1013   1.290   .     A
C994   O1012   1.291   .     A
C995   O1014   1.293   .     A
C995   O1015   1.300   .     A
C995   C997    1.463   .     S
C998   C999    1.390   .     A
C998   N1041   1.425   .     S
C999   C271    1.393   1_556 S
C999   H275    1.080   1_556 S
C1000  N1047   1.420   .     S
H1003  C267    1.080   1_556 S
N1006  Zn1016  2.017   .     S
N1007  Zn1017  2.017   .     S
O1008  Zn1016  2.006   .     S
O1009  Zn1017  2.013   .     S
O1010  Zn1016  1.988   .     S
O1011  Zn1017  1.963   .     S
O1012  Zn1016  2.013   .     S
O1013  Zn1017  2.006   .     S
O1014  Zn1016  1.963   .     S
O1015  Zn1017  1.988   .     S
N1019  C1021   1.444   .     S
N1019  H1020   1.032   .     S
C1021  H1023   1.110   .     S
C1021  H1024   1.110   .     S
C1021  H1022   1.111   .     S
N1025  C1027   1.447   .     S
N1025  H1026   1.032   .     S
C1027  H1028   1.111   .     S
C1027  H1029   1.107   .     S
C1027  H1030   1.111   .     S
N1034  C1036   1.448   .     S
N1034  H1035   1.031   .     S
C1036  H1039   1.111   .     S
C1036  H1038   1.109   .     S
C1036  H1037   1.109   .     S
N1041  C1043   1.451   .     S
N1041  H1042   1.032   .     S
C1043  H1045   1.109   .     S
C1043  H1046   1.110   .     S
C1043  H1044   1.109   .     S
N1047  H1048   1.031   .     S
N1047  C1049   1.450   .     S
C1049  H1050   1.111   .     S
C1049  H1051   1.112   .     S
C1049  H1052   1.107   .     S
C1054  O1090   1.287   .     A
C1054  C1070   1.414   .     S
C1054  O1089   1.282   .     A
C1055  C1056   1.408   .     A
C1055  C328    1.415   1_556 S
C1055  C352    1.416   1_556 S
C1056  C1060   1.418   .     A
C1056  C1063   1.419   .     A
C1057  C1061   1.399   .     A
C1058  C1059   1.388   .     A
C1058  C328    1.412   1_556 S
C1058  C348    1.397   1_556 S
C1059  H1083   1.081   .     S
C1059  C1060   1.387   .     A
C1060  F1134   1.346   .     S
C1061  C1078   1.403   .     A
C1061  F1121   1.361   .     S
C1062  C1078   1.404   .     A
C1062  F1099   1.354   .     S
C1062  C1077   1.389   .     A
C1063  C1079   1.419   .     A
C1063  C1065   1.478   .     S
C1064  H1086   1.076   .     S
C1064  C1070   1.380   .     A
C1064  C1309   1.372   .     S
C1065  O1092   1.301   .     A
C1065  O1091   1.296   .     A
C1066  C1067   1.412   .     A
C1066  N1100   1.418   .     S
C1067  C1075   1.439   .     S
C1067  C1068   1.414   .     A
C1068  N1106   1.420   .     S
C1069  C1070   1.387   .     A
C1069  H1082   1.085   .     S
C1069  C1311   1.382   .     S
C1071  N1088   1.367   .     A
C1071  F1112   1.352   .     S
C1071  C1153   1.419   .     S
C1072  N1087   1.360   .     A
C1072  F1113   1.347   .     S
C1073  F1114   1.354   .     S
C1073  N1087   1.360   .     A
C1074  N1115   1.421   .     S
C1074  N1088   1.378   .     A
C1074  C1154   1.428   .     S
C1075  O1094   1.290   .     A
C1075  O1093   1.291   .     A
C1076  O1095   1.293   .     A
C1076  O1096   1.300   .     A
C1076  C1078   1.463   .     S
C1079  C1080   1.390   .     A
C1079  N1122   1.425   .     S
C1080  C352    1.393   1_556 S
C1080  H356    1.080   1_556 S
C1081  N1128   1.420   .     S
H1084  C348    1.080   1_556 S
N1087  Zn1097  2.017   .     S
N1088  Zn1098  2.017   .     S
O1089  Zn1097  2.006   .     S
O1090  Zn1098  2.013   .     S
O1091  Zn1097  1.988   .     S
O1092  Zn1098  1.963   .     S
O1093  Zn1097  2.013   .     S
O1094  Zn1098  2.006   .     S
O1095  Zn1097  1.963   .     S
O1096  Zn1098  1.988   .     S
N1100  C1102   1.444   .     S
N1100  H1101   1.032   .     S
C1102  H1104   1.110   .     S
C1102  H1105   1.110   .     S
C1102  H1103   1.111   .     S
N1106  C1108   1.447   .     S
N1106  H1107   1.032   .     S
C1108  H1109   1.111   .     S
C1108  H1110   1.107   .     S
C1108  H1111   1.111   .     S
N1115  C1117   1.448   .     S
N1115  H1116   1.031   .     S
C1117  H1120   1.111   .     S
C1117  H1119   1.109   .     S
C1117  H1118   1.109   .     S
N1122  C1124   1.451   .     S
N1122  H1123   1.032   .     S
C1124  H1126   1.109   .     S
C1124  H1127   1.110   .     S
C1124  H1125   1.109   .     S
N1128  H1129   1.031   .     S
N1128  C1130   1.450   .     S
C1130  H1131   1.111   .     S
C1130  H1132   1.112   .     S
C1130  H1133   1.107   .     S
C1135  O1171   1.287   .     A
C1135  C1151   1.414   .     S
C1135  O1170   1.282   .     A
C1136  C1137   1.408   .     A
C1136  C409    1.415   1_556 S
C1136  C433    1.416   1_556 S
C1137  C1141   1.418   .     A
C1137  C1144   1.419   .     A
C1138  C1142   1.399   .     A
C1139  C1140   1.388   .     A
C1139  C409    1.412   1_556 S
C1139  C429    1.397   1_556 S
C1140  H1164   1.081   .     S
C1140  C1141   1.387   .     A
C1141  F1215   1.346   .     S
C1142  C1159   1.403   .     A
C1142  F1202   1.361   .     S
C1143  C1159   1.404   .     A
C1143  F1180   1.354   .     S
C1143  C1158   1.389   .     A
C1144  C1160   1.419   .     A
C1144  C1146   1.478   .     S
C1145  H1167   1.076   .     S
C1145  C1151   1.380   .     A
C1145  C1390   1.372   .     S
C1146  O1173   1.301   .     A
C1146  O1172   1.296   .     A
C1147  C1148   1.412   .     A
C1147  N1181   1.418   .     S
C1148  C1156   1.439   .     S
C1148  C1149   1.414   .     A
C1149  N1187   1.420   .     S
C1150  C1151   1.387   .     A
C1150  H1163   1.085   .     S
C1150  C1392   1.382   .     S
C1152  N1169   1.367   .     A
C1152  F1193   1.352   .     S
C1152  C991    1.419   1_655 S
C1153  N1168   1.360   .     A
C1153  F1194   1.347   .     S
C1154  F1195   1.354   .     S
C1154  N1168   1.360   .     A
C1155  N1196   1.421   .     S
C1155  N1169   1.378   .     A
C1155  C992    1.428   1_655 S
C1156  O1175   1.290   .     A
C1156  O1174   1.291   .     A
C1157  O1176   1.293   .     A
C1157  O1177   1.300   .     A
C1157  C1159   1.463   .     S
C1160  C1161   1.390   .     A
C1160  N1203   1.425   .     S
C1161  C433    1.393   1_556 S
C1161  H437    1.080   1_556 S
C1162  N1209   1.420   .     S
H1165  C429    1.080   1_556 S
N1168  Zn1178  2.017   .     S
N1169  Zn1179  2.017   .     S
O1170  Zn1178  2.006   .     S
O1171  Zn1179  2.013   .     S
O1172  Zn1178  1.988   .     S
O1173  Zn1179  1.963   .     S
O1174  Zn1178  2.013   .     S
O1175  Zn1179  2.006   .     S
O1176  Zn1178  1.963   .     S
O1177  Zn1179  1.988   .     S
N1181  C1183   1.444   .     S
N1181  H1182   1.032   .     S
C1183  H1185   1.110   .     S
C1183  H1186   1.110   .     S
C1183  H1184   1.111   .     S
N1187  C1189   1.447   .     S
N1187  H1188   1.032   .     S
C1189  H1190   1.111   .     S
C1189  H1191   1.107   .     S
C1189  H1192   1.111   .     S
N1196  C1198   1.448   .     S
N1196  H1197   1.031   .     S
C1198  H1201   1.111   .     S
C1198  H1200   1.109   .     S
C1198  H1199   1.109   .     S
N1203  C1205   1.451   .     S
N1203  H1204   1.032   .     S
C1205  H1207   1.109   .     S
C1205  H1208   1.110   .     S
C1205  H1206   1.109   .     S
N1209  H1210   1.031   .     S
N1209  C1211   1.450   .     S
C1211  H1212   1.111   .     S
C1211  H1213   1.112   .     S
C1211  H1214   1.107   .     S
C1216  O1252   1.287   .     A
C1216  C1232   1.414   .     S
C1216  O1251   1.282   .     A
C1217  C1218   1.408   .     A
C1217  C490    1.415   1_556 S
C1217  C514    1.416   1_556 S
C1218  C1222   1.418   .     A
C1218  C1225   1.419   .     A
C1219  C1223   1.399   .     A
C1220  C1221   1.388   .     A
C1220  C490    1.412   1_556 S
C1220  C510    1.397   1_556 S
C1221  H1245   1.081   .     S
C1221  C1222   1.387   .     A
C1222  F1296   1.346   .     S
C1223  C1240   1.403   .     A
C1223  F1283   1.361   .     S
C1224  C1240   1.404   .     A
C1224  F1261   1.354   .     S
C1224  C1239   1.389   .     A
C1225  C1241   1.419   .     A
C1225  C1227   1.478   .     S
C1226  H1248   1.076   .     S
C1226  C1232   1.380   .     A
C1226  C742    1.372   1_565 S
C1227  O1254   1.301   .     A
C1227  O1253   1.296   .     A
C1228  C1229   1.412   .     A
C1228  N1262   1.418   .     S
C1229  C1237   1.439   .     S
C1229  C1230   1.414   .     A
C1230  N1268   1.420   .     S
C1231  C1232   1.387   .     A
C1231  H1244   1.085   .     S
C1231  C744    1.382   1_565 S
C1233  N1250   1.367   .     A
C1233  F1274   1.352   .     S
C1233  C1315   1.419   .     S
C1234  N1249   1.360   .     A
C1234  F1275   1.347   .     S
C1234  C1395   1.419   1_455 S
C1235  F1276   1.354   .     S
C1235  N1249   1.360   .     A
C1235  C1398   1.428   1_455 S
C1236  N1277   1.421   .     S
C1236  N1250   1.378   .     A
C1236  C1316   1.428   .     S
C1237  O1256   1.290   .     A
C1237  O1255   1.291   .     A
C1238  O1257   1.293   .     A
C1238  O1258   1.300   .     A
C1238  C1240   1.463   .     S
C1241  C1242   1.390   .     A
C1241  N1284   1.425   .     S
C1242  C514    1.393   1_556 S
C1242  H518    1.080   1_556 S
C1243  N1290   1.420   .     S
H1246  C510    1.080   1_556 S
N1249  Zn1259  2.017   .     S
N1250  Zn1260  2.017   .     S
O1251  Zn1259  2.006   .     S
O1252  Zn1260  2.013   .     S
O1253  Zn1259  1.988   .     S
O1254  Zn1260  1.963   .     S
O1255  Zn1259  2.013   .     S
O1256  Zn1260  2.006   .     S
O1257  Zn1259  1.963   .     S
O1258  Zn1260  1.988   .     S
N1262  C1264   1.444   .     S
N1262  H1263   1.032   .     S
C1264  H1266   1.110   .     S
C1264  H1267   1.110   .     S
C1264  H1265   1.111   .     S
N1268  C1270   1.447   .     S
N1268  H1269   1.032   .     S
C1270  H1271   1.111   .     S
C1270  H1272   1.107   .     S
C1270  H1273   1.111   .     S
N1277  C1279   1.448   .     S
N1277  H1278   1.031   .     S
C1279  H1282   1.111   .     S
C1279  H1281   1.109   .     S
C1279  H1280   1.109   .     S
N1284  C1286   1.451   .     S
N1284  H1285   1.032   .     S
C1286  H1288   1.109   .     S
C1286  H1289   1.110   .     S
C1286  H1287   1.109   .     S
N1290  H1291   1.031   .     S
N1290  C1292   1.450   .     S
C1292  H1293   1.111   .     S
C1292  H1294   1.112   .     S
C1292  H1295   1.107   .     S
C1297  O1333   1.287   .     A
C1297  C1313   1.414   .     S
C1297  O1332   1.282   .     A
C1298  C1299   1.408   .     A
C1298  C571    1.415   1_556 S
C1298  C595    1.416   1_556 S
C1299  C1303   1.418   .     A
C1299  C1306   1.419   .     A
C1300  C1304   1.399   .     A
C1301  C1302   1.388   .     A
C1301  C571    1.412   1_556 S
C1301  C591    1.397   1_556 S
C1302  H1326   1.081   .     S
C1302  C1303   1.387   .     A
C1303  F1377   1.346   .     S
C1304  C1321   1.403   .     A
C1304  F1364   1.361   .     S
C1305  C1321   1.404   .     A
C1305  F1342   1.354   .     S
C1305  C1320   1.389   .     A
C1306  C1322   1.419   .     A
C1306  C1308   1.478   .     S
C1307  H1329   1.076   .     S
C1307  C1313   1.380   .     A
C1307  C823    1.372   1_565 S
C1308  O1335   1.301   .     A
C1308  O1334   1.296   .     A
C1309  C1310   1.412   .     A
C1309  N1343   1.418   .     S
C1310  C1318   1.439   .     S
C1310  C1311   1.414   .     A
C1311  N1349   1.420   .     S
C1312  C1313   1.387   .     A
C1312  H1325   1.085   .     S
C1312  C825    1.382   1_565 S
C1314  N1331   1.367   .     A
C1314  F1355   1.352   .     S
C1314  C1396   1.419   .     S
C1315  N1330   1.360   .     A
C1315  F1356   1.347   .     S
C1316  F1357   1.354   .     S
C1316  N1330   1.360   .     A
C1317  N1358   1.421   .     S
C1317  N1331   1.378   .     A
C1317  C1397   1.428   .     S
C1318  O1337   1.290   .     A
C1318  O1336   1.291   .     A
C1319  O1338   1.293   .     A
C1319  O1339   1.300   .     A
C1319  C1321   1.463   .     S
C1322  C1323   1.390   .     A
C1322  N1365   1.425   .     S
C1323  C595    1.393   1_556 S
C1323  H599    1.080   1_556 S
C1324  N1371   1.420   .     S
H1327  C591    1.080   1_556 S
N1330  Zn1340  2.017   .     S
N1331  Zn1341  2.017   .     S
O1332  Zn1340  2.006   .     S
O1333  Zn1341  2.013   .     S
O1334  Zn1340  1.988   .     S
O1335  Zn1341  1.963   .     S
O1336  Zn1340  2.013   .     S
O1337  Zn1341  2.006   .     S
O1338  Zn1340  1.963   .     S
O1339  Zn1341  1.988   .     S
N1343  C1345   1.444   .     S
N1343  H1344   1.032   .     S
C1345  H1347   1.110   .     S
C1345  H1348   1.110   .     S
C1345  H1346   1.111   .     S
N1349  C1351   1.447   .     S
N1349  H1350   1.032   .     S
C1351  H1352   1.111   .     S
C1351  H1353   1.107   .     S
C1351  H1354   1.111   .     S
N1358  C1360   1.448   .     S
N1358  H1359   1.031   .     S
C1360  H1363   1.111   .     S
C1360  H1362   1.109   .     S
C1360  H1361   1.109   .     S
N1365  C1367   1.451   .     S
N1365  H1366   1.032   .     S
C1367  H1369   1.109   .     S
C1367  H1370   1.110   .     S
C1367  H1368   1.109   .     S
N1371  H1372   1.031   .     S
N1371  C1373   1.450   .     S
C1373  H1374   1.111   .     S
C1373  H1375   1.112   .     S
C1373  H1376   1.107   .     S
C1378  O1414   1.287   .     A
C1378  C1394   1.414   .     S
C1378  O1413   1.282   .     A
C1379  C1380   1.408   .     A
C1379  C652    1.415   1_556 S
C1379  C676    1.416   1_556 S
C1380  C1384   1.418   .     A
C1380  C1387   1.419   .     A
C1381  C1385   1.399   .     A
C1382  C1383   1.388   .     A
C1382  C652    1.412   1_556 S
C1382  C672    1.397   1_556 S
C1383  H1407   1.081   .     S
C1383  C1384   1.387   .     A
C1384  F1458   1.346   .     S
C1385  C1402   1.403   .     A
C1385  F1445   1.361   .     S
C1386  C1402   1.404   .     A
C1386  F1423   1.354   .     S
C1386  C1401   1.389   .     A
C1387  C1403   1.419   .     A
C1387  C1389   1.478   .     S
C1388  H1410   1.076   .     S
C1388  C1394   1.380   .     A
C1388  C904    1.372   1_565 S
C1389  O1416   1.301   .     A
C1389  O1415   1.296   .     A
C1390  C1391   1.412   .     A
C1390  N1424   1.418   .     S
C1391  C1399   1.439   .     S
C1391  C1392   1.414   .     A
C1392  N1430   1.420   .     S
C1393  C1394   1.387   .     A
C1393  H1406   1.085   .     S
C1393  C906    1.382   1_565 S
C1395  N1412   1.367   .     A
C1395  F1436   1.352   .     S
C1395  C1234   1.419   1_655 S
C1396  N1411   1.360   .     A
C1396  F1437   1.347   .     S
C1397  F1438   1.354   .     S
C1397  N1411   1.360   .     A
C1398  N1439   1.421   .     S
C1398  N1412   1.378   .     A
C1398  C1235   1.428   1_655 S
C1399  O1418   1.290   .     A
C1399  O1417   1.291   .     A
C1400  O1419   1.293   .     A
C1400  O1420   1.300   .     A
C1400  C1402   1.463   .     S
C1403  C1404   1.390   .     A
C1403  N1446   1.425   .     S
C1404  C676    1.393   1_556 S
C1404  H680    1.080   1_556 S
C1405  N1452   1.420   .     S
H1408  C672    1.080   1_556 S
N1411  Zn1421  2.017   .     S
N1412  Zn1422  2.017   .     S
O1413  Zn1421  2.006   .     S
O1414  Zn1422  2.013   .     S
O1415  Zn1421  1.988   .     S
O1416  Zn1422  1.963   .     S
O1417  Zn1421  2.013   .     S
O1418  Zn1422  2.006   .     S
O1419  Zn1421  1.963   .     S
O1420  Zn1422  1.988   .     S
N1424  C1426   1.444   .     S
N1424  H1425   1.032   .     S
C1426  H1428   1.110   .     S
C1426  H1429   1.110   .     S
C1426  H1427   1.111   .     S
N1430  C1432   1.447   .     S
N1430  H1431   1.032   .     S
C1432  H1433   1.111   .     S
C1432  H1434   1.107   .     S
C1432  H1435   1.111   .     S
N1439  C1441   1.448   .     S
N1439  H1440   1.031   .     S
C1441  H1444   1.111   .     S
C1441  H1443   1.109   .     S
C1441  H1442   1.109   .     S
N1446  C1448   1.451   .     S
N1446  H1447   1.032   .     S
C1448  H1450   1.109   .     S
C1448  H1451   1.110   .     S
C1448  H1449   1.109   .     S
N1452  H1453   1.031   .     S
N1452  C1454   1.450   .     S
C1454  H1455   1.111   .     S
C1454  H1456   1.112   .     S
C1454  H1457   1.107   .     S
