data_str_m2_o2_o10_pcu_sym.39
_audit_creation_date              2020-01-03
_audit_creation_method            'Materials Studio'
_symmetry_space_group_name_H-M    'P1'
_symmetry_Int_Tables_number       1
_symmetry_cell_setting            triclinic
loop_
_symmetry_equiv_pos_as_xyz
  x,y,z
_cell_length_a                    26.1242
_cell_length_b                    30.2556
_cell_length_c                    27.8685
_cell_angle_alpha                 91.2197
_cell_angle_beta                  98.5143
_cell_angle_gamma                 91.6529
loop_
_atom_site_label
_atom_site_type_symbol
_atom_site_fract_x
_atom_site_fract_y
_atom_site_fract_z
_atom_site_U_iso_or_equiv
_atom_site_adp_type
_atom_site_occupancy
Br1    Br    0.24511   0.12260   0.18399   0.00000  Uiso   1.00
Br2    Br    0.22665   0.38677   0.34709   0.00000  Uiso   1.00
Br3    Br    0.21892   0.33952   0.03537   0.00000  Uiso   1.00
Br4    Br    0.05032   0.23374   0.45672   0.00000  Uiso   1.00
Br5    Br    0.09422   0.17471   0.12166   0.00000  Uiso   1.00
Br6    Br    0.27385   0.28645   0.39010   0.00000  Uiso   1.00
C7     C     0.16644   0.16501   0.24945   0.00000  Uiso   1.00
C8     C     0.20836   0.26018   0.45436   0.00000  Uiso   1.00
C9     C     0.16295   0.25315   0.02714   0.00000  Uiso   1.00
C10    C     0.16231   0.25205   0.47265   0.00000  Uiso   1.00
C11    C     0.06788   0.24988   0.23746   0.00000  Uiso   1.00
C12    C     0.26546   0.25054   0.26253   0.00000  Uiso   1.00
C13    C     0.01242   0.24963   0.23065   0.00000  Uiso   1.00
C14    C     0.32094   0.25167   0.26929   0.00000  Uiso   1.00
C15    C     0.13238   0.04664   0.27412   0.00000  Uiso   1.00
C16    C     0.13848   0.45110   0.20720   0.00000  Uiso   1.00
C17    C     0.13216   0.09271   0.27490   0.00000  Uiso   1.00
C18    C     0.16589   0.33515   0.25028   0.00000  Uiso   1.00
C19    C     0.13680   0.40495   0.20879   0.00000  Uiso   1.00
C20    C     0.16505   0.11661   0.24791   0.00000  Uiso   1.00
C21    C     0.16313   0.38375   0.25005   0.00000  Uiso   1.00
C22    C     0.19678   0.09349   0.21963   0.00000  Uiso   1.00
C23    C     0.18849   0.41003   0.28967   0.00000  Uiso   1.00
C24    C     0.19534   0.04744   0.21847   0.00000  Uiso   1.00
C25    C     0.18817   0.45584   0.28765   0.00000  Uiso   1.00
C26    C     0.16352   0.02422   0.24585   0.00000  Uiso   1.00
C27    C     0.16391   0.47623   0.24651   0.00000  Uiso   1.00
C28    C     0.09473   0.11430   0.30189   0.00000  Uiso   1.00
C29    C     0.18926   0.28677   0.05866   0.00000  Uiso   1.00
C30    C     0.10234   0.11478   0.35283   0.00000  Uiso   1.00
C31    C     0.06490   0.13221   0.37825   0.00000  Uiso   1.00
C32    C     0.01948   0.14869   0.35297   0.00000  Uiso   1.00
C33    C     0.01158   0.14798   0.30227   0.00000  Uiso   1.00
C34    C     0.04927   0.13125   0.27670   0.00000  Uiso   1.00
C35    C     0.10508   0.38022   0.16780   0.00000  Uiso   1.00
C36    C     0.11831   0.38223   0.12082   0.00000  Uiso   1.00
C37    C     0.08834   0.35887   0.08220   0.00000  Uiso   1.00
C38    C     0.04480   0.33372   0.09011   0.00000  Uiso   1.00
C39    C     0.03098   0.33206   0.13661   0.00000  Uiso   1.00
C40    C     0.11776   0.24180   0.43820   0.00000  Uiso   1.00
C41    C     0.06102   0.35512   0.17541   0.00000  Uiso   1.00
C42    C     0.19171   0.28361   0.10945   0.00000  Uiso   1.00
C43    C     0.12145   0.23962   0.38798   0.00000  Uiso   1.00
C44    C     0.13881   0.21848   0.09915   0.00000  Uiso   1.00
C45    C     0.20968   0.26177   0.40437   0.00000  Uiso   1.00
C46    C     0.13898   0.21851   0.04887   0.00000  Uiso   1.00
Cu47   Cu    0.16667   0.25000   0.29821   0.00000  Uiso   1.00
Cu48   Cu    0.16667   0.25001   0.20178   0.00000  Uiso   1.00
H49    H     0.32527   0.24732   0.19375   0.00000  Uiso   1.00
H50    H     0.24382   0.26684   0.47925   0.00000  Uiso   1.00
H51    H     0.13701   0.10142   0.37272   0.00000  Uiso   1.00
H52    H     0.07094   0.13265   0.41753   0.00000  Uiso   1.00
H53    H     0.32365   0.16187   0.37265   0.00000  Uiso   1.00
H54    H     0.30935   0.16003   0.28280   0.00000  Uiso   1.00
H55    H     0.04254   0.13053   0.23738   0.00000  Uiso   1.00
H56    H     0.15208   0.40147   0.11426   0.00000  Uiso   1.00
H57    H     0.09888   0.36022   0.04613   0.00000  Uiso   1.00
H58    H     0.02165   0.31568   0.06017   0.00000  Uiso   1.00
H59    H     0.33025   0.31298   0.14252   0.00000  Uiso   1.00
H60    H     0.00805   0.25370   0.30622   0.00000  Uiso   1.00
H61    H     0.04996   0.35353   0.21131   0.00000  Uiso   1.00
H62    H     0.10744   0.02808   0.29482   0.00000  Uiso   1.00
H63    H     0.11855   0.46756   0.17595   0.00000  Uiso   1.00
H64    H     0.21994   0.02969   0.19715   0.00000  Uiso   1.00
H65    H     0.20762   0.47581   0.31808   0.00000  Uiso   1.00
H66    H     0.21232   0.30920   0.13299   0.00000  Uiso   1.00
H67    H     0.08699   0.23068   0.36300   0.00000  Uiso   1.00
H68    H     0.11947   0.19147   0.02675   0.00000  Uiso   1.00
N69    N     0.16667   0.25001   0.12934   0.00000  Uiso   1.00
N70    N     0.16667   0.24999   0.37065   0.00000  Uiso   1.00
O71    O     0.16667   0.18573   0.29071   0.00000  Uiso   1.00
O72    O     0.16666   0.31428   0.20928   0.00000  Uiso   1.00
O73    O     0.16667   0.18573   0.20928   0.00000  Uiso   1.00
O74    O     0.16666   0.31427   0.29072   0.00000  Uiso   1.00
O75    O     0.09161   0.25000   0.28132   0.00000  Uiso   1.00
O76    O     0.24172   0.25001   0.21868   0.00000  Uiso   1.00
O77    O     0.09161   0.25000   0.19988   0.00000  Uiso   1.00
O78    O     0.24172   0.25000   0.30011   0.00000  Uiso   1.00
Br79   Br    0.57844   0.12260   0.18399   0.00000  Uiso   1.00
Br80   Br    0.55998   0.38677   0.34709   0.00000  Uiso   1.00
Br81   Br    0.55225   0.33952   0.03537   0.00000  Uiso   1.00
Br82   Br    0.38365   0.23374   0.45672   0.00000  Uiso   1.00
Br83   Br    0.42755   0.17471   0.12166   0.00000  Uiso   1.00
Br84   Br    0.60718   0.28645   0.39010   0.00000  Uiso   1.00
C85    C     0.49978   0.16501   0.24945   0.00000  Uiso   1.00
C86    C     0.54169   0.26018   0.45436   0.00000  Uiso   1.00
C87    C     0.49628   0.25315   0.02714   0.00000  Uiso   1.00
C88    C     0.49564   0.25205   0.47265   0.00000  Uiso   1.00
C89    C     0.40122   0.24988   0.23746   0.00000  Uiso   1.00
C90    C     0.59879   0.25054   0.26253   0.00000  Uiso   1.00
C91    C     0.34575   0.24963   0.23065   0.00000  Uiso   1.00
C92    C     0.65427   0.25167   0.26929   0.00000  Uiso   1.00
C93    C     0.46572   0.04664   0.27412   0.00000  Uiso   1.00
C94    C     0.47182   0.45110   0.20720   0.00000  Uiso   1.00
C95    C     0.46550   0.09271   0.27490   0.00000  Uiso   1.00
C96    C     0.49923   0.33515   0.25028   0.00000  Uiso   1.00
C97    C     0.47013   0.40495   0.20879   0.00000  Uiso   1.00
C98    C     0.49838   0.11661   0.24791   0.00000  Uiso   1.00
C99    C     0.49647   0.38375   0.25005   0.00000  Uiso   1.00
C100   C     0.53011   0.09349   0.21963   0.00000  Uiso   1.00
C101   C     0.52182   0.41003   0.28967   0.00000  Uiso   1.00
C102   C     0.52867   0.04744   0.21847   0.00000  Uiso   1.00
C103   C     0.52151   0.45584   0.28765   0.00000  Uiso   1.00
C104   C     0.49685   0.02422   0.24585   0.00000  Uiso   1.00
C105   C     0.49725   0.47623   0.24651   0.00000  Uiso   1.00
C106   C     0.42806   0.11430   0.30189   0.00000  Uiso   1.00
C107   C     0.52259   0.28677   0.05866   0.00000  Uiso   1.00
C108   C     0.43567   0.11478   0.35283   0.00000  Uiso   1.00
C109   C     0.39824   0.13221   0.37825   0.00000  Uiso   1.00
C110   C     0.35281   0.14869   0.35297   0.00000  Uiso   1.00
C111   C     0.34491   0.14798   0.30227   0.00000  Uiso   1.00
C112   C     0.38260   0.13125   0.27670   0.00000  Uiso   1.00
C113   C     0.43842   0.38022   0.16780   0.00000  Uiso   1.00
C114   C     0.45165   0.38223   0.12082   0.00000  Uiso   1.00
C115   C     0.42167   0.35887   0.08220   0.00000  Uiso   1.00
C116   C     0.37813   0.33372   0.09011   0.00000  Uiso   1.00
C117   C     0.36431   0.33206   0.13661   0.00000  Uiso   1.00
C118   C     0.45109   0.24180   0.43820   0.00000  Uiso   1.00
C119   C     0.39436   0.35512   0.17541   0.00000  Uiso   1.00
C120   C     0.52504   0.28361   0.10945   0.00000  Uiso   1.00
C121   C     0.45478   0.23962   0.38798   0.00000  Uiso   1.00
C122   C     0.47215   0.21848   0.09915   0.00000  Uiso   1.00
C123   C     0.54301   0.26177   0.40437   0.00000  Uiso   1.00
C124   C     0.47231   0.21851   0.04887   0.00000  Uiso   1.00
Cu125  Cu    0.50000   0.25000   0.29821   0.00000  Uiso   1.00
Cu126  Cu    0.50000   0.25001   0.20178   0.00000  Uiso   1.00
H127   H     0.65861   0.24732   0.19375   0.00000  Uiso   1.00
H128   H     0.57715   0.26684   0.47925   0.00000  Uiso   1.00
H129   H     0.47034   0.10142   0.37272   0.00000  Uiso   1.00
H130   H     0.40427   0.13265   0.41753   0.00000  Uiso   1.00
H131   H     0.65698   0.16187   0.37265   0.00000  Uiso   1.00
H132   H     0.64269   0.16003   0.28280   0.00000  Uiso   1.00
H133   H     0.37587   0.13053   0.23738   0.00000  Uiso   1.00
H134   H     0.48541   0.40147   0.11426   0.00000  Uiso   1.00
H135   H     0.43221   0.36022   0.04613   0.00000  Uiso   1.00
H136   H     0.35498   0.31568   0.06017   0.00000  Uiso   1.00
H137   H     0.66358   0.31298   0.14252   0.00000  Uiso   1.00
H138   H     0.34139   0.25370   0.30622   0.00000  Uiso   1.00
H139   H     0.38329   0.35353   0.21131   0.00000  Uiso   1.00
H140   H     0.44077   0.02808   0.29482   0.00000  Uiso   1.00
H141   H     0.45188   0.46756   0.17595   0.00000  Uiso   1.00
H142   H     0.55328   0.02969   0.19715   0.00000  Uiso   1.00
H143   H     0.54095   0.47581   0.31808   0.00000  Uiso   1.00
H144   H     0.54565   0.30920   0.13299   0.00000  Uiso   1.00
H145   H     0.42032   0.23068   0.36300   0.00000  Uiso   1.00
H146   H     0.45280   0.19147   0.02675   0.00000  Uiso   1.00
N147   N     0.50000   0.25001   0.12934   0.00000  Uiso   1.00
N148   N     0.50000   0.24999   0.37065   0.00000  Uiso   1.00
O149   O     0.50000   0.18573   0.29071   0.00000  Uiso   1.00
O150   O     0.50000   0.31428   0.20928   0.00000  Uiso   1.00
O151   O     0.50000   0.18573   0.20928   0.00000  Uiso   1.00
O152   O     0.50000   0.31427   0.29072   0.00000  Uiso   1.00
O153   O     0.42495   0.25000   0.28132   0.00000  Uiso   1.00
O154   O     0.57505   0.25001   0.21868   0.00000  Uiso   1.00
O155   O     0.42495   0.25000   0.19988   0.00000  Uiso   1.00
O156   O     0.57505   0.25000   0.30011   0.00000  Uiso   1.00
Br157  Br    0.91177   0.12260   0.18399   0.00000  Uiso   1.00
Br158  Br    0.89332   0.38677   0.34709   0.00000  Uiso   1.00
Br159  Br    0.88558   0.33952   0.03537   0.00000  Uiso   1.00
Br160  Br    0.71698   0.23374   0.45672   0.00000  Uiso   1.00
Br161  Br    0.76088   0.17471   0.12166   0.00000  Uiso   1.00
Br162  Br    0.94051   0.28645   0.39010   0.00000  Uiso   1.00
C163   C     0.83311   0.16501   0.24945   0.00000  Uiso   1.00
C164   C     0.87503   0.26018   0.45436   0.00000  Uiso   1.00
C165   C     0.82962   0.25315   0.02714   0.00000  Uiso   1.00
C166   C     0.82897   0.25205   0.47265   0.00000  Uiso   1.00
C167   C     0.73455   0.24988   0.23746   0.00000  Uiso   1.00
C168   C     0.93212   0.25054   0.26253   0.00000  Uiso   1.00
C169   C     0.67909   0.24963   0.23065   0.00000  Uiso   1.00
C170   C     0.98761   0.25167   0.26929   0.00000  Uiso   1.00
C171   C     0.79905   0.04664   0.27412   0.00000  Uiso   1.00
C172   C     0.80515   0.45110   0.20720   0.00000  Uiso   1.00
C173   C     0.79883   0.09271   0.27490   0.00000  Uiso   1.00
C174   C     0.83256   0.33515   0.25028   0.00000  Uiso   1.00
C175   C     0.80346   0.40495   0.20879   0.00000  Uiso   1.00
C176   C     0.83172   0.11661   0.24791   0.00000  Uiso   1.00
C177   C     0.82980   0.38375   0.25005   0.00000  Uiso   1.00
C178   C     0.86345   0.09349   0.21963   0.00000  Uiso   1.00
C179   C     0.85515   0.41003   0.28967   0.00000  Uiso   1.00
C180   C     0.86200   0.04744   0.21847   0.00000  Uiso   1.00
C181   C     0.85484   0.45584   0.28765   0.00000  Uiso   1.00
C182   C     0.83018   0.02422   0.24585   0.00000  Uiso   1.00
C183   C     0.83058   0.47623   0.24651   0.00000  Uiso   1.00
C184   C     0.76139   0.11430   0.30189   0.00000  Uiso   1.00
C185   C     0.85592   0.28677   0.05866   0.00000  Uiso   1.00
C186   C     0.76900   0.11478   0.35283   0.00000  Uiso   1.00
C187   C     0.73157   0.13221   0.37825   0.00000  Uiso   1.00
C188   C     0.68614   0.14869   0.35297   0.00000  Uiso   1.00
C189   C     0.67825   0.14798   0.30227   0.00000  Uiso   1.00
C190   C     0.71594   0.13125   0.27670   0.00000  Uiso   1.00
C191   C     0.77175   0.38022   0.16780   0.00000  Uiso   1.00
C192   C     0.78498   0.38223   0.12082   0.00000  Uiso   1.00
C193   C     0.75501   0.35887   0.08220   0.00000  Uiso   1.00
C194   C     0.71147   0.33372   0.09011   0.00000  Uiso   1.00
C195   C     0.69765   0.33206   0.13661   0.00000  Uiso   1.00
C196   C     0.78442   0.24180   0.43820   0.00000  Uiso   1.00
C197   C     0.72769   0.35512   0.17541   0.00000  Uiso   1.00
C198   C     0.85837   0.28361   0.10945   0.00000  Uiso   1.00
C199   C     0.78812   0.23962   0.38798   0.00000  Uiso   1.00
C200   C     0.80548   0.21848   0.09915   0.00000  Uiso   1.00
C201   C     0.87634   0.26177   0.40437   0.00000  Uiso   1.00
C202   C     0.80564   0.21851   0.04887   0.00000  Uiso   1.00
Cu203  Cu    0.83333   0.25000   0.29821   0.00000  Uiso   1.00
Cu204  Cu    0.83333   0.25001   0.20178   0.00000  Uiso   1.00
H205   H     0.99194   0.24732   0.19375   0.00000  Uiso   1.00
H206   H     0.91048   0.26684   0.47925   0.00000  Uiso   1.00
H207   H     0.80368   0.10142   0.37272   0.00000  Uiso   1.00
H208   H     0.73761   0.13265   0.41753   0.00000  Uiso   1.00
H209   H     0.99032   0.16187   0.37265   0.00000  Uiso   1.00
H210   H     0.97602   0.16003   0.28280   0.00000  Uiso   1.00
H211   H     0.70921   0.13053   0.23738   0.00000  Uiso   1.00
H212   H     0.81874   0.40147   0.11426   0.00000  Uiso   1.00
H213   H     0.76555   0.36022   0.04613   0.00000  Uiso   1.00
H214   H     0.68832   0.31568   0.06017   0.00000  Uiso   1.00
H215   H     0.99692   0.31298   0.14252   0.00000  Uiso   1.00
H216   H     0.67472   0.25370   0.30622   0.00000  Uiso   1.00
H217   H     0.71663   0.35353   0.21131   0.00000  Uiso   1.00
H218   H     0.77411   0.02808   0.29482   0.00000  Uiso   1.00
H219   H     0.78521   0.46756   0.17595   0.00000  Uiso   1.00
H220   H     0.88661   0.02969   0.19715   0.00000  Uiso   1.00
H221   H     0.87428   0.47581   0.31808   0.00000  Uiso   1.00
H222   H     0.87898   0.30920   0.13299   0.00000  Uiso   1.00
H223   H     0.75365   0.23068   0.36300   0.00000  Uiso   1.00
H224   H     0.78613   0.19147   0.02675   0.00000  Uiso   1.00
N225   N     0.83333   0.25001   0.12934   0.00000  Uiso   1.00
N226   N     0.83333   0.24999   0.37065   0.00000  Uiso   1.00
O227   O     0.83334   0.18573   0.29071   0.00000  Uiso   1.00
O228   O     0.83333   0.31428   0.20928   0.00000  Uiso   1.00
O229   O     0.83334   0.18573   0.20928   0.00000  Uiso   1.00
O230   O     0.83333   0.31427   0.29072   0.00000  Uiso   1.00
O231   O     0.75828   0.25000   0.28132   0.00000  Uiso   1.00
O232   O     0.90839   0.25001   0.21868   0.00000  Uiso   1.00
O233   O     0.75828   0.25000   0.19988   0.00000  Uiso   1.00
O234   O     0.90839   0.25000   0.30011   0.00000  Uiso   1.00
Br235  Br    0.24511   0.62260   0.18399   0.00000  Uiso   1.00
Br236  Br    0.22665   0.88677   0.34709   0.00000  Uiso   1.00
Br237  Br    0.21892   0.83952   0.03537   0.00000  Uiso   1.00
Br238  Br    0.05032   0.73374   0.45672   0.00000  Uiso   1.00
Br239  Br    0.09422   0.67471   0.12166   0.00000  Uiso   1.00
Br240  Br    0.27385   0.78645   0.39010   0.00000  Uiso   1.00
C241   C     0.16644   0.66501   0.24945   0.00000  Uiso   1.00
C242   C     0.20836   0.76018   0.45436   0.00000  Uiso   1.00
C243   C     0.16295   0.75315   0.02714   0.00000  Uiso   1.00
C244   C     0.16231   0.75205   0.47265   0.00000  Uiso   1.00
C245   C     0.06788   0.74988   0.23746   0.00000  Uiso   1.00
C246   C     0.26546   0.75054   0.26253   0.00000  Uiso   1.00
C247   C     0.01242   0.74963   0.23065   0.00000  Uiso   1.00
C248   C     0.32094   0.75167   0.26929   0.00000  Uiso   1.00
C249   C     0.13238   0.54664   0.27412   0.00000  Uiso   1.00
C250   C     0.13848   0.95110   0.20720   0.00000  Uiso   1.00
C251   C     0.13216   0.59271   0.27490   0.00000  Uiso   1.00
C252   C     0.16589   0.83515   0.25028   0.00000  Uiso   1.00
C253   C     0.13680   0.90495   0.20879   0.00000  Uiso   1.00
C254   C     0.16505   0.61661   0.24791   0.00000  Uiso   1.00
C255   C     0.16313   0.88375   0.25005   0.00000  Uiso   1.00
C256   C     0.19678   0.59349   0.21963   0.00000  Uiso   1.00
C257   C     0.18849   0.91003   0.28967   0.00000  Uiso   1.00
C258   C     0.19534   0.54744   0.21847   0.00000  Uiso   1.00
C259   C     0.18817   0.95584   0.28765   0.00000  Uiso   1.00
C260   C     0.16352   0.52422   0.24585   0.00000  Uiso   1.00
C261   C     0.16391   0.97623   0.24651   0.00000  Uiso   1.00
C262   C     0.09473   0.61430   0.30189   0.00000  Uiso   1.00
C263   C     0.18926   0.78677   0.05866   0.00000  Uiso   1.00
C264   C     0.10234   0.61478   0.35283   0.00000  Uiso   1.00
C265   C     0.06490   0.63221   0.37825   0.00000  Uiso   1.00
C266   C     0.01948   0.64869   0.35297   0.00000  Uiso   1.00
C267   C     0.01158   0.64798   0.30227   0.00000  Uiso   1.00
C268   C     0.04927   0.63125   0.27670   0.00000  Uiso   1.00
C269   C     0.10508   0.88022   0.16780   0.00000  Uiso   1.00
C270   C     0.11831   0.88223   0.12082   0.00000  Uiso   1.00
C271   C     0.08834   0.85887   0.08220   0.00000  Uiso   1.00
C272   C     0.04480   0.83372   0.09011   0.00000  Uiso   1.00
C273   C     0.03098   0.83206   0.13661   0.00000  Uiso   1.00
C274   C     0.11776   0.74180   0.43820   0.00000  Uiso   1.00
C275   C     0.06102   0.85512   0.17541   0.00000  Uiso   1.00
C276   C     0.19171   0.78361   0.10945   0.00000  Uiso   1.00
C277   C     0.12145   0.73962   0.38798   0.00000  Uiso   1.00
C278   C     0.13881   0.71848   0.09915   0.00000  Uiso   1.00
C279   C     0.20968   0.76177   0.40437   0.00000  Uiso   1.00
C280   C     0.13898   0.71851   0.04887   0.00000  Uiso   1.00
Cu281  Cu    0.16667   0.75000   0.29821   0.00000  Uiso   1.00
Cu282  Cu    0.16667   0.75001   0.20178   0.00000  Uiso   1.00
H283   H     0.32527   0.74732   0.19375   0.00000  Uiso   1.00
H284   H     0.24382   0.76684   0.47925   0.00000  Uiso   1.00
H285   H     0.13701   0.60142   0.37272   0.00000  Uiso   1.00
H286   H     0.07094   0.63265   0.41753   0.00000  Uiso   1.00
H287   H     0.32365   0.66187   0.37265   0.00000  Uiso   1.00
H288   H     0.30935   0.66003   0.28280   0.00000  Uiso   1.00
H289   H     0.04254   0.63053   0.23738   0.00000  Uiso   1.00
H290   H     0.15208   0.90147   0.11426   0.00000  Uiso   1.00
H291   H     0.09888   0.86022   0.04613   0.00000  Uiso   1.00
H292   H     0.02165   0.81568   0.06017   0.00000  Uiso   1.00
H293   H     0.33025   0.81298   0.14252   0.00000  Uiso   1.00
H294   H     0.00805   0.75370   0.30622   0.00000  Uiso   1.00
H295   H     0.04996   0.85353   0.21131   0.00000  Uiso   1.00
H296   H     0.10744   0.52808   0.29482   0.00000  Uiso   1.00
H297   H     0.11855   0.96756   0.17595   0.00000  Uiso   1.00
H298   H     0.21994   0.52969   0.19715   0.00000  Uiso   1.00
H299   H     0.20762   0.97581   0.31808   0.00000  Uiso   1.00
H300   H     0.21232   0.80920   0.13299   0.00000  Uiso   1.00
H301   H     0.08699   0.73068   0.36300   0.00000  Uiso   1.00
H302   H     0.11947   0.69147   0.02675   0.00000  Uiso   1.00
N303   N     0.16667   0.75001   0.12934   0.00000  Uiso   1.00
N304   N     0.16667   0.74999   0.37065   0.00000  Uiso   1.00
O305   O     0.16667   0.68573   0.29071   0.00000  Uiso   1.00
O306   O     0.16666   0.81428   0.20928   0.00000  Uiso   1.00
O307   O     0.16667   0.68573   0.20928   0.00000  Uiso   1.00
O308   O     0.16666   0.81427   0.29072   0.00000  Uiso   1.00
O309   O     0.09161   0.75000   0.28132   0.00000  Uiso   1.00
O310   O     0.24172   0.75001   0.21868   0.00000  Uiso   1.00
O311   O     0.09161   0.75000   0.19988   0.00000  Uiso   1.00
O312   O     0.24172   0.75000   0.30011   0.00000  Uiso   1.00
Br313  Br    0.57844   0.62260   0.18399   0.00000  Uiso   1.00
Br314  Br    0.55998   0.88677   0.34709   0.00000  Uiso   1.00
Br315  Br    0.55225   0.83952   0.03537   0.00000  Uiso   1.00
Br316  Br    0.38365   0.73374   0.45672   0.00000  Uiso   1.00
Br317  Br    0.42755   0.67471   0.12166   0.00000  Uiso   1.00
Br318  Br    0.60718   0.78645   0.39010   0.00000  Uiso   1.00
C319   C     0.49978   0.66501   0.24945   0.00000  Uiso   1.00
C320   C     0.54169   0.76018   0.45436   0.00000  Uiso   1.00
C321   C     0.49628   0.75315   0.02714   0.00000  Uiso   1.00
C322   C     0.49564   0.75205   0.47265   0.00000  Uiso   1.00
C323   C     0.40122   0.74988   0.23746   0.00000  Uiso   1.00
C324   C     0.59879   0.75054   0.26253   0.00000  Uiso   1.00
C325   C     0.34575   0.74963   0.23065   0.00000  Uiso   1.00
C326   C     0.65427   0.75167   0.26929   0.00000  Uiso   1.00
C327   C     0.46572   0.54664   0.27412   0.00000  Uiso   1.00
C328   C     0.47182   0.95110   0.20720   0.00000  Uiso   1.00
C329   C     0.46550   0.59271   0.27490   0.00000  Uiso   1.00
C330   C     0.49923   0.83515   0.25028   0.00000  Uiso   1.00
C331   C     0.47013   0.90495   0.20879   0.00000  Uiso   1.00
C332   C     0.49838   0.61661   0.24791   0.00000  Uiso   1.00
C333   C     0.49647   0.88375   0.25005   0.00000  Uiso   1.00
C334   C     0.53011   0.59349   0.21963   0.00000  Uiso   1.00
C335   C     0.52182   0.91003   0.28967   0.00000  Uiso   1.00
C336   C     0.52867   0.54744   0.21847   0.00000  Uiso   1.00
C337   C     0.52151   0.95584   0.28765   0.00000  Uiso   1.00
C338   C     0.49685   0.52422   0.24585   0.00000  Uiso   1.00
C339   C     0.49725   0.97623   0.24651   0.00000  Uiso   1.00
C340   C     0.42806   0.61430   0.30189   0.00000  Uiso   1.00
C341   C     0.52259   0.78677   0.05866   0.00000  Uiso   1.00
C342   C     0.43567   0.61478   0.35283   0.00000  Uiso   1.00
C343   C     0.39824   0.63221   0.37825   0.00000  Uiso   1.00
C344   C     0.35281   0.64869   0.35297   0.00000  Uiso   1.00
C345   C     0.34491   0.64798   0.30227   0.00000  Uiso   1.00
C346   C     0.38260   0.63125   0.27670   0.00000  Uiso   1.00
C347   C     0.43842   0.88022   0.16780   0.00000  Uiso   1.00
C348   C     0.45165   0.88223   0.12082   0.00000  Uiso   1.00
C349   C     0.42167   0.85887   0.08220   0.00000  Uiso   1.00
C350   C     0.37813   0.83372   0.09011   0.00000  Uiso   1.00
C351   C     0.36431   0.83206   0.13661   0.00000  Uiso   1.00
C352   C     0.45109   0.74180   0.43820   0.00000  Uiso   1.00
C353   C     0.39436   0.85512   0.17541   0.00000  Uiso   1.00
C354   C     0.52504   0.78361   0.10945   0.00000  Uiso   1.00
C355   C     0.45478   0.73962   0.38798   0.00000  Uiso   1.00
C356   C     0.47215   0.71848   0.09915   0.00000  Uiso   1.00
C357   C     0.54301   0.76177   0.40437   0.00000  Uiso   1.00
C358   C     0.47231   0.71851   0.04887   0.00000  Uiso   1.00
Cu359  Cu    0.50000   0.75000   0.29821   0.00000  Uiso   1.00
Cu360  Cu    0.50000   0.75001   0.20178   0.00000  Uiso   1.00
H361   H     0.65861   0.74732   0.19375   0.00000  Uiso   1.00
H362   H     0.57715   0.76684   0.47925   0.00000  Uiso   1.00
H363   H     0.47034   0.60142   0.37272   0.00000  Uiso   1.00
H364   H     0.40427   0.63265   0.41753   0.00000  Uiso   1.00
H365   H     0.65698   0.66187   0.37265   0.00000  Uiso   1.00
H366   H     0.64269   0.66003   0.28280   0.00000  Uiso   1.00
H367   H     0.37587   0.63053   0.23738   0.00000  Uiso   1.00
H368   H     0.48541   0.90147   0.11426   0.00000  Uiso   1.00
H369   H     0.43221   0.86022   0.04613   0.00000  Uiso   1.00
H370   H     0.35498   0.81568   0.06017   0.00000  Uiso   1.00
H371   H     0.66358   0.81298   0.14252   0.00000  Uiso   1.00
H372   H     0.34139   0.75370   0.30622   0.00000  Uiso   1.00
H373   H     0.38329   0.85353   0.21131   0.00000  Uiso   1.00
H374   H     0.44077   0.52808   0.29482   0.00000  Uiso   1.00
H375   H     0.45188   0.96756   0.17595   0.00000  Uiso   1.00
H376   H     0.55328   0.52969   0.19715   0.00000  Uiso   1.00
H377   H     0.54095   0.97581   0.31808   0.00000  Uiso   1.00
H378   H     0.54565   0.80920   0.13299   0.00000  Uiso   1.00
H379   H     0.42032   0.73068   0.36300   0.00000  Uiso   1.00
H380   H     0.45280   0.69147   0.02675   0.00000  Uiso   1.00
N381   N     0.50000   0.75001   0.12934   0.00000  Uiso   1.00
N382   N     0.50000   0.74999   0.37065   0.00000  Uiso   1.00
O383   O     0.50000   0.68573   0.29071   0.00000  Uiso   1.00
O384   O     0.50000   0.81428   0.20928   0.00000  Uiso   1.00
O385   O     0.50000   0.68573   0.20928   0.00000  Uiso   1.00
O386   O     0.50000   0.81427   0.29072   0.00000  Uiso   1.00
O387   O     0.42495   0.75000   0.28132   0.00000  Uiso   1.00
O388   O     0.57505   0.75001   0.21868   0.00000  Uiso   1.00
O389   O     0.42495   0.75000   0.19988   0.00000  Uiso   1.00
O390   O     0.57505   0.75000   0.30011   0.00000  Uiso   1.00
Br391  Br    0.91177   0.62260   0.18399   0.00000  Uiso   1.00
Br392  Br    0.89332   0.88677   0.34709   0.00000  Uiso   1.00
Br393  Br    0.88558   0.83952   0.03537   0.00000  Uiso   1.00
Br394  Br    0.71698   0.73374   0.45672   0.00000  Uiso   1.00
Br395  Br    0.76088   0.67471   0.12166   0.00000  Uiso   1.00
Br396  Br    0.94051   0.78645   0.39010   0.00000  Uiso   1.00
C397   C     0.83311   0.66501   0.24945   0.00000  Uiso   1.00
C398   C     0.87503   0.76018   0.45436   0.00000  Uiso   1.00
C399   C     0.82962   0.75315   0.02714   0.00000  Uiso   1.00
C400   C     0.82897   0.75205   0.47265   0.00000  Uiso   1.00
C401   C     0.73455   0.74988   0.23746   0.00000  Uiso   1.00
C402   C     0.93212   0.75054   0.26253   0.00000  Uiso   1.00
C403   C     0.67909   0.74963   0.23065   0.00000  Uiso   1.00
C404   C     0.98761   0.75167   0.26929   0.00000  Uiso   1.00
C405   C     0.79905   0.54664   0.27412   0.00000  Uiso   1.00
C406   C     0.80515   0.95110   0.20720   0.00000  Uiso   1.00
C407   C     0.79883   0.59271   0.27490   0.00000  Uiso   1.00
C408   C     0.83256   0.83515   0.25028   0.00000  Uiso   1.00
C409   C     0.80346   0.90495   0.20879   0.00000  Uiso   1.00
C410   C     0.83172   0.61661   0.24791   0.00000  Uiso   1.00
C411   C     0.82980   0.88375   0.25005   0.00000  Uiso   1.00
C412   C     0.86345   0.59349   0.21963   0.00000  Uiso   1.00
C413   C     0.85515   0.91003   0.28967   0.00000  Uiso   1.00
C414   C     0.86200   0.54744   0.21847   0.00000  Uiso   1.00
C415   C     0.85484   0.95584   0.28765   0.00000  Uiso   1.00
C416   C     0.83018   0.52422   0.24585   0.00000  Uiso   1.00
C417   C     0.83058   0.97623   0.24651   0.00000  Uiso   1.00
C418   C     0.76139   0.61430   0.30189   0.00000  Uiso   1.00
C419   C     0.85592   0.78677   0.05866   0.00000  Uiso   1.00
C420   C     0.76900   0.61478   0.35283   0.00000  Uiso   1.00
C421   C     0.73157   0.63221   0.37825   0.00000  Uiso   1.00
C422   C     0.68614   0.64869   0.35297   0.00000  Uiso   1.00
C423   C     0.67825   0.64798   0.30227   0.00000  Uiso   1.00
C424   C     0.71594   0.63125   0.27670   0.00000  Uiso   1.00
C425   C     0.77175   0.88022   0.16780   0.00000  Uiso   1.00
C426   C     0.78498   0.88223   0.12082   0.00000  Uiso   1.00
C427   C     0.75501   0.85887   0.08220   0.00000  Uiso   1.00
C428   C     0.71147   0.83372   0.09011   0.00000  Uiso   1.00
C429   C     0.69765   0.83206   0.13661   0.00000  Uiso   1.00
C430   C     0.78442   0.74180   0.43820   0.00000  Uiso   1.00
C431   C     0.72769   0.85512   0.17541   0.00000  Uiso   1.00
C432   C     0.85837   0.78361   0.10945   0.00000  Uiso   1.00
C433   C     0.78812   0.73962   0.38798   0.00000  Uiso   1.00
C434   C     0.80548   0.71848   0.09915   0.00000  Uiso   1.00
C435   C     0.87634   0.76177   0.40437   0.00000  Uiso   1.00
C436   C     0.80564   0.71851   0.04887   0.00000  Uiso   1.00
Cu437  Cu    0.83333   0.75000   0.29821   0.00000  Uiso   1.00
Cu438  Cu    0.83333   0.75001   0.20178   0.00000  Uiso   1.00
H439   H     0.99194   0.74732   0.19375   0.00000  Uiso   1.00
H440   H     0.91048   0.76684   0.47925   0.00000  Uiso   1.00
H441   H     0.80368   0.60142   0.37272   0.00000  Uiso   1.00
H442   H     0.73761   0.63265   0.41753   0.00000  Uiso   1.00
H443   H     0.99032   0.66187   0.37265   0.00000  Uiso   1.00
H444   H     0.97602   0.66003   0.28280   0.00000  Uiso   1.00
H445   H     0.70921   0.63053   0.23738   0.00000  Uiso   1.00
H446   H     0.81874   0.90147   0.11426   0.00000  Uiso   1.00
H447   H     0.76555   0.86022   0.04613   0.00000  Uiso   1.00
H448   H     0.68832   0.81568   0.06017   0.00000  Uiso   1.00
H449   H     0.99692   0.81298   0.14252   0.00000  Uiso   1.00
H450   H     0.67472   0.75370   0.30622   0.00000  Uiso   1.00
H451   H     0.71663   0.85353   0.21131   0.00000  Uiso   1.00
H452   H     0.77411   0.52808   0.29482   0.00000  Uiso   1.00
H453   H     0.78521   0.96756   0.17595   0.00000  Uiso   1.00
H454   H     0.88661   0.52969   0.19715   0.00000  Uiso   1.00
H455   H     0.87428   0.97581   0.31808   0.00000  Uiso   1.00
H456   H     0.87898   0.80920   0.13299   0.00000  Uiso   1.00
H457   H     0.75365   0.73068   0.36300   0.00000  Uiso   1.00
H458   H     0.78613   0.69147   0.02675   0.00000  Uiso   1.00
N459   N     0.83333   0.75001   0.12934   0.00000  Uiso   1.00
N460   N     0.83333   0.74999   0.37065   0.00000  Uiso   1.00
O461   O     0.83334   0.68573   0.29071   0.00000  Uiso   1.00
O462   O     0.83333   0.81428   0.20928   0.00000  Uiso   1.00
O463   O     0.83334   0.68573   0.20928   0.00000  Uiso   1.00
O464   O     0.83333   0.81427   0.29072   0.00000  Uiso   1.00
O465   O     0.75828   0.75000   0.28132   0.00000  Uiso   1.00
O466   O     0.90839   0.75001   0.21868   0.00000  Uiso   1.00
O467   O     0.75828   0.75000   0.19988   0.00000  Uiso   1.00
O468   O     0.90839   0.75000   0.30011   0.00000  Uiso   1.00
Br469  Br    0.24511   0.12260   0.68399   0.00000  Uiso   1.00
Br470  Br    0.22665   0.38677   0.84709   0.00000  Uiso   1.00
Br471  Br    0.21892   0.33952   0.53537   0.00000  Uiso   1.00
Br472  Br    0.05032   0.23374   0.95672   0.00000  Uiso   1.00
Br473  Br    0.09422   0.17471   0.62166   0.00000  Uiso   1.00
Br474  Br    0.27385   0.28645   0.89010   0.00000  Uiso   1.00
C475   C     0.16644   0.16501   0.74945   0.00000  Uiso   1.00
C476   C     0.20836   0.26018   0.95436   0.00000  Uiso   1.00
C477   C     0.16295   0.25315   0.52714   0.00000  Uiso   1.00
C478   C     0.16231   0.25205   0.97265   0.00000  Uiso   1.00
C479   C     0.06788   0.24988   0.73746   0.00000  Uiso   1.00
C480   C     0.26546   0.25054   0.76253   0.00000  Uiso   1.00
C481   C     0.01242   0.24963   0.73065   0.00000  Uiso   1.00
C482   C     0.32094   0.25167   0.76929   0.00000  Uiso   1.00
C483   C     0.13238   0.04664   0.77412   0.00000  Uiso   1.00
C484   C     0.13848   0.45110   0.70720   0.00000  Uiso   1.00
C485   C     0.13216   0.09271   0.77490   0.00000  Uiso   1.00
C486   C     0.16589   0.33515   0.75028   0.00000  Uiso   1.00
C487   C     0.13680   0.40495   0.70879   0.00000  Uiso   1.00
C488   C     0.16505   0.11661   0.74791   0.00000  Uiso   1.00
C489   C     0.16313   0.38375   0.75005   0.00000  Uiso   1.00
C490   C     0.19678   0.09349   0.71963   0.00000  Uiso   1.00
C491   C     0.18849   0.41003   0.78967   0.00000  Uiso   1.00
C492   C     0.19534   0.04744   0.71847   0.00000  Uiso   1.00
C493   C     0.18817   0.45584   0.78765   0.00000  Uiso   1.00
C494   C     0.16352   0.02422   0.74585   0.00000  Uiso   1.00
C495   C     0.16391   0.47623   0.74651   0.00000  Uiso   1.00
C496   C     0.09473   0.11430   0.80189   0.00000  Uiso   1.00
C497   C     0.18926   0.28677   0.55866   0.00000  Uiso   1.00
C498   C     0.10234   0.11478   0.85283   0.00000  Uiso   1.00
C499   C     0.06490   0.13221   0.87825   0.00000  Uiso   1.00
C500   C     0.01948   0.14869   0.85297   0.00000  Uiso   1.00
C501   C     0.01158   0.14798   0.80227   0.00000  Uiso   1.00
C502   C     0.04927   0.13125   0.77670   0.00000  Uiso   1.00
C503   C     0.10508   0.38022   0.66780   0.00000  Uiso   1.00
C504   C     0.11831   0.38223   0.62082   0.00000  Uiso   1.00
C505   C     0.08834   0.35887   0.58220   0.00000  Uiso   1.00
C506   C     0.04480   0.33372   0.59011   0.00000  Uiso   1.00
C507   C     0.03098   0.33206   0.63661   0.00000  Uiso   1.00
C508   C     0.11776   0.24180   0.93820   0.00000  Uiso   1.00
C509   C     0.06102   0.35512   0.67541   0.00000  Uiso   1.00
C510   C     0.19171   0.28361   0.60945   0.00000  Uiso   1.00
C511   C     0.12145   0.23962   0.88798   0.00000  Uiso   1.00
C512   C     0.13881   0.21848   0.59915   0.00000  Uiso   1.00
C513   C     0.20968   0.26177   0.90437   0.00000  Uiso   1.00
C514   C     0.13898   0.21851   0.54887   0.00000  Uiso   1.00
Cu515  Cu    0.16667   0.25000   0.79821   0.00000  Uiso   1.00
Cu516  Cu    0.16667   0.25001   0.70178   0.00000  Uiso   1.00
H517   H     0.32527   0.24732   0.69375   0.00000  Uiso   1.00
H518   H     0.24382   0.26684   0.97925   0.00000  Uiso   1.00
H519   H     0.13701   0.10142   0.87272   0.00000  Uiso   1.00
H520   H     0.07094   0.13265   0.91753   0.00000  Uiso   1.00
H521   H     0.32365   0.16187   0.87265   0.00000  Uiso   1.00
H522   H     0.30935   0.16003   0.78280   0.00000  Uiso   1.00
H523   H     0.04254   0.13053   0.73738   0.00000  Uiso   1.00
H524   H     0.15208   0.40147   0.61426   0.00000  Uiso   1.00
H525   H     0.09888   0.36022   0.54613   0.00000  Uiso   1.00
H526   H     0.02165   0.31568   0.56017   0.00000  Uiso   1.00
H527   H     0.33025   0.31298   0.64252   0.00000  Uiso   1.00
H528   H     0.00805   0.25370   0.80622   0.00000  Uiso   1.00
H529   H     0.04996   0.35353   0.71131   0.00000  Uiso   1.00
H530   H     0.10744   0.02808   0.79482   0.00000  Uiso   1.00
H531   H     0.11855   0.46756   0.67595   0.00000  Uiso   1.00
H532   H     0.21994   0.02969   0.69715   0.00000  Uiso   1.00
H533   H     0.20762   0.47581   0.81808   0.00000  Uiso   1.00
H534   H     0.21232   0.30920   0.63299   0.00000  Uiso   1.00
H535   H     0.08699   0.23068   0.86300   0.00000  Uiso   1.00
H536   H     0.11947   0.19147   0.52675   0.00000  Uiso   1.00
N537   N     0.16667   0.25001   0.62934   0.00000  Uiso   1.00
N538   N     0.16667   0.24999   0.87065   0.00000  Uiso   1.00
O539   O     0.16667   0.18573   0.79071   0.00000  Uiso   1.00
O540   O     0.16666   0.31428   0.70928   0.00000  Uiso   1.00
O541   O     0.16667   0.18573   0.70928   0.00000  Uiso   1.00
O542   O     0.16666   0.31427   0.79072   0.00000  Uiso   1.00
O543   O     0.09161   0.25000   0.78132   0.00000  Uiso   1.00
O544   O     0.24172   0.25001   0.71868   0.00000  Uiso   1.00
O545   O     0.09161   0.25000   0.69988   0.00000  Uiso   1.00
O546   O     0.24172   0.25000   0.80011   0.00000  Uiso   1.00
Br547  Br    0.57844   0.12260   0.68399   0.00000  Uiso   1.00
Br548  Br    0.55998   0.38677   0.84709   0.00000  Uiso   1.00
Br549  Br    0.55225   0.33952   0.53537   0.00000  Uiso   1.00
Br550  Br    0.38365   0.23374   0.95672   0.00000  Uiso   1.00
Br551  Br    0.42755   0.17471   0.62166   0.00000  Uiso   1.00
Br552  Br    0.60718   0.28645   0.89010   0.00000  Uiso   1.00
C553   C     0.49978   0.16501   0.74945   0.00000  Uiso   1.00
C554   C     0.54169   0.26018   0.95436   0.00000  Uiso   1.00
C555   C     0.49628   0.25315   0.52714   0.00000  Uiso   1.00
C556   C     0.49564   0.25205   0.97265   0.00000  Uiso   1.00
C557   C     0.40122   0.24988   0.73746   0.00000  Uiso   1.00
C558   C     0.59879   0.25054   0.76253   0.00000  Uiso   1.00
C559   C     0.34575   0.24963   0.73065   0.00000  Uiso   1.00
C560   C     0.65427   0.25167   0.76929   0.00000  Uiso   1.00
C561   C     0.46572   0.04664   0.77412   0.00000  Uiso   1.00
C562   C     0.47182   0.45110   0.70720   0.00000  Uiso   1.00
C563   C     0.46550   0.09271   0.77490   0.00000  Uiso   1.00
C564   C     0.49923   0.33515   0.75028   0.00000  Uiso   1.00
C565   C     0.47013   0.40495   0.70879   0.00000  Uiso   1.00
C566   C     0.49838   0.11661   0.74791   0.00000  Uiso   1.00
C567   C     0.49647   0.38375   0.75005   0.00000  Uiso   1.00
C568   C     0.53011   0.09349   0.71963   0.00000  Uiso   1.00
C569   C     0.52182   0.41003   0.78967   0.00000  Uiso   1.00
C570   C     0.52867   0.04744   0.71847   0.00000  Uiso   1.00
C571   C     0.52151   0.45584   0.78765   0.00000  Uiso   1.00
C572   C     0.49685   0.02422   0.74585   0.00000  Uiso   1.00
C573   C     0.49725   0.47623   0.74651   0.00000  Uiso   1.00
C574   C     0.42806   0.11430   0.80189   0.00000  Uiso   1.00
C575   C     0.52259   0.28677   0.55866   0.00000  Uiso   1.00
C576   C     0.43567   0.11478   0.85283   0.00000  Uiso   1.00
C577   C     0.39824   0.13221   0.87825   0.00000  Uiso   1.00
C578   C     0.35281   0.14869   0.85297   0.00000  Uiso   1.00
C579   C     0.34491   0.14798   0.80227   0.00000  Uiso   1.00
C580   C     0.38260   0.13125   0.77670   0.00000  Uiso   1.00
C581   C     0.43842   0.38022   0.66780   0.00000  Uiso   1.00
C582   C     0.45165   0.38223   0.62082   0.00000  Uiso   1.00
C583   C     0.42167   0.35887   0.58220   0.00000  Uiso   1.00
C584   C     0.37813   0.33372   0.59011   0.00000  Uiso   1.00
C585   C     0.36431   0.33206   0.63661   0.00000  Uiso   1.00
C586   C     0.45109   0.24180   0.93820   0.00000  Uiso   1.00
C587   C     0.39436   0.35512   0.67541   0.00000  Uiso   1.00
C588   C     0.52504   0.28361   0.60945   0.00000  Uiso   1.00
C589   C     0.45478   0.23962   0.88798   0.00000  Uiso   1.00
C590   C     0.47215   0.21848   0.59915   0.00000  Uiso   1.00
C591   C     0.54301   0.26177   0.90437   0.00000  Uiso   1.00
C592   C     0.47231   0.21851   0.54887   0.00000  Uiso   1.00
Cu593  Cu    0.50000   0.25000   0.79821   0.00000  Uiso   1.00
Cu594  Cu    0.50000   0.25001   0.70178   0.00000  Uiso   1.00
H595   H     0.65861   0.24732   0.69375   0.00000  Uiso   1.00
H596   H     0.57715   0.26684   0.97925   0.00000  Uiso   1.00
H597   H     0.47034   0.10142   0.87272   0.00000  Uiso   1.00
H598   H     0.40427   0.13265   0.91753   0.00000  Uiso   1.00
H599   H     0.65698   0.16187   0.87265   0.00000  Uiso   1.00
H600   H     0.64269   0.16003   0.78280   0.00000  Uiso   1.00
H601   H     0.37587   0.13053   0.73738   0.00000  Uiso   1.00
H602   H     0.48541   0.40147   0.61426   0.00000  Uiso   1.00
H603   H     0.43221   0.36022   0.54613   0.00000  Uiso   1.00
H604   H     0.35498   0.31568   0.56017   0.00000  Uiso   1.00
H605   H     0.66358   0.31298   0.64252   0.00000  Uiso   1.00
H606   H     0.34139   0.25370   0.80622   0.00000  Uiso   1.00
H607   H     0.38329   0.35353   0.71131   0.00000  Uiso   1.00
H608   H     0.44077   0.02808   0.79482   0.00000  Uiso   1.00
H609   H     0.45188   0.46756   0.67595   0.00000  Uiso   1.00
H610   H     0.55328   0.02969   0.69715   0.00000  Uiso   1.00
H611   H     0.54095   0.47581   0.81808   0.00000  Uiso   1.00
H612   H     0.54565   0.30920   0.63299   0.00000  Uiso   1.00
H613   H     0.42032   0.23068   0.86300   0.00000  Uiso   1.00
H614   H     0.45280   0.19147   0.52675   0.00000  Uiso   1.00
N615   N     0.50000   0.25001   0.62934   0.00000  Uiso   1.00
N616   N     0.50000   0.24999   0.87065   0.00000  Uiso   1.00
O617   O     0.50000   0.18573   0.79071   0.00000  Uiso   1.00
O618   O     0.50000   0.31428   0.70928   0.00000  Uiso   1.00
O619   O     0.50000   0.18573   0.70928   0.00000  Uiso   1.00
O620   O     0.50000   0.31427   0.79072   0.00000  Uiso   1.00
O621   O     0.42495   0.25000   0.78132   0.00000  Uiso   1.00
O622   O     0.57505   0.25001   0.71868   0.00000  Uiso   1.00
O623   O     0.42495   0.25000   0.69988   0.00000  Uiso   1.00
O624   O     0.57505   0.25000   0.80011   0.00000  Uiso   1.00
Br625  Br    0.91177   0.12260   0.68399   0.00000  Uiso   1.00
Br626  Br    0.89332   0.38677   0.84709   0.00000  Uiso   1.00
Br627  Br    0.88558   0.33952   0.53537   0.00000  Uiso   1.00
Br628  Br    0.71698   0.23374   0.95672   0.00000  Uiso   1.00
Br629  Br    0.76088   0.17471   0.62166   0.00000  Uiso   1.00
Br630  Br    0.94051   0.28645   0.89010   0.00000  Uiso   1.00
C631   C     0.83311   0.16501   0.74945   0.00000  Uiso   1.00
C632   C     0.87503   0.26018   0.95436   0.00000  Uiso   1.00
C633   C     0.82962   0.25315   0.52714   0.00000  Uiso   1.00
C634   C     0.82897   0.25205   0.97265   0.00000  Uiso   1.00
C635   C     0.73455   0.24988   0.73746   0.00000  Uiso   1.00
C636   C     0.93212   0.25054   0.76253   0.00000  Uiso   1.00
C637   C     0.67909   0.24963   0.73065   0.00000  Uiso   1.00
C638   C     0.98761   0.25167   0.76929   0.00000  Uiso   1.00
C639   C     0.79905   0.04664   0.77412   0.00000  Uiso   1.00
C640   C     0.80515   0.45110   0.70720   0.00000  Uiso   1.00
C641   C     0.79883   0.09271   0.77490   0.00000  Uiso   1.00
C642   C     0.83256   0.33515   0.75028   0.00000  Uiso   1.00
C643   C     0.80346   0.40495   0.70879   0.00000  Uiso   1.00
C644   C     0.83172   0.11661   0.74791   0.00000  Uiso   1.00
C645   C     0.82980   0.38375   0.75005   0.00000  Uiso   1.00
C646   C     0.86345   0.09349   0.71963   0.00000  Uiso   1.00
C647   C     0.85515   0.41003   0.78967   0.00000  Uiso   1.00
C648   C     0.86200   0.04744   0.71847   0.00000  Uiso   1.00
C649   C     0.85484   0.45584   0.78765   0.00000  Uiso   1.00
C650   C     0.83018   0.02422   0.74585   0.00000  Uiso   1.00
C651   C     0.83058   0.47623   0.74651   0.00000  Uiso   1.00
C652   C     0.76139   0.11430   0.80189   0.00000  Uiso   1.00
C653   C     0.85592   0.28677   0.55866   0.00000  Uiso   1.00
C654   C     0.76900   0.11478   0.85283   0.00000  Uiso   1.00
C655   C     0.73157   0.13221   0.87825   0.00000  Uiso   1.00
C656   C     0.68614   0.14869   0.85297   0.00000  Uiso   1.00
C657   C     0.67825   0.14798   0.80227   0.00000  Uiso   1.00
C658   C     0.71594   0.13125   0.77670   0.00000  Uiso   1.00
C659   C     0.77175   0.38022   0.66780   0.00000  Uiso   1.00
C660   C     0.78498   0.38223   0.62082   0.00000  Uiso   1.00
C661   C     0.75501   0.35887   0.58220   0.00000  Uiso   1.00
C662   C     0.71147   0.33372   0.59011   0.00000  Uiso   1.00
C663   C     0.69765   0.33206   0.63661   0.00000  Uiso   1.00
C664   C     0.78442   0.24180   0.93820   0.00000  Uiso   1.00
C665   C     0.72769   0.35512   0.67541   0.00000  Uiso   1.00
C666   C     0.85837   0.28361   0.60945   0.00000  Uiso   1.00
C667   C     0.78812   0.23962   0.88798   0.00000  Uiso   1.00
C668   C     0.80548   0.21848   0.59915   0.00000  Uiso   1.00
C669   C     0.87634   0.26177   0.90437   0.00000  Uiso   1.00
C670   C     0.80564   0.21851   0.54887   0.00000  Uiso   1.00
Cu671  Cu    0.83333   0.25000   0.79821   0.00000  Uiso   1.00
Cu672  Cu    0.83333   0.25001   0.70178   0.00000  Uiso   1.00
H673   H     0.99194   0.24732   0.69375   0.00000  Uiso   1.00
H674   H     0.91048   0.26684   0.97925   0.00000  Uiso   1.00
H675   H     0.80368   0.10142   0.87272   0.00000  Uiso   1.00
H676   H     0.73761   0.13265   0.91753   0.00000  Uiso   1.00
H677   H     0.99032   0.16187   0.87265   0.00000  Uiso   1.00
H678   H     0.97602   0.16003   0.78280   0.00000  Uiso   1.00
H679   H     0.70921   0.13053   0.73738   0.00000  Uiso   1.00
H680   H     0.81874   0.40147   0.61426   0.00000  Uiso   1.00
H681   H     0.76555   0.36022   0.54613   0.00000  Uiso   1.00
H682   H     0.68832   0.31568   0.56017   0.00000  Uiso   1.00
H683   H     0.99692   0.31298   0.64252   0.00000  Uiso   1.00
H684   H     0.67472   0.25370   0.80622   0.00000  Uiso   1.00
H685   H     0.71663   0.35353   0.71131   0.00000  Uiso   1.00
H686   H     0.77411   0.02808   0.79482   0.00000  Uiso   1.00
H687   H     0.78521   0.46756   0.67595   0.00000  Uiso   1.00
H688   H     0.88661   0.02969   0.69715   0.00000  Uiso   1.00
H689   H     0.87428   0.47581   0.81808   0.00000  Uiso   1.00
H690   H     0.87898   0.30920   0.63299   0.00000  Uiso   1.00
H691   H     0.75365   0.23068   0.86300   0.00000  Uiso   1.00
H692   H     0.78613   0.19147   0.52675   0.00000  Uiso   1.00
N693   N     0.83333   0.25001   0.62934   0.00000  Uiso   1.00
N694   N     0.83333   0.24999   0.87065   0.00000  Uiso   1.00
O695   O     0.83334   0.18573   0.79071   0.00000  Uiso   1.00
O696   O     0.83333   0.31428   0.70928   0.00000  Uiso   1.00
O697   O     0.83334   0.18573   0.70928   0.00000  Uiso   1.00
O698   O     0.83333   0.31427   0.79072   0.00000  Uiso   1.00
O699   O     0.75828   0.25000   0.78132   0.00000  Uiso   1.00
O700   O     0.90839   0.25001   0.71868   0.00000  Uiso   1.00
O701   O     0.75828   0.25000   0.69988   0.00000  Uiso   1.00
O702   O     0.90839   0.25000   0.80011   0.00000  Uiso   1.00
Br703  Br    0.24511   0.62260   0.68399   0.00000  Uiso   1.00
Br704  Br    0.22665   0.88677   0.84709   0.00000  Uiso   1.00
Br705  Br    0.21892   0.83952   0.53537   0.00000  Uiso   1.00
Br706  Br    0.05032   0.73374   0.95672   0.00000  Uiso   1.00
Br707  Br    0.09422   0.67471   0.62166   0.00000  Uiso   1.00
Br708  Br    0.27385   0.78645   0.89010   0.00000  Uiso   1.00
C709   C     0.16644   0.66501   0.74945   0.00000  Uiso   1.00
C710   C     0.20836   0.76018   0.95436   0.00000  Uiso   1.00
C711   C     0.16295   0.75315   0.52714   0.00000  Uiso   1.00
C712   C     0.16231   0.75205   0.97265   0.00000  Uiso   1.00
C713   C     0.06788   0.74988   0.73746   0.00000  Uiso   1.00
C714   C     0.26546   0.75054   0.76253   0.00000  Uiso   1.00
C715   C     0.01242   0.74963   0.73065   0.00000  Uiso   1.00
C716   C     0.32094   0.75167   0.76929   0.00000  Uiso   1.00
C717   C     0.13238   0.54664   0.77412   0.00000  Uiso   1.00
C718   C     0.13848   0.95110   0.70720   0.00000  Uiso   1.00
C719   C     0.13216   0.59271   0.77490   0.00000  Uiso   1.00
C720   C     0.16589   0.83515   0.75028   0.00000  Uiso   1.00
C721   C     0.13680   0.90495   0.70879   0.00000  Uiso   1.00
C722   C     0.16505   0.61661   0.74791   0.00000  Uiso   1.00
C723   C     0.16313   0.88375   0.75005   0.00000  Uiso   1.00
C724   C     0.19678   0.59349   0.71963   0.00000  Uiso   1.00
C725   C     0.18849   0.91003   0.78967   0.00000  Uiso   1.00
C726   C     0.19534   0.54744   0.71847   0.00000  Uiso   1.00
C727   C     0.18817   0.95584   0.78765   0.00000  Uiso   1.00
C728   C     0.16352   0.52422   0.74585   0.00000  Uiso   1.00
C729   C     0.16391   0.97623   0.74651   0.00000  Uiso   1.00
C730   C     0.09473   0.61430   0.80189   0.00000  Uiso   1.00
C731   C     0.18926   0.78677   0.55866   0.00000  Uiso   1.00
C732   C     0.10234   0.61478   0.85283   0.00000  Uiso   1.00
C733   C     0.06490   0.63221   0.87825   0.00000  Uiso   1.00
C734   C     0.01948   0.64869   0.85297   0.00000  Uiso   1.00
C735   C     0.01158   0.64798   0.80227   0.00000  Uiso   1.00
C736   C     0.04927   0.63125   0.77670   0.00000  Uiso   1.00
C737   C     0.10508   0.88022   0.66780   0.00000  Uiso   1.00
C738   C     0.11831   0.88223   0.62082   0.00000  Uiso   1.00
C739   C     0.08834   0.85887   0.58220   0.00000  Uiso   1.00
C740   C     0.04480   0.83372   0.59011   0.00000  Uiso   1.00
C741   C     0.03098   0.83206   0.63661   0.00000  Uiso   1.00
C742   C     0.11776   0.74180   0.93820   0.00000  Uiso   1.00
C743   C     0.06102   0.85512   0.67541   0.00000  Uiso   1.00
C744   C     0.19171   0.78361   0.60945   0.00000  Uiso   1.00
C745   C     0.12145   0.73962   0.88798   0.00000  Uiso   1.00
C746   C     0.13881   0.71848   0.59915   0.00000  Uiso   1.00
C747   C     0.20968   0.76177   0.90437   0.00000  Uiso   1.00
C748   C     0.13898   0.71851   0.54887   0.00000  Uiso   1.00
Cu749  Cu    0.16667   0.75000   0.79821   0.00000  Uiso   1.00
Cu750  Cu    0.16667   0.75001   0.70178   0.00000  Uiso   1.00
H751   H     0.32527   0.74732   0.69375   0.00000  Uiso   1.00
H752   H     0.24382   0.76684   0.97925   0.00000  Uiso   1.00
H753   H     0.13701   0.60142   0.87272   0.00000  Uiso   1.00
H754   H     0.07094   0.63265   0.91753   0.00000  Uiso   1.00
H755   H     0.32365   0.66187   0.87265   0.00000  Uiso   1.00
H756   H     0.30935   0.66003   0.78280   0.00000  Uiso   1.00
H757   H     0.04254   0.63053   0.73738   0.00000  Uiso   1.00
H758   H     0.15208   0.90147   0.61426   0.00000  Uiso   1.00
H759   H     0.09888   0.86022   0.54613   0.00000  Uiso   1.00
H760   H     0.02165   0.81568   0.56017   0.00000  Uiso   1.00
H761   H     0.33025   0.81298   0.64252   0.00000  Uiso   1.00
H762   H     0.00805   0.75370   0.80622   0.00000  Uiso   1.00
H763   H     0.04996   0.85353   0.71131   0.00000  Uiso   1.00
H764   H     0.10744   0.52808   0.79482   0.00000  Uiso   1.00
H765   H     0.11855   0.96756   0.67595   0.00000  Uiso   1.00
H766   H     0.21994   0.52969   0.69715   0.00000  Uiso   1.00
H767   H     0.20762   0.97581   0.81808   0.00000  Uiso   1.00
H768   H     0.21232   0.80920   0.63299   0.00000  Uiso   1.00
H769   H     0.08699   0.73068   0.86300   0.00000  Uiso   1.00
H770   H     0.11947   0.69147   0.52675   0.00000  Uiso   1.00
N771   N     0.16667   0.75001   0.62934   0.00000  Uiso   1.00
N772   N     0.16667   0.74999   0.87065   0.00000  Uiso   1.00
O773   O     0.16667   0.68573   0.79071   0.00000  Uiso   1.00
O774   O     0.16666   0.81428   0.70928   0.00000  Uiso   1.00
O775   O     0.16667   0.68573   0.70928   0.00000  Uiso   1.00
O776   O     0.16666   0.81427   0.79072   0.00000  Uiso   1.00
O777   O     0.09161   0.75000   0.78132   0.00000  Uiso   1.00
O778   O     0.24172   0.75001   0.71868   0.00000  Uiso   1.00
O779   O     0.09161   0.75000   0.69988   0.00000  Uiso   1.00
O780   O     0.24172   0.75000   0.80011   0.00000  Uiso   1.00
Br781  Br    0.57844   0.62260   0.68399   0.00000  Uiso   1.00
Br782  Br    0.55998   0.88677   0.84709   0.00000  Uiso   1.00
Br783  Br    0.55225   0.83952   0.53537   0.00000  Uiso   1.00
Br784  Br    0.38365   0.73374   0.95672   0.00000  Uiso   1.00
Br785  Br    0.42755   0.67471   0.62166   0.00000  Uiso   1.00
Br786  Br    0.60718   0.78645   0.89010   0.00000  Uiso   1.00
C787   C     0.49978   0.66501   0.74945   0.00000  Uiso   1.00
C788   C     0.54169   0.76018   0.95436   0.00000  Uiso   1.00
C789   C     0.49628   0.75315   0.52714   0.00000  Uiso   1.00
C790   C     0.49564   0.75205   0.97265   0.00000  Uiso   1.00
C791   C     0.40122   0.74988   0.73746   0.00000  Uiso   1.00
C792   C     0.59879   0.75054   0.76253   0.00000  Uiso   1.00
C793   C     0.34575   0.74963   0.73065   0.00000  Uiso   1.00
C794   C     0.65427   0.75167   0.76929   0.00000  Uiso   1.00
C795   C     0.46572   0.54664   0.77412   0.00000  Uiso   1.00
C796   C     0.47182   0.95110   0.70720   0.00000  Uiso   1.00
C797   C     0.46550   0.59271   0.77490   0.00000  Uiso   1.00
C798   C     0.49923   0.83515   0.75028   0.00000  Uiso   1.00
C799   C     0.47013   0.90495   0.70879   0.00000  Uiso   1.00
C800   C     0.49838   0.61661   0.74791   0.00000  Uiso   1.00
C801   C     0.49647   0.88375   0.75005   0.00000  Uiso   1.00
C802   C     0.53011   0.59349   0.71963   0.00000  Uiso   1.00
C803   C     0.52182   0.91003   0.78967   0.00000  Uiso   1.00
C804   C     0.52867   0.54744   0.71847   0.00000  Uiso   1.00
C805   C     0.52151   0.95584   0.78765   0.00000  Uiso   1.00
C806   C     0.49685   0.52422   0.74585   0.00000  Uiso   1.00
C807   C     0.49725   0.97623   0.74651   0.00000  Uiso   1.00
C808   C     0.42806   0.61430   0.80189   0.00000  Uiso   1.00
C809   C     0.52259   0.78677   0.55866   0.00000  Uiso   1.00
C810   C     0.43567   0.61478   0.85283   0.00000  Uiso   1.00
C811   C     0.39824   0.63221   0.87825   0.00000  Uiso   1.00
C812   C     0.35281   0.64869   0.85297   0.00000  Uiso   1.00
C813   C     0.34491   0.64798   0.80227   0.00000  Uiso   1.00
C814   C     0.38260   0.63125   0.77670   0.00000  Uiso   1.00
C815   C     0.43842   0.88022   0.66780   0.00000  Uiso   1.00
C816   C     0.45165   0.88223   0.62082   0.00000  Uiso   1.00
C817   C     0.42167   0.85887   0.58220   0.00000  Uiso   1.00
C818   C     0.37813   0.83372   0.59011   0.00000  Uiso   1.00
C819   C     0.36431   0.83206   0.63661   0.00000  Uiso   1.00
C820   C     0.45109   0.74180   0.93820   0.00000  Uiso   1.00
C821   C     0.39436   0.85512   0.67541   0.00000  Uiso   1.00
C822   C     0.52504   0.78361   0.60945   0.00000  Uiso   1.00
C823   C     0.45478   0.73962   0.88798   0.00000  Uiso   1.00
C824   C     0.47215   0.71848   0.59915   0.00000  Uiso   1.00
C825   C     0.54301   0.76177   0.90437   0.00000  Uiso   1.00
C826   C     0.47231   0.71851   0.54887   0.00000  Uiso   1.00
Cu827  Cu    0.50000   0.75000   0.79821   0.00000  Uiso   1.00
Cu828  Cu    0.50000   0.75001   0.70178   0.00000  Uiso   1.00
H829   H     0.65861   0.74732   0.69375   0.00000  Uiso   1.00
H830   H     0.57715   0.76684   0.97925   0.00000  Uiso   1.00
H831   H     0.47034   0.60142   0.87272   0.00000  Uiso   1.00
H832   H     0.40427   0.63265   0.91753   0.00000  Uiso   1.00
H833   H     0.65698   0.66187   0.87265   0.00000  Uiso   1.00
H834   H     0.64269   0.66003   0.78280   0.00000  Uiso   1.00
H835   H     0.37587   0.63053   0.73738   0.00000  Uiso   1.00
H836   H     0.48541   0.90147   0.61426   0.00000  Uiso   1.00
H837   H     0.43221   0.86022   0.54613   0.00000  Uiso   1.00
H838   H     0.35498   0.81568   0.56017   0.00000  Uiso   1.00
H839   H     0.66358   0.81298   0.64252   0.00000  Uiso   1.00
H840   H     0.34139   0.75370   0.80622   0.00000  Uiso   1.00
H841   H     0.38329   0.85353   0.71131   0.00000  Uiso   1.00
H842   H     0.44077   0.52808   0.79482   0.00000  Uiso   1.00
H843   H     0.45188   0.96756   0.67595   0.00000  Uiso   1.00
H844   H     0.55328   0.52969   0.69715   0.00000  Uiso   1.00
H845   H     0.54095   0.97581   0.81808   0.00000  Uiso   1.00
H846   H     0.54565   0.80920   0.63299   0.00000  Uiso   1.00
H847   H     0.42032   0.73068   0.86300   0.00000  Uiso   1.00
H848   H     0.45280   0.69147   0.52675   0.00000  Uiso   1.00
N849   N     0.50000   0.75001   0.62934   0.00000  Uiso   1.00
N850   N     0.50000   0.74999   0.87065   0.00000  Uiso   1.00
O851   O     0.50000   0.68573   0.79071   0.00000  Uiso   1.00
O852   O     0.50000   0.81428   0.70928   0.00000  Uiso   1.00
O853   O     0.50000   0.68573   0.70928   0.00000  Uiso   1.00
O854   O     0.50000   0.81427   0.79072   0.00000  Uiso   1.00
O855   O     0.42495   0.75000   0.78132   0.00000  Uiso   1.00
O856   O     0.57505   0.75001   0.71868   0.00000  Uiso   1.00
O857   O     0.42495   0.75000   0.69988   0.00000  Uiso   1.00
O858   O     0.57505   0.75000   0.80011   0.00000  Uiso   1.00
Br859  Br    0.91177   0.62260   0.68399   0.00000  Uiso   1.00
Br860  Br    0.89332   0.88677   0.84709   0.00000  Uiso   1.00
Br861  Br    0.88558   0.83952   0.53537   0.00000  Uiso   1.00
Br862  Br    0.71698   0.73374   0.95672   0.00000  Uiso   1.00
Br863  Br    0.76088   0.67471   0.62166   0.00000  Uiso   1.00
Br864  Br    0.94051   0.78645   0.89010   0.00000  Uiso   1.00
C865   C     0.83311   0.66501   0.74945   0.00000  Uiso   1.00
C866   C     0.87503   0.76018   0.95436   0.00000  Uiso   1.00
C867   C     0.82962   0.75315   0.52714   0.00000  Uiso   1.00
C868   C     0.82897   0.75205   0.97265   0.00000  Uiso   1.00
C869   C     0.73455   0.74988   0.73746   0.00000  Uiso   1.00
C870   C     0.93212   0.75054   0.76253   0.00000  Uiso   1.00
C871   C     0.67909   0.74963   0.73065   0.00000  Uiso   1.00
C872   C     0.98761   0.75167   0.76929   0.00000  Uiso   1.00
C873   C     0.79905   0.54664   0.77412   0.00000  Uiso   1.00
C874   C     0.80515   0.95110   0.70720   0.00000  Uiso   1.00
C875   C     0.79883   0.59271   0.77490   0.00000  Uiso   1.00
C876   C     0.83256   0.83515   0.75028   0.00000  Uiso   1.00
C877   C     0.80346   0.90495   0.70879   0.00000  Uiso   1.00
C878   C     0.83172   0.61661   0.74791   0.00000  Uiso   1.00
C879   C     0.82980   0.88375   0.75005   0.00000  Uiso   1.00
C880   C     0.86345   0.59349   0.71963   0.00000  Uiso   1.00
C881   C     0.85515   0.91003   0.78967   0.00000  Uiso   1.00
C882   C     0.86200   0.54744   0.71847   0.00000  Uiso   1.00
C883   C     0.85484   0.95584   0.78765   0.00000  Uiso   1.00
C884   C     0.83018   0.52422   0.74585   0.00000  Uiso   1.00
C885   C     0.83058   0.97623   0.74651   0.00000  Uiso   1.00
C886   C     0.76139   0.61430   0.80189   0.00000  Uiso   1.00
C887   C     0.85592   0.78677   0.55866   0.00000  Uiso   1.00
C888   C     0.76900   0.61478   0.85283   0.00000  Uiso   1.00
C889   C     0.73157   0.63221   0.87825   0.00000  Uiso   1.00
C890   C     0.68614   0.64869   0.85297   0.00000  Uiso   1.00
C891   C     0.67825   0.64798   0.80227   0.00000  Uiso   1.00
C892   C     0.71594   0.63125   0.77670   0.00000  Uiso   1.00
C893   C     0.77175   0.88022   0.66780   0.00000  Uiso   1.00
C894   C     0.78498   0.88223   0.62082   0.00000  Uiso   1.00
C895   C     0.75501   0.85887   0.58220   0.00000  Uiso   1.00
C896   C     0.71147   0.83372   0.59011   0.00000  Uiso   1.00
C897   C     0.69765   0.83206   0.63661   0.00000  Uiso   1.00
C898   C     0.78442   0.74180   0.93820   0.00000  Uiso   1.00
C899   C     0.72769   0.85512   0.67541   0.00000  Uiso   1.00
C900   C     0.85837   0.78361   0.60945   0.00000  Uiso   1.00
C901   C     0.78812   0.73962   0.88798   0.00000  Uiso   1.00
C902   C     0.80548   0.71848   0.59915   0.00000  Uiso   1.00
C903   C     0.87634   0.76177   0.90437   0.00000  Uiso   1.00
C904   C     0.80564   0.71851   0.54887   0.00000  Uiso   1.00
Cu905  Cu    0.83333   0.75000   0.79821   0.00000  Uiso   1.00
Cu906  Cu    0.83333   0.75001   0.70178   0.00000  Uiso   1.00
H907   H     0.99194   0.74732   0.69375   0.00000  Uiso   1.00
H908   H     0.91048   0.76684   0.97925   0.00000  Uiso   1.00
H909   H     0.80368   0.60142   0.87272   0.00000  Uiso   1.00
H910   H     0.73761   0.63265   0.91753   0.00000  Uiso   1.00
H911   H     0.99032   0.66187   0.87265   0.00000  Uiso   1.00
H912   H     0.97602   0.66003   0.78280   0.00000  Uiso   1.00
H913   H     0.70921   0.63053   0.73738   0.00000  Uiso   1.00
H914   H     0.81874   0.90147   0.61426   0.00000  Uiso   1.00
H915   H     0.76555   0.86022   0.54613   0.00000  Uiso   1.00
H916   H     0.68832   0.81568   0.56017   0.00000  Uiso   1.00
H917   H     0.99692   0.81298   0.64252   0.00000  Uiso   1.00
H918   H     0.67472   0.75370   0.80622   0.00000  Uiso   1.00
H919   H     0.71663   0.85353   0.71131   0.00000  Uiso   1.00
H920   H     0.77411   0.52808   0.79482   0.00000  Uiso   1.00
H921   H     0.78521   0.96756   0.67595   0.00000  Uiso   1.00
H922   H     0.88661   0.52969   0.69715   0.00000  Uiso   1.00
H923   H     0.87428   0.97581   0.81808   0.00000  Uiso   1.00
H924   H     0.87898   0.80920   0.63299   0.00000  Uiso   1.00
H925   H     0.75365   0.73068   0.86300   0.00000  Uiso   1.00
H926   H     0.78613   0.69147   0.52675   0.00000  Uiso   1.00
N927   N     0.83333   0.75001   0.62934   0.00000  Uiso   1.00
N928   N     0.83333   0.74999   0.87065   0.00000  Uiso   1.00
O929   O     0.83334   0.68573   0.79071   0.00000  Uiso   1.00
O930   O     0.83333   0.81428   0.70928   0.00000  Uiso   1.00
O931   O     0.83334   0.68573   0.70928   0.00000  Uiso   1.00
O932   O     0.83333   0.81427   0.79072   0.00000  Uiso   1.00
O933   O     0.75828   0.75000   0.78132   0.00000  Uiso   1.00
O934   O     0.90839   0.75001   0.71868   0.00000  Uiso   1.00
O935   O     0.75828   0.75000   0.69988   0.00000  Uiso   1.00
O936   O     0.90839   0.75000   0.80011   0.00000  Uiso   1.00
loop_
_geom_bond_atom_site_label_1
_geom_bond_atom_site_label_2
_geom_bond_distance
_geom_bond_site_symmetry_2
_ccdc_geom_bond_type
Br1    C22     1.924   .     S
Br2    C23     1.915   .     S
Br3    C29     1.921   .     S
Br4    C40     1.918   .     S
Br5    C44     1.915   .     S
Br6    C45     1.914   .     S
C7     O73     1.295   .     A
C7     O71     1.297   .     A
C7     C20     1.463   .     S
C8     C45     1.401   .     A
C8     H50     1.083   .     S
C8     C10     1.392   .     A
C9     C29     1.422   .     A
C9     C46     1.399   .     A
C9     C478    1.516   1_554 S
C10    C40     1.417   .     A
C10    C477    1.516   .     S
C11    O77     1.293   .     A
C11    O75     1.286   .     A
C11    C13     1.433   .     S
C12    O78     1.294   .     A
C12    C14     1.433   .     S
C12    O76     1.285   .     A
C13    C170    1.338   1_455 S
C13    H205    1.087   1_455 S
C14    C91     1.338   .     S
C14    H138    1.087   .     S
C15    C26     1.393   .     A
C15    C17     1.393   .     A
C15    H62     1.085   .     S
C16    H63     1.085   .     S
C16    C27     1.393   .     A
C16    C19     1.398   .     A
C17    C20     1.416   .     A
C17    C28     1.477   .     S
C18    C21     1.474   .     S
C18    O74     1.302   .     A
C18    O72     1.297   .     A
C19    C21     1.425   .     A
C19    C35     1.483   .     S
C20    C22     1.415   .     A
C21    C23     1.416   .     A
C22    C24     1.392   .     A
C23    C25     1.389   .     A
C24    C26     1.394   .     A
C24    H64     1.084   .     S
C25    H65     1.084   .     S
C25    C27     1.391   .     A
C26    C261    1.453   1_545 S
C27    C260    1.453   .     S
C28    C34     1.404   .     A
C28    C30     1.404   .     A
C29    C42     1.413   .     A
C30    H51     1.083   .     S
C30    C31     1.398   .     A
C31    H52     1.082   .     S
C31    C32     1.398   .     A
C32    C33     1.397   .     A
C32    H209    1.082   1_455 S
C33    C34     1.398   .     A
C33    H210    1.081   1_455 S
C34    H55     1.083   .     S
C35    C36     1.405   .     A
C35    C41     1.405   .     A
C36    C37     1.399   .     A
C36    H56     1.083   .     S
C37    C38     1.397   .     A
C37    H57     1.082   .     S
C38    C39     1.397   .     A
C38    H58     1.083   .     S
C39    C41     1.399   .     A
C39    H215    1.082   1_455 S
C40    C43     1.417   .     A
C41    H61     1.083   .     S
C42    N69     1.365   .     A
C42    H66     1.081   .     S
C43    H67     1.077   .     S
C43    N70     1.371   .     A
C44    C46     1.402   .     A
C44    N69     1.376   .     A
C45    N70     1.386   .     A
C46    H68     1.082   .     S
Cu47   Cu48    2.687   .     S
Cu47   N70     2.019   .     S
Cu47   O71     1.951   .     S
Cu47   O74     1.960   .     S
Cu47   O75     1.947   .     S
Cu47   O78     1.954   .     S
Cu48   O76     1.947   .     S
Cu48   N69     2.019   .     S
Cu48   O72     1.951   .     S
Cu48   O77     1.954   .     S
Cu48   O73     1.960   .     S
H49    C91     1.087   .     S
H53    C110    1.082   .     S
H54    C111    1.081   .     S
H59    C117    1.082   .     S
H60    C170    1.087   1_455 S
Br79   C100    1.924   .     S
Br80   C101    1.915   .     S
Br81   C107    1.921   .     S
Br82   C118    1.918   .     S
Br83   C122    1.915   .     S
Br84   C123    1.914   .     S
C85    O151    1.295   .     A
C85    O149    1.297   .     A
C85    C98     1.463   .     S
C86    C123    1.401   .     A
C86    H128    1.083   .     S
C86    C88     1.392   .     A
C87    C107    1.422   .     A
C87    C124    1.399   .     A
C87    C556    1.516   1_554 S
C88    C118    1.417   .     A
C88    C555    1.516   .     S
C89    O155    1.293   .     A
C89    O153    1.286   .     A
C89    C91     1.433   .     S
C90    O156    1.294   .     A
C90    C92     1.433   .     S
C90    O154    1.285   .     A
C92    C169    1.338   .     S
C92    H216    1.087   .     S
C93    C104    1.393   .     A
C93    C95     1.393   .     A
C93    H140    1.085   .     S
C94    H141    1.085   .     S
C94    C105    1.393   .     A
C94    C97     1.398   .     A
C95    C98     1.416   .     A
C95    C106    1.477   .     S
C96    C99     1.474   .     S
C96    O152    1.302   .     A
C96    O150    1.297   .     A
C97    C99     1.425   .     A
C97    C113    1.483   .     S
C98    C100    1.415   .     A
C99    C101    1.416   .     A
C100   C102    1.392   .     A
C101   C103    1.389   .     A
C102   C104    1.394   .     A
C102   H142    1.084   .     S
C103   H143    1.084   .     S
C103   C105    1.391   .     A
C104   C339    1.453   1_545 S
C105   C338    1.453   .     S
C106   C112    1.404   .     A
C106   C108    1.404   .     A
C107   C120    1.413   .     A
C108   H129    1.083   .     S
C108   C109    1.398   .     A
C109   H130    1.082   .     S
C109   C110    1.398   .     A
C110   C111    1.397   .     A
C111   C112    1.398   .     A
C112   H133    1.083   .     S
C113   C114    1.405   .     A
C113   C119    1.405   .     A
C114   C115    1.399   .     A
C114   H134    1.083   .     S
C115   C116    1.397   .     A
C115   H135    1.082   .     S
C116   C117    1.397   .     A
C116   H136    1.083   .     S
C117   C119    1.399   .     A
C118   C121    1.417   .     A
C119   H139    1.083   .     S
C120   N147    1.365   .     A
C120   H144    1.081   .     S
C121   H145    1.077   .     S
C121   N148    1.371   .     A
C122   C124    1.402   .     A
C122   N147    1.376   .     A
C123   N148    1.386   .     A
C124   H146    1.082   .     S
Cu125  Cu126   2.687   .     S
Cu125  N148    2.019   .     S
Cu125  O149    1.951   .     S
Cu125  O152    1.960   .     S
Cu125  O153    1.947   .     S
Cu125  O156    1.954   .     S
Cu126  O154    1.947   .     S
Cu126  N147    2.019   .     S
Cu126  O150    1.951   .     S
Cu126  O155    1.954   .     S
Cu126  O151    1.960   .     S
H127   C169    1.087   .     S
H131   C188    1.082   .     S
H132   C189    1.081   .     S
H137   C195    1.082   .     S
Br157  C178    1.924   .     S
Br158  C179    1.915   .     S
Br159  C185    1.921   .     S
Br160  C196    1.918   .     S
Br161  C200    1.915   .     S
Br162  C201    1.914   .     S
C163   O229    1.295   .     A
C163   O227    1.297   .     A
C163   C176    1.463   .     S
C164   C201    1.401   .     A
C164   H206    1.083   .     S
C164   C166    1.392   .     A
C165   C185    1.422   .     A
C165   C202    1.399   .     A
C165   C634    1.516   1_554 S
C166   C196    1.417   .     A
C166   C633    1.516   .     S
C167   O233    1.293   .     A
C167   O231    1.286   .     A
C167   C169    1.433   .     S
C168   O234    1.294   .     A
C168   C170    1.433   .     S
C168   O232    1.285   .     A
C170   C13     1.338   1_655 S
C170   H60     1.087   1_655 S
C171   C182    1.393   .     A
C171   C173    1.393   .     A
C171   H218    1.085   .     S
C172   H219    1.085   .     S
C172   C183    1.393   .     A
C172   C175    1.398   .     A
C173   C176    1.416   .     A
C173   C184    1.477   .     S
C174   C177    1.474   .     S
C174   O230    1.302   .     A
C174   O228    1.297   .     A
C175   C177    1.425   .     A
C175   C191    1.483   .     S
C176   C178    1.415   .     A
C177   C179    1.416   .     A
C178   C180    1.392   .     A
C179   C181    1.389   .     A
C180   C182    1.394   .     A
C180   H220    1.084   .     S
C181   H221    1.084   .     S
C181   C183    1.391   .     A
C182   C417    1.453   1_545 S
C183   C416    1.453   .     S
C184   C190    1.404   .     A
C184   C186    1.404   .     A
C185   C198    1.413   .     A
C186   H207    1.083   .     S
C186   C187    1.398   .     A
C187   H208    1.082   .     S
C187   C188    1.398   .     A
C188   C189    1.397   .     A
C189   C190    1.398   .     A
C190   H211    1.083   .     S
C191   C192    1.405   .     A
C191   C197    1.405   .     A
C192   C193    1.399   .     A
C192   H212    1.083   .     S
C193   C194    1.397   .     A
C193   H213    1.082   .     S
C194   C195    1.397   .     A
C194   H214    1.083   .     S
C195   C197    1.399   .     A
C196   C199    1.417   .     A
C197   H217    1.083   .     S
C198   N225    1.365   .     A
C198   H222    1.081   .     S
C199   H223    1.077   .     S
C199   N226    1.371   .     A
C200   C202    1.402   .     A
C200   N225    1.376   .     A
C201   N226    1.386   .     A
C202   H224    1.082   .     S
Cu203  Cu204   2.687   .     S
Cu203  N226    2.019   .     S
Cu203  O227    1.951   .     S
Cu203  O230    1.960   .     S
Cu203  O231    1.947   .     S
Cu203  O234    1.954   .     S
Cu204  O232    1.947   .     S
Cu204  N225    2.019   .     S
Cu204  O228    1.951   .     S
Cu204  O233    1.954   .     S
Cu204  O229    1.960   .     S
H205   C13     1.087   1_655 S
H209   C32     1.082   1_655 S
H210   C33     1.081   1_655 S
H215   C39     1.082   1_655 S
Br235  C256    1.924   .     S
Br236  C257    1.915   .     S
Br237  C263    1.921   .     S
Br238  C274    1.918   .     S
Br239  C278    1.915   .     S
Br240  C279    1.914   .     S
C241   O307    1.295   .     A
C241   O305    1.297   .     A
C241   C254    1.463   .     S
C242   C279    1.401   .     A
C242   H284    1.083   .     S
C242   C244    1.392   .     A
C243   C263    1.422   .     A
C243   C280    1.399   .     A
C243   C712    1.516   1_554 S
C244   C274    1.417   .     A
C244   C711    1.516   .     S
C245   O311    1.293   .     A
C245   O309    1.286   .     A
C245   C247    1.433   .     S
C246   O312    1.294   .     A
C246   C248    1.433   .     S
C246   O310    1.285   .     A
C247   C404    1.338   1_455 S
C247   H439    1.087   1_455 S
C248   C325    1.338   .     S
C248   H372    1.087   .     S
C249   C260    1.393   .     A
C249   C251    1.393   .     A
C249   H296    1.085   .     S
C250   H297    1.085   .     S
C250   C261    1.393   .     A
C250   C253    1.398   .     A
C251   C254    1.416   .     A
C251   C262    1.477   .     S
C252   C255    1.474   .     S
C252   O308    1.302   .     A
C252   O306    1.297   .     A
C253   C255    1.425   .     A
C253   C269    1.483   .     S
C254   C256    1.415   .     A
C255   C257    1.416   .     A
C256   C258    1.392   .     A
C257   C259    1.389   .     A
C258   C260    1.394   .     A
C258   H298    1.084   .     S
C259   H299    1.084   .     S
C259   C261    1.391   .     A
C261   C26     1.453   1_565 S
C262   C268    1.404   .     A
C262   C264    1.404   .     A
C263   C276    1.413   .     A
C264   H285    1.083   .     S
C264   C265    1.398   .     A
C265   H286    1.082   .     S
C265   C266    1.398   .     A
C266   C267    1.397   .     A
C266   H443    1.082   1_455 S
C267   C268    1.398   .     A
C267   H444    1.081   1_455 S
C268   H289    1.083   .     S
C269   C270    1.405   .     A
C269   C275    1.405   .     A
C270   C271    1.399   .     A
C270   H290    1.083   .     S
C271   C272    1.397   .     A
C271   H291    1.082   .     S
C272   C273    1.397   .     A
C272   H292    1.083   .     S
C273   C275    1.399   .     A
C273   H449    1.082   1_455 S
C274   C277    1.417   .     A
C275   H295    1.083   .     S
C276   N303    1.365   .     A
C276   H300    1.081   .     S
C277   H301    1.077   .     S
C277   N304    1.371   .     A
C278   C280    1.402   .     A
C278   N303    1.376   .     A
C279   N304    1.386   .     A
C280   H302    1.082   .     S
Cu281  Cu282   2.687   .     S
Cu281  N304    2.019   .     S
Cu281  O305    1.951   .     S
Cu281  O308    1.960   .     S
Cu281  O309    1.947   .     S
Cu281  O312    1.954   .     S
Cu282  O310    1.947   .     S
Cu282  N303    2.019   .     S
Cu282  O306    1.951   .     S
Cu282  O311    1.954   .     S
Cu282  O307    1.960   .     S
H283   C325    1.087   .     S
H287   C344    1.082   .     S
H288   C345    1.081   .     S
H293   C351    1.082   .     S
H294   C404    1.087   1_455 S
Br313  C334    1.924   .     S
Br314  C335    1.915   .     S
Br315  C341    1.921   .     S
Br316  C352    1.918   .     S
Br317  C356    1.915   .     S
Br318  C357    1.914   .     S
C319   O385    1.295   .     A
C319   O383    1.297   .     A
C319   C332    1.463   .     S
C320   C357    1.401   .     A
C320   H362    1.083   .     S
C320   C322    1.392   .     A
C321   C341    1.422   .     A
C321   C358    1.399   .     A
C321   C790    1.516   1_554 S
C322   C352    1.417   .     A
C322   C789    1.516   .     S
C323   O389    1.293   .     A
C323   O387    1.286   .     A
C323   C325    1.433   .     S
C324   O390    1.294   .     A
C324   C326    1.433   .     S
C324   O388    1.285   .     A
C326   C403    1.338   .     S
C326   H450    1.087   .     S
C327   C338    1.393   .     A
C327   C329    1.393   .     A
C327   H374    1.085   .     S
C328   H375    1.085   .     S
C328   C339    1.393   .     A
C328   C331    1.398   .     A
C329   C332    1.416   .     A
C329   C340    1.477   .     S
C330   C333    1.474   .     S
C330   O386    1.302   .     A
C330   O384    1.297   .     A
C331   C333    1.425   .     A
C331   C347    1.483   .     S
C332   C334    1.415   .     A
C333   C335    1.416   .     A
C334   C336    1.392   .     A
C335   C337    1.389   .     A
C336   C338    1.394   .     A
C336   H376    1.084   .     S
C337   H377    1.084   .     S
C337   C339    1.391   .     A
C339   C104    1.453   1_565 S
C340   C346    1.404   .     A
C340   C342    1.404   .     A
C341   C354    1.413   .     A
C342   H363    1.083   .     S
C342   C343    1.398   .     A
C343   H364    1.082   .     S
C343   C344    1.398   .     A
C344   C345    1.397   .     A
C345   C346    1.398   .     A
C346   H367    1.083   .     S
C347   C348    1.405   .     A
C347   C353    1.405   .     A
C348   C349    1.399   .     A
C348   H368    1.083   .     S
C349   C350    1.397   .     A
C349   H369    1.082   .     S
C350   C351    1.397   .     A
C350   H370    1.083   .     S
C351   C353    1.399   .     A
C352   C355    1.417   .     A
C353   H373    1.083   .     S
C354   N381    1.365   .     A
C354   H378    1.081   .     S
C355   H379    1.077   .     S
C355   N382    1.371   .     A
C356   C358    1.402   .     A
C356   N381    1.376   .     A
C357   N382    1.386   .     A
C358   H380    1.082   .     S
Cu359  Cu360   2.687   .     S
Cu359  N382    2.019   .     S
Cu359  O383    1.951   .     S
Cu359  O386    1.960   .     S
Cu359  O387    1.947   .     S
Cu359  O390    1.954   .     S
Cu360  O388    1.947   .     S
Cu360  N381    2.019   .     S
Cu360  O384    1.951   .     S
Cu360  O389    1.954   .     S
Cu360  O385    1.960   .     S
H361   C403    1.087   .     S
H365   C422    1.082   .     S
H366   C423    1.081   .     S
H371   C429    1.082   .     S
Br391  C412    1.924   .     S
Br392  C413    1.915   .     S
Br393  C419    1.921   .     S
Br394  C430    1.918   .     S
Br395  C434    1.915   .     S
Br396  C435    1.914   .     S
C397   O463    1.295   .     A
C397   O461    1.297   .     A
C397   C410    1.463   .     S
C398   C435    1.401   .     A
C398   H440    1.083   .     S
C398   C400    1.392   .     A
C399   C419    1.422   .     A
C399   C436    1.399   .     A
C399   C868    1.516   1_554 S
C400   C430    1.417   .     A
C400   C867    1.516   .     S
C401   O467    1.293   .     A
C401   O465    1.286   .     A
C401   C403    1.433   .     S
C402   O468    1.294   .     A
C402   C404    1.433   .     S
C402   O466    1.285   .     A
C404   C247    1.338   1_655 S
C404   H294    1.087   1_655 S
C405   C416    1.393   .     A
C405   C407    1.393   .     A
C405   H452    1.085   .     S
C406   H453    1.085   .     S
C406   C417    1.393   .     A
C406   C409    1.398   .     A
C407   C410    1.416   .     A
C407   C418    1.477   .     S
C408   C411    1.474   .     S
C408   O464    1.302   .     A
C408   O462    1.297   .     A
C409   C411    1.425   .     A
C409   C425    1.483   .     S
C410   C412    1.415   .     A
C411   C413    1.416   .     A
C412   C414    1.392   .     A
C413   C415    1.389   .     A
C414   C416    1.394   .     A
C414   H454    1.084   .     S
C415   H455    1.084   .     S
C415   C417    1.391   .     A
C417   C182    1.453   1_565 S
C418   C424    1.404   .     A
C418   C420    1.404   .     A
C419   C432    1.413   .     A
C420   H441    1.083   .     S
C420   C421    1.398   .     A
C421   H442    1.082   .     S
C421   C422    1.398   .     A
C422   C423    1.397   .     A
C423   C424    1.398   .     A
C424   H445    1.083   .     S
C425   C426    1.405   .     A
C425   C431    1.405   .     A
C426   C427    1.399   .     A
C426   H446    1.083   .     S
C427   C428    1.397   .     A
C427   H447    1.082   .     S
C428   C429    1.397   .     A
C428   H448    1.083   .     S
C429   C431    1.399   .     A
C430   C433    1.417   .     A
C431   H451    1.083   .     S
C432   N459    1.365   .     A
C432   H456    1.081   .     S
C433   H457    1.077   .     S
C433   N460    1.371   .     A
C434   C436    1.402   .     A
C434   N459    1.376   .     A
C435   N460    1.386   .     A
C436   H458    1.082   .     S
Cu437  Cu438   2.687   .     S
Cu437  N460    2.019   .     S
Cu437  O461    1.951   .     S
Cu437  O464    1.960   .     S
Cu437  O465    1.947   .     S
Cu437  O468    1.954   .     S
Cu438  O466    1.947   .     S
Cu438  N459    2.019   .     S
Cu438  O462    1.951   .     S
Cu438  O467    1.954   .     S
Cu438  O463    1.960   .     S
H439   C247    1.087   1_655 S
H443   C266    1.082   1_655 S
H444   C267    1.081   1_655 S
H449   C273    1.082   1_655 S
Br469  C490    1.924   .     S
Br470  C491    1.915   .     S
Br471  C497    1.921   .     S
Br472  C508    1.918   .     S
Br473  C512    1.915   .     S
Br474  C513    1.914   .     S
C475   O541    1.295   .     A
C475   O539    1.297   .     A
C475   C488    1.463   .     S
C476   C513    1.401   .     A
C476   H518    1.083   .     S
C476   C478    1.392   .     A
C477   C497    1.422   .     A
C477   C514    1.399   .     A
C478   C508    1.417   .     A
C478   C9      1.516   1_556 S
C479   O545    1.293   .     A
C479   O543    1.286   .     A
C479   C481    1.433   .     S
C480   O546    1.294   .     A
C480   C482    1.433   .     S
C480   O544    1.285   .     A
C481   C638    1.338   1_455 S
C481   H673    1.087   1_455 S
C482   C559    1.338   .     S
C482   H606    1.087   .     S
C483   C494    1.393   .     A
C483   C485    1.393   .     A
C483   H530    1.085   .     S
C484   H531    1.085   .     S
C484   C495    1.393   .     A
C484   C487    1.398   .     A
C485   C488    1.416   .     A
C485   C496    1.477   .     S
C486   C489    1.474   .     S
C486   O542    1.302   .     A
C486   O540    1.297   .     A
C487   C489    1.425   .     A
C487   C503    1.483   .     S
C488   C490    1.415   .     A
C489   C491    1.416   .     A
C490   C492    1.392   .     A
C491   C493    1.389   .     A
C492   C494    1.394   .     A
C492   H532    1.084   .     S
C493   H533    1.084   .     S
C493   C495    1.391   .     A
C494   C729    1.453   1_545 S
C495   C728    1.453   .     S
C496   C502    1.404   .     A
C496   C498    1.404   .     A
C497   C510    1.413   .     A
C498   H519    1.083   .     S
C498   C499    1.398   .     A
C499   H520    1.082   .     S
C499   C500    1.398   .     A
C500   C501    1.397   .     A
C500   H677    1.082   1_455 S
C501   C502    1.398   .     A
C501   H678    1.081   1_455 S
C502   H523    1.083   .     S
C503   C504    1.405   .     A
C503   C509    1.405   .     A
C504   C505    1.399   .     A
C504   H524    1.083   .     S
C505   C506    1.397   .     A
C505   H525    1.082   .     S
C506   C507    1.397   .     A
C506   H526    1.083   .     S
C507   C509    1.399   .     A
C507   H683    1.082   1_455 S
C508   C511    1.417   .     A
C509   H529    1.083   .     S
C510   N537    1.365   .     A
C510   H534    1.081   .     S
C511   H535    1.077   .     S
C511   N538    1.371   .     A
C512   C514    1.402   .     A
C512   N537    1.376   .     A
C513   N538    1.386   .     A
C514   H536    1.082   .     S
Cu515  Cu516   2.687   .     S
Cu515  N538    2.019   .     S
Cu515  O539    1.951   .     S
Cu515  O542    1.960   .     S
Cu515  O543    1.947   .     S
Cu515  O546    1.954   .     S
Cu516  O544    1.947   .     S
Cu516  N537    2.019   .     S
Cu516  O540    1.951   .     S
Cu516  O545    1.954   .     S
Cu516  O541    1.960   .     S
H517   C559    1.087   .     S
H521   C578    1.082   .     S
H522   C579    1.081   .     S
H527   C585    1.082   .     S
H528   C638    1.087   1_455 S
Br547  C568    1.924   .     S
Br548  C569    1.915   .     S
Br549  C575    1.921   .     S
Br550  C586    1.918   .     S
Br551  C590    1.915   .     S
Br552  C591    1.914   .     S
C553   O619    1.295   .     A
C553   O617    1.297   .     A
C553   C566    1.463   .     S
C554   C591    1.401   .     A
C554   H596    1.083   .     S
C554   C556    1.392   .     A
C555   C575    1.422   .     A
C555   C592    1.399   .     A
C556   C586    1.417   .     A
C556   C87     1.516   1_556 S
C557   O623    1.293   .     A
C557   O621    1.286   .     A
C557   C559    1.433   .     S
C558   O624    1.294   .     A
C558   C560    1.433   .     S
C558   O622    1.285   .     A
C560   C637    1.338   .     S
C560   H684    1.087   .     S
C561   C572    1.393   .     A
C561   C563    1.393   .     A
C561   H608    1.085   .     S
C562   H609    1.085   .     S
C562   C573    1.393   .     A
C562   C565    1.398   .     A
C563   C566    1.416   .     A
C563   C574    1.477   .     S
C564   C567    1.474   .     S
C564   O620    1.302   .     A
C564   O618    1.297   .     A
C565   C567    1.425   .     A
C565   C581    1.483   .     S
C566   C568    1.415   .     A
C567   C569    1.416   .     A
C568   C570    1.392   .     A
C569   C571    1.389   .     A
C570   C572    1.394   .     A
C570   H610    1.084   .     S
C571   H611    1.084   .     S
C571   C573    1.391   .     A
C572   C807    1.453   1_545 S
C573   C806    1.453   .     S
C574   C580    1.404   .     A
C574   C576    1.404   .     A
C575   C588    1.413   .     A
C576   H597    1.083   .     S
C576   C577    1.398   .     A
C577   H598    1.082   .     S
C577   C578    1.398   .     A
C578   C579    1.397   .     A
C579   C580    1.398   .     A
C580   H601    1.083   .     S
C581   C582    1.405   .     A
C581   C587    1.405   .     A
C582   C583    1.399   .     A
C582   H602    1.083   .     S
C583   C584    1.397   .     A
C583   H603    1.082   .     S
C584   C585    1.397   .     A
C584   H604    1.083   .     S
C585   C587    1.399   .     A
C586   C589    1.417   .     A
C587   H607    1.083   .     S
C588   N615    1.365   .     A
C588   H612    1.081   .     S
C589   H613    1.077   .     S
C589   N616    1.371   .     A
C590   C592    1.402   .     A
C590   N615    1.376   .     A
C591   N616    1.386   .     A
C592   H614    1.082   .     S
Cu593  Cu594   2.687   .     S
Cu593  N616    2.019   .     S
Cu593  O617    1.951   .     S
Cu593  O620    1.960   .     S
Cu593  O621    1.947   .     S
Cu593  O624    1.954   .     S
Cu594  O622    1.947   .     S
Cu594  N615    2.019   .     S
Cu594  O618    1.951   .     S
Cu594  O623    1.954   .     S
Cu594  O619    1.960   .     S
H595   C637    1.087   .     S
H599   C656    1.082   .     S
H600   C657    1.081   .     S
H605   C663    1.082   .     S
Br625  C646    1.924   .     S
Br626  C647    1.915   .     S
Br627  C653    1.921   .     S
Br628  C664    1.918   .     S
Br629  C668    1.915   .     S
Br630  C669    1.914   .     S
C631   O697    1.295   .     A
C631   O695    1.297   .     A
C631   C644    1.463   .     S
C632   C669    1.401   .     A
C632   H674    1.083   .     S
C632   C634    1.392   .     A
C633   C653    1.422   .     A
C633   C670    1.399   .     A
C634   C664    1.417   .     A
C634   C165    1.516   1_556 S
C635   O701    1.293   .     A
C635   O699    1.286   .     A
C635   C637    1.433   .     S
C636   O702    1.294   .     A
C636   C638    1.433   .     S
C636   O700    1.285   .     A
C638   C481    1.338   1_655 S
C638   H528    1.087   1_655 S
C639   C650    1.393   .     A
C639   C641    1.393   .     A
C639   H686    1.085   .     S
C640   H687    1.085   .     S
C640   C651    1.393   .     A
C640   C643    1.398   .     A
C641   C644    1.416   .     A
C641   C652    1.477   .     S
C642   C645    1.474   .     S
C642   O698    1.302   .     A
C642   O696    1.297   .     A
C643   C645    1.425   .     A
C643   C659    1.483   .     S
C644   C646    1.415   .     A
C645   C647    1.416   .     A
C646   C648    1.392   .     A
C647   C649    1.389   .     A
C648   C650    1.394   .     A
C648   H688    1.084   .     S
C649   H689    1.084   .     S
C649   C651    1.391   .     A
C650   C885    1.453   1_545 S
C651   C884    1.453   .     S
C652   C658    1.404   .     A
C652   C654    1.404   .     A
C653   C666    1.413   .     A
C654   H675    1.083   .     S
C654   C655    1.398   .     A
C655   H676    1.082   .     S
C655   C656    1.398   .     A
C656   C657    1.397   .     A
C657   C658    1.398   .     A
C658   H679    1.083   .     S
C659   C660    1.405   .     A
C659   C665    1.405   .     A
C660   C661    1.399   .     A
C660   H680    1.083   .     S
C661   C662    1.397   .     A
C661   H681    1.082   .     S
C662   C663    1.397   .     A
C662   H682    1.083   .     S
C663   C665    1.399   .     A
C664   C667    1.417   .     A
C665   H685    1.083   .     S
C666   N693    1.365   .     A
C666   H690    1.081   .     S
C667   H691    1.077   .     S
C667   N694    1.371   .     A
C668   C670    1.402   .     A
C668   N693    1.376   .     A
C669   N694    1.386   .     A
C670   H692    1.082   .     S
Cu671  Cu672   2.687   .     S
Cu671  N694    2.019   .     S
Cu671  O695    1.951   .     S
Cu671  O698    1.960   .     S
Cu671  O699    1.947   .     S
Cu671  O702    1.954   .     S
Cu672  O700    1.947   .     S
Cu672  N693    2.019   .     S
Cu672  O696    1.951   .     S
Cu672  O701    1.954   .     S
Cu672  O697    1.960   .     S
H673   C481    1.087   1_655 S
H677   C500    1.082   1_655 S
H678   C501    1.081   1_655 S
H683   C507    1.082   1_655 S
Br703  C724    1.924   .     S
Br704  C725    1.915   .     S
Br705  C731    1.921   .     S
Br706  C742    1.918   .     S
Br707  C746    1.915   .     S
Br708  C747    1.914   .     S
C709   O775    1.295   .     A
C709   O773    1.297   .     A
C709   C722    1.463   .     S
C710   C747    1.401   .     A
C710   H752    1.083   .     S
C710   C712    1.392   .     A
C711   C731    1.422   .     A
C711   C748    1.399   .     A
C712   C742    1.417   .     A
C712   C243    1.516   1_556 S
C713   O779    1.293   .     A
C713   O777    1.286   .     A
C713   C715    1.433   .     S
C714   O780    1.294   .     A
C714   C716    1.433   .     S
C714   O778    1.285   .     A
C715   C872    1.338   1_455 S
C715   H907    1.087   1_455 S
C716   C793    1.338   .     S
C716   H840    1.087   .     S
C717   C728    1.393   .     A
C717   C719    1.393   .     A
C717   H764    1.085   .     S
C718   H765    1.085   .     S
C718   C729    1.393   .     A
C718   C721    1.398   .     A
C719   C722    1.416   .     A
C719   C730    1.477   .     S
C720   C723    1.474   .     S
C720   O776    1.302   .     A
C720   O774    1.297   .     A
C721   C723    1.425   .     A
C721   C737    1.483   .     S
C722   C724    1.415   .     A
C723   C725    1.416   .     A
C724   C726    1.392   .     A
C725   C727    1.389   .     A
C726   C728    1.394   .     A
C726   H766    1.084   .     S
C727   H767    1.084   .     S
C727   C729    1.391   .     A
C729   C494    1.453   1_565 S
C730   C736    1.404   .     A
C730   C732    1.404   .     A
C731   C744    1.413   .     A
C732   H753    1.083   .     S
C732   C733    1.398   .     A
C733   H754    1.082   .     S
C733   C734    1.398   .     A
C734   C735    1.397   .     A
C734   H911    1.082   1_455 S
C735   C736    1.398   .     A
C735   H912    1.081   1_455 S
C736   H757    1.083   .     S
C737   C738    1.405   .     A
C737   C743    1.405   .     A
C738   C739    1.399   .     A
C738   H758    1.083   .     S
C739   C740    1.397   .     A
C739   H759    1.082   .     S
C740   C741    1.397   .     A
C740   H760    1.083   .     S
C741   C743    1.399   .     A
C741   H917    1.082   1_455 S
C742   C745    1.417   .     A
C743   H763    1.083   .     S
C744   N771    1.365   .     A
C744   H768    1.081   .     S
C745   H769    1.077   .     S
C745   N772    1.371   .     A
C746   C748    1.402   .     A
C746   N771    1.376   .     A
C747   N772    1.386   .     A
C748   H770    1.082   .     S
Cu749  Cu750   2.687   .     S
Cu749  N772    2.019   .     S
Cu749  O773    1.951   .     S
Cu749  O776    1.960   .     S
Cu749  O777    1.947   .     S
Cu749  O780    1.954   .     S
Cu750  O778    1.947   .     S
Cu750  N771    2.019   .     S
Cu750  O774    1.951   .     S
Cu750  O779    1.954   .     S
Cu750  O775    1.960   .     S
H751   C793    1.087   .     S
H755   C812    1.082   .     S
H756   C813    1.081   .     S
H761   C819    1.082   .     S
H762   C872    1.087   1_455 S
Br781  C802    1.924   .     S
Br782  C803    1.915   .     S
Br783  C809    1.921   .     S
Br784  C820    1.918   .     S
Br785  C824    1.915   .     S
Br786  C825    1.914   .     S
C787   O853    1.295   .     A
C787   O851    1.297   .     A
C787   C800    1.463   .     S
C788   C825    1.401   .     A
C788   H830    1.083   .     S
C788   C790    1.392   .     A
C789   C809    1.422   .     A
C789   C826    1.399   .     A
C790   C820    1.417   .     A
C790   C321    1.516   1_556 S
C791   O857    1.293   .     A
C791   O855    1.286   .     A
C791   C793    1.433   .     S
C792   O858    1.294   .     A
C792   C794    1.433   .     S
C792   O856    1.285   .     A
C794   C871    1.338   .     S
C794   H918    1.087   .     S
C795   C806    1.393   .     A
C795   C797    1.393   .     A
C795   H842    1.085   .     S
C796   H843    1.085   .     S
C796   C807    1.393   .     A
C796   C799    1.398   .     A
C797   C800    1.416   .     A
C797   C808    1.477   .     S
C798   C801    1.474   .     S
C798   O854    1.302   .     A
C798   O852    1.297   .     A
C799   C801    1.425   .     A
C799   C815    1.483   .     S
C800   C802    1.415   .     A
C801   C803    1.416   .     A
C802   C804    1.392   .     A
C803   C805    1.389   .     A
C804   C806    1.394   .     A
C804   H844    1.084   .     S
C805   H845    1.084   .     S
C805   C807    1.391   .     A
C807   C572    1.453   1_565 S
C808   C814    1.404   .     A
C808   C810    1.404   .     A
C809   C822    1.413   .     A
C810   H831    1.083   .     S
C810   C811    1.398   .     A
C811   H832    1.082   .     S
C811   C812    1.398   .     A
C812   C813    1.397   .     A
C813   C814    1.398   .     A
C814   H835    1.083   .     S
C815   C816    1.405   .     A
C815   C821    1.405   .     A
C816   C817    1.399   .     A
C816   H836    1.083   .     S
C817   C818    1.397   .     A
C817   H837    1.082   .     S
C818   C819    1.397   .     A
C818   H838    1.083   .     S
C819   C821    1.399   .     A
C820   C823    1.417   .     A
C821   H841    1.083   .     S
C822   N849    1.365   .     A
C822   H846    1.081   .     S
C823   H847    1.077   .     S
C823   N850    1.371   .     A
C824   C826    1.402   .     A
C824   N849    1.376   .     A
C825   N850    1.386   .     A
C826   H848    1.082   .     S
Cu827  Cu828   2.687   .     S
Cu827  N850    2.019   .     S
Cu827  O851    1.951   .     S
Cu827  O854    1.960   .     S
Cu827  O855    1.947   .     S
Cu827  O858    1.954   .     S
Cu828  O856    1.947   .     S
Cu828  N849    2.019   .     S
Cu828  O852    1.951   .     S
Cu828  O857    1.954   .     S
Cu828  O853    1.960   .     S
H829   C871    1.087   .     S
H833   C890    1.082   .     S
H834   C891    1.081   .     S
H839   C897    1.082   .     S
Br859  C880    1.924   .     S
Br860  C881    1.915   .     S
Br861  C887    1.921   .     S
Br862  C898    1.918   .     S
Br863  C902    1.915   .     S
Br864  C903    1.914   .     S
C865   O931    1.295   .     A
C865   O929    1.297   .     A
C865   C878    1.463   .     S
C866   C903    1.401   .     A
C866   H908    1.083   .     S
C866   C868    1.392   .     A
C867   C887    1.422   .     A
C867   C904    1.399   .     A
C868   C898    1.417   .     A
C868   C399    1.516   1_556 S
C869   O935    1.293   .     A
C869   O933    1.286   .     A
C869   C871    1.433   .     S
C870   O936    1.294   .     A
C870   C872    1.433   .     S
C870   O934    1.285   .     A
C872   C715    1.338   1_655 S
C872   H762    1.087   1_655 S
C873   C884    1.393   .     A
C873   C875    1.393   .     A
C873   H920    1.085   .     S
C874   H921    1.085   .     S
C874   C885    1.393   .     A
C874   C877    1.398   .     A
C875   C878    1.416   .     A
C875   C886    1.477   .     S
C876   C879    1.474   .     S
C876   O932    1.302   .     A
C876   O930    1.297   .     A
C877   C879    1.425   .     A
C877   C893    1.483   .     S
C878   C880    1.415   .     A
C879   C881    1.416   .     A
C880   C882    1.392   .     A
C881   C883    1.389   .     A
C882   C884    1.394   .     A
C882   H922    1.084   .     S
C883   H923    1.084   .     S
C883   C885    1.391   .     A
C885   C650    1.453   1_565 S
C886   C892    1.404   .     A
C886   C888    1.404   .     A
C887   C900    1.413   .     A
C888   H909    1.083   .     S
C888   C889    1.398   .     A
C889   H910    1.082   .     S
C889   C890    1.398   .     A
C890   C891    1.397   .     A
C891   C892    1.398   .     A
C892   H913    1.083   .     S
C893   C894    1.405   .     A
C893   C899    1.405   .     A
C894   C895    1.399   .     A
C894   H914    1.083   .     S
C895   C896    1.397   .     A
C895   H915    1.082   .     S
C896   C897    1.397   .     A
C896   H916    1.083   .     S
C897   C899    1.399   .     A
C898   C901    1.417   .     A
C899   H919    1.083   .     S
C900   N927    1.365   .     A
C900   H924    1.081   .     S
C901   H925    1.077   .     S
C901   N928    1.371   .     A
C902   C904    1.402   .     A
C902   N927    1.376   .     A
C903   N928    1.386   .     A
C904   H926    1.082   .     S
Cu905  Cu906   2.687   .     S
Cu905  N928    2.019   .     S
Cu905  O929    1.951   .     S
Cu905  O932    1.960   .     S
Cu905  O933    1.947   .     S
Cu905  O936    1.954   .     S
Cu906  O934    1.947   .     S
Cu906  N927    2.019   .     S
Cu906  O930    1.951   .     S
Cu906  O935    1.954   .     S
Cu906  O931    1.960   .     S
H907   C715    1.087   1_655 S
H911   C734    1.082   1_655 S
H912   C735    1.081   1_655 S
H917   C741    1.082   1_655 S
