data_str_m3_o2_o10_pcu_sym.99
_audit_creation_date              2020-01-03
_audit_creation_method            'Materials Studio'
_symmetry_space_group_name_H-M    'P1'
_symmetry_Int_Tables_number       1
_symmetry_cell_setting            triclinic
loop_
_symmetry_equiv_pos_as_xyz
  x,y,z
_cell_length_a                    25.7610
_cell_length_b                    30.0223
_cell_length_c                    28.3335
_cell_angle_alpha                 89.9924
_cell_angle_beta                  98.6694
_cell_angle_gamma                 89.9589
loop_
_atom_site_label
_atom_site_type_symbol
_atom_site_fract_x
_atom_site_fract_y
_atom_site_fract_z
_atom_site_U_iso_or_equiv
_atom_site_adp_type
_atom_site_occupancy
C1     C     0.16666   0.16389   0.25001   0.00000  Uiso   1.00
C2     C     0.14723   0.21382   0.44492   0.00000  Uiso   1.00
C3     C     0.16601   0.25019   0.02653   0.00000  Uiso   1.00
C4     C     0.16641   0.25048   0.47328   0.00000  Uiso   1.00
C5     C     0.06700   0.24997   0.23753   0.00000  Uiso   1.00
C6     C     0.26634   0.25000   0.26248   0.00000  Uiso   1.00
C7     C     0.01198   0.24990   0.23079   0.00000  Uiso   1.00
C8     C     0.32137   0.25001   0.26922   0.00000  Uiso   1.00
C9     C     0.18572   0.04711   0.29222   0.00000  Uiso   1.00
C10    C     0.18493   0.45295   0.21279   0.00000  Uiso   1.00
C11    C     0.18525   0.09309   0.29225   0.00000  Uiso   1.00
C12    C     0.16671   0.33612   0.25001   0.00000  Uiso   1.00
C13    C     0.18450   0.40697   0.21257   0.00000  Uiso   1.00
C14    C     0.16675   0.11601   0.25006   0.00000  Uiso   1.00
C15    C     0.16688   0.38401   0.25008   0.00000  Uiso   1.00
C16    C     0.14836   0.09300   0.20794   0.00000  Uiso   1.00
C17    C     0.14950   0.40699   0.28773   0.00000  Uiso   1.00
C18    C     0.14820   0.04702   0.20807   0.00000  Uiso   1.00
C19    C     0.14932   0.45297   0.28763   0.00000  Uiso   1.00
C20    C     0.16705   0.02406   0.25016   0.00000  Uiso   1.00
C21    C     0.16714   0.47596   0.25021   0.00000  Uiso   1.00
C22    C     0.04191   0.26091   0.00865   0.00000  Uiso   1.00
C23    C     0.12104   0.23731   0.04637   0.00000  Uiso   1.00
C24    C     0.32691   0.24752   0.47388   0.00000  Uiso   1.00
C25    C     0.16625   0.35771   0.47114   0.00000  Uiso   1.00
C26    C     0.18576   0.39669   0.00322   0.00000  Uiso   1.00
C27    C     0.18535   0.28741   0.44996   0.00000  Uiso   1.00
C28    C     0.12282   0.23677   0.09643   0.00000  Uiso   1.00
C29    C     0.18592   0.28590   0.40021   0.00000  Uiso   1.00
C30    C     0.21010   0.26331   0.10788   0.00000  Uiso   1.00
C31    C     0.14736   0.21438   0.39532   0.00000  Uiso   1.00
C32    C     0.21073   0.26328   0.05836   0.00000  Uiso   1.00
H33    H     0.32468   0.24974   0.19434   0.00000  Uiso   1.00
H34    H     0.13481   0.47056   0.31638   0.00000  Uiso   1.00
H35    H     0.08868   0.22605   0.11138   0.00000  Uiso   1.00
H36    H     0.20160   0.31377   0.38273   0.00000  Uiso   1.00
H37    H     0.24469   0.27392   0.13162   0.00000  Uiso   1.00
H38    H     0.13216   0.18604   0.37407   0.00000  Uiso   1.00
H39    H     0.24631   0.27308   0.04512   0.00000  Uiso   1.00
H40    H     0.13266   0.18459   0.46103   0.00000  Uiso   1.00
H41    H     0.06141   0.28888   0.49234   0.00000  Uiso   1.00
H42    H     0.02888   0.27251   0.04234   0.00000  Uiso   1.00
H43    H     0.30518   0.22077   0.48965   0.00000  Uiso   1.00
H44    H     0.00868   0.25013   0.30567   0.00000  Uiso   1.00
H45    H     0.30067   0.27675   0.46594   0.00000  Uiso   1.00
H46    H     0.00539   0.23535   0.44003   0.00000  Uiso   1.00
H47    H     0.12923   0.34525   0.48236   0.00000  Uiso   1.00
H48    H     0.15795   0.36994   0.43363   0.00000  Uiso   1.00
H49    H     0.22237   0.41040   0.49265   0.00000  Uiso   1.00
H50    H     0.15547   0.42331   0.49992   0.00000  Uiso   1.00
H51    H     0.19383   0.38553   0.04100   0.00000  Uiso   1.00
H52    H     0.20104   0.02956   0.32477   0.00000  Uiso   1.00
H53    H     0.19951   0.47053   0.18407   0.00000  Uiso   1.00
H54    H     0.19998   0.11066   0.32493   0.00000  Uiso   1.00
H55    H     0.19852   0.38945   0.18352   0.00000  Uiso   1.00
H56    H     0.13349   0.11050   0.17523   0.00000  Uiso   1.00
H57    H     0.13543   0.38948   0.31676   0.00000  Uiso   1.00
H58    H     0.13296   0.02940   0.17556   0.00000  Uiso   1.00
N59    N     0.16667   0.24999   0.12623   0.00000  Uiso   1.00
N60    N     0.16667   0.25001   0.37376   0.00000  Uiso   1.00
O61    O     0.16667   0.18453   0.28974   0.00000  Uiso   1.00
O62    O     0.20518   0.32427   0.47575   0.00000  Uiso   1.00
O63    O     0.16666   0.31546   0.21026   0.00000  Uiso   1.00
O64    O     0.16667   0.18453   0.21026   0.00000  Uiso   1.00
O65    O     0.16666   0.31547   0.28974   0.00000  Uiso   1.00
O66    O     0.09058   0.25000   0.28045   0.00000  Uiso   1.00
O67    O     0.24275   0.25000   0.21955   0.00000  Uiso   1.00
O68    O     0.09058   0.24999   0.20097   0.00000  Uiso   1.00
O69    O     0.24275   0.25000   0.29903   0.00000  Uiso   1.00
O70    O     0.07579   0.22389   0.01734   0.00000  Uiso   1.00
Zn71   Zn    0.16667   0.25000   0.30307   0.00000  Uiso   1.00
Zn72   Zn    0.16667   0.24999   0.19693   0.00000  Uiso   1.00
C73    C     0.50000   0.16389   0.25001   0.00000  Uiso   1.00
C74    C     0.48056   0.21382   0.44492   0.00000  Uiso   1.00
C75    C     0.49935   0.25019   0.02653   0.00000  Uiso   1.00
C76    C     0.49974   0.25048   0.47328   0.00000  Uiso   1.00
C77    C     0.40033   0.24997   0.23753   0.00000  Uiso   1.00
C78    C     0.59967   0.25000   0.26248   0.00000  Uiso   1.00
C79    C     0.34531   0.24990   0.23079   0.00000  Uiso   1.00
C80    C     0.65470   0.25001   0.26922   0.00000  Uiso   1.00
C81    C     0.51905   0.04711   0.29222   0.00000  Uiso   1.00
C82    C     0.51826   0.45295   0.21279   0.00000  Uiso   1.00
C83    C     0.51858   0.09309   0.29225   0.00000  Uiso   1.00
C84    C     0.50004   0.33612   0.25001   0.00000  Uiso   1.00
C85    C     0.51783   0.40697   0.21257   0.00000  Uiso   1.00
C86    C     0.50008   0.11601   0.25006   0.00000  Uiso   1.00
C87    C     0.50021   0.38401   0.25008   0.00000  Uiso   1.00
C88    C     0.48169   0.09300   0.20794   0.00000  Uiso   1.00
C89    C     0.48283   0.40699   0.28773   0.00000  Uiso   1.00
C90    C     0.48153   0.04702   0.20807   0.00000  Uiso   1.00
C91    C     0.48265   0.45297   0.28763   0.00000  Uiso   1.00
C92    C     0.50038   0.02406   0.25016   0.00000  Uiso   1.00
C93    C     0.50047   0.47596   0.25021   0.00000  Uiso   1.00
C94    C     0.37524   0.26091   0.00865   0.00000  Uiso   1.00
C95    C     0.45437   0.23731   0.04637   0.00000  Uiso   1.00
C96    C     0.66024   0.24752   0.47388   0.00000  Uiso   1.00
C97    C     0.49959   0.35771   0.47114   0.00000  Uiso   1.00
C98    C     0.51910   0.39669   0.00322   0.00000  Uiso   1.00
C99    C     0.51868   0.28741   0.44996   0.00000  Uiso   1.00
C100   C     0.45616   0.23677   0.09643   0.00000  Uiso   1.00
C101   C     0.51925   0.28590   0.40021   0.00000  Uiso   1.00
C102   C     0.54344   0.26331   0.10788   0.00000  Uiso   1.00
C103   C     0.48069   0.21438   0.39532   0.00000  Uiso   1.00
C104   C     0.54406   0.26328   0.05836   0.00000  Uiso   1.00
H105   H     0.65802   0.24974   0.19434   0.00000  Uiso   1.00
H106   H     0.46814   0.47056   0.31638   0.00000  Uiso   1.00
H107   H     0.42201   0.22605   0.11138   0.00000  Uiso   1.00
H108   H     0.53494   0.31377   0.38273   0.00000  Uiso   1.00
H109   H     0.57803   0.27392   0.13162   0.00000  Uiso   1.00
H110   H     0.46550   0.18604   0.37407   0.00000  Uiso   1.00
H111   H     0.57965   0.27308   0.04512   0.00000  Uiso   1.00
H112   H     0.46599   0.18459   0.46103   0.00000  Uiso   1.00
H113   H     0.39474   0.28888   0.49234   0.00000  Uiso   1.00
H114   H     0.36222   0.27251   0.04234   0.00000  Uiso   1.00
H115   H     0.63852   0.22077   0.48965   0.00000  Uiso   1.00
H116   H     0.34202   0.25013   0.30567   0.00000  Uiso   1.00
H117   H     0.63400   0.27675   0.46594   0.00000  Uiso   1.00
H118   H     0.33872   0.23535   0.44003   0.00000  Uiso   1.00
H119   H     0.46257   0.34525   0.48236   0.00000  Uiso   1.00
H120   H     0.49128   0.36994   0.43363   0.00000  Uiso   1.00
H121   H     0.55570   0.41040   0.49265   0.00000  Uiso   1.00
H122   H     0.48881   0.42331   0.49992   0.00000  Uiso   1.00
H123   H     0.52716   0.38553   0.04100   0.00000  Uiso   1.00
H124   H     0.53438   0.02956   0.32477   0.00000  Uiso   1.00
H125   H     0.53284   0.47053   0.18407   0.00000  Uiso   1.00
H126   H     0.53331   0.11066   0.32493   0.00000  Uiso   1.00
H127   H     0.53185   0.38945   0.18352   0.00000  Uiso   1.00
H128   H     0.46683   0.11050   0.17523   0.00000  Uiso   1.00
H129   H     0.46876   0.38948   0.31676   0.00000  Uiso   1.00
H130   H     0.46629   0.02940   0.17556   0.00000  Uiso   1.00
N131   N     0.50000   0.24999   0.12623   0.00000  Uiso   1.00
N132   N     0.50000   0.25001   0.37376   0.00000  Uiso   1.00
O133   O     0.50000   0.18453   0.28974   0.00000  Uiso   1.00
O134   O     0.53852   0.32427   0.47575   0.00000  Uiso   1.00
O135   O     0.50000   0.31546   0.21026   0.00000  Uiso   1.00
O136   O     0.50000   0.18453   0.21026   0.00000  Uiso   1.00
O137   O     0.50000   0.31547   0.28974   0.00000  Uiso   1.00
O138   O     0.42392   0.25000   0.28045   0.00000  Uiso   1.00
O139   O     0.57608   0.25000   0.21955   0.00000  Uiso   1.00
O140   O     0.42392   0.24999   0.20097   0.00000  Uiso   1.00
O141   O     0.57608   0.25000   0.29903   0.00000  Uiso   1.00
O142   O     0.40913   0.22389   0.01734   0.00000  Uiso   1.00
Zn143  Zn    0.50000   0.25000   0.30307   0.00000  Uiso   1.00
Zn144  Zn    0.50000   0.24999   0.19693   0.00000  Uiso   1.00
C145   C     0.83333   0.16389   0.25001   0.00000  Uiso   1.00
C146   C     0.81390   0.21382   0.44492   0.00000  Uiso   1.00
C147   C     0.83268   0.25019   0.02653   0.00000  Uiso   1.00
C148   C     0.83307   0.25048   0.47328   0.00000  Uiso   1.00
C149   C     0.73366   0.24997   0.23753   0.00000  Uiso   1.00
C150   C     0.93301   0.25000   0.26248   0.00000  Uiso   1.00
C151   C     0.67865   0.24990   0.23079   0.00000  Uiso   1.00
C152   C     0.98803   0.25001   0.26922   0.00000  Uiso   1.00
C153   C     0.85238   0.04711   0.29222   0.00000  Uiso   1.00
C154   C     0.85160   0.45295   0.21279   0.00000  Uiso   1.00
C155   C     0.85192   0.09309   0.29225   0.00000  Uiso   1.00
C156   C     0.83338   0.33612   0.25001   0.00000  Uiso   1.00
C157   C     0.85116   0.40697   0.21257   0.00000  Uiso   1.00
C158   C     0.83341   0.11601   0.25006   0.00000  Uiso   1.00
C159   C     0.83355   0.38401   0.25008   0.00000  Uiso   1.00
C160   C     0.81502   0.09300   0.20794   0.00000  Uiso   1.00
C161   C     0.81617   0.40699   0.28773   0.00000  Uiso   1.00
C162   C     0.81487   0.04702   0.20807   0.00000  Uiso   1.00
C163   C     0.81599   0.45297   0.28763   0.00000  Uiso   1.00
C164   C     0.83371   0.02406   0.25016   0.00000  Uiso   1.00
C165   C     0.83381   0.47596   0.25021   0.00000  Uiso   1.00
C166   C     0.70857   0.26091   0.00865   0.00000  Uiso   1.00
C167   C     0.78770   0.23731   0.04637   0.00000  Uiso   1.00
C168   C     0.99358   0.24752   0.47388   0.00000  Uiso   1.00
C169   C     0.83292   0.35771   0.47114   0.00000  Uiso   1.00
C170   C     0.85243   0.39669   0.00322   0.00000  Uiso   1.00
C171   C     0.85202   0.28741   0.44996   0.00000  Uiso   1.00
C172   C     0.78949   0.23677   0.09643   0.00000  Uiso   1.00
C173   C     0.85259   0.28590   0.40021   0.00000  Uiso   1.00
C174   C     0.87677   0.26331   0.10788   0.00000  Uiso   1.00
C175   C     0.81403   0.21438   0.39532   0.00000  Uiso   1.00
C176   C     0.87740   0.26328   0.05836   0.00000  Uiso   1.00
H177   H     0.99135   0.24974   0.19434   0.00000  Uiso   1.00
H178   H     0.80148   0.47056   0.31638   0.00000  Uiso   1.00
H179   H     0.75535   0.22605   0.11138   0.00000  Uiso   1.00
H180   H     0.86827   0.31377   0.38273   0.00000  Uiso   1.00
H181   H     0.91136   0.27392   0.13162   0.00000  Uiso   1.00
H182   H     0.79883   0.18604   0.37407   0.00000  Uiso   1.00
H183   H     0.91298   0.27308   0.04512   0.00000  Uiso   1.00
H184   H     0.79932   0.18459   0.46103   0.00000  Uiso   1.00
H185   H     0.72808   0.28888   0.49234   0.00000  Uiso   1.00
H186   H     0.69555   0.27251   0.04234   0.00000  Uiso   1.00
H187   H     0.97185   0.22077   0.48965   0.00000  Uiso   1.00
H188   H     0.67535   0.25013   0.30567   0.00000  Uiso   1.00
H189   H     0.96733   0.27675   0.46594   0.00000  Uiso   1.00
H190   H     0.67205   0.23535   0.44003   0.00000  Uiso   1.00
H191   H     0.79590   0.34525   0.48236   0.00000  Uiso   1.00
H192   H     0.82461   0.36994   0.43363   0.00000  Uiso   1.00
H193   H     0.88903   0.41040   0.49265   0.00000  Uiso   1.00
H194   H     0.82214   0.42331   0.49992   0.00000  Uiso   1.00
H195   H     0.86049   0.38553   0.04100   0.00000  Uiso   1.00
H196   H     0.86771   0.02956   0.32477   0.00000  Uiso   1.00
H197   H     0.86617   0.47053   0.18407   0.00000  Uiso   1.00
H198   H     0.86665   0.11066   0.32493   0.00000  Uiso   1.00
H199   H     0.86518   0.38945   0.18352   0.00000  Uiso   1.00
H200   H     0.80016   0.11050   0.17523   0.00000  Uiso   1.00
H201   H     0.80210   0.38948   0.31676   0.00000  Uiso   1.00
H202   H     0.79962   0.02940   0.17556   0.00000  Uiso   1.00
N203   N     0.83333   0.24999   0.12623   0.00000  Uiso   1.00
N204   N     0.83333   0.25001   0.37376   0.00000  Uiso   1.00
O205   O     0.83334   0.18453   0.28974   0.00000  Uiso   1.00
O206   O     0.87185   0.32427   0.47575   0.00000  Uiso   1.00
O207   O     0.83333   0.31546   0.21026   0.00000  Uiso   1.00
O208   O     0.83334   0.18453   0.21026   0.00000  Uiso   1.00
O209   O     0.83333   0.31547   0.28974   0.00000  Uiso   1.00
O210   O     0.75725   0.25000   0.28045   0.00000  Uiso   1.00
O211   O     0.90942   0.25000   0.21955   0.00000  Uiso   1.00
O212   O     0.75725   0.24999   0.20097   0.00000  Uiso   1.00
O213   O     0.90942   0.25000   0.29903   0.00000  Uiso   1.00
O214   O     0.74246   0.22389   0.01734   0.00000  Uiso   1.00
Zn215  Zn    0.83333   0.25000   0.30307   0.00000  Uiso   1.00
Zn216  Zn    0.83333   0.24999   0.19693   0.00000  Uiso   1.00
C217   C     0.16666   0.66389   0.25001   0.00000  Uiso   1.00
C218   C     0.14723   0.71382   0.44492   0.00000  Uiso   1.00
C219   C     0.16601   0.75019   0.02653   0.00000  Uiso   1.00
C220   C     0.16641   0.75048   0.47328   0.00000  Uiso   1.00
C221   C     0.06700   0.74997   0.23753   0.00000  Uiso   1.00
C222   C     0.26634   0.75000   0.26248   0.00000  Uiso   1.00
C223   C     0.01198   0.74990   0.23079   0.00000  Uiso   1.00
C224   C     0.32137   0.75001   0.26922   0.00000  Uiso   1.00
C225   C     0.18572   0.54711   0.29222   0.00000  Uiso   1.00
C226   C     0.18493   0.95295   0.21279   0.00000  Uiso   1.00
C227   C     0.18525   0.59309   0.29225   0.00000  Uiso   1.00
C228   C     0.16671   0.83612   0.25001   0.00000  Uiso   1.00
C229   C     0.18450   0.90697   0.21257   0.00000  Uiso   1.00
C230   C     0.16675   0.61601   0.25006   0.00000  Uiso   1.00
C231   C     0.16688   0.88401   0.25008   0.00000  Uiso   1.00
C232   C     0.14836   0.59300   0.20794   0.00000  Uiso   1.00
C233   C     0.14950   0.90699   0.28773   0.00000  Uiso   1.00
C234   C     0.14820   0.54702   0.20807   0.00000  Uiso   1.00
C235   C     0.14932   0.95297   0.28763   0.00000  Uiso   1.00
C236   C     0.16705   0.52406   0.25016   0.00000  Uiso   1.00
C237   C     0.16714   0.97596   0.25021   0.00000  Uiso   1.00
C238   C     0.04191   0.76091   0.00865   0.00000  Uiso   1.00
C239   C     0.12104   0.73731   0.04637   0.00000  Uiso   1.00
C240   C     0.32691   0.74752   0.47388   0.00000  Uiso   1.00
C241   C     0.16625   0.85771   0.47114   0.00000  Uiso   1.00
C242   C     0.18576   0.89669   0.00322   0.00000  Uiso   1.00
C243   C     0.18535   0.78741   0.44996   0.00000  Uiso   1.00
C244   C     0.12282   0.73677   0.09643   0.00000  Uiso   1.00
C245   C     0.18592   0.78590   0.40021   0.00000  Uiso   1.00
C246   C     0.21010   0.76331   0.10788   0.00000  Uiso   1.00
C247   C     0.14736   0.71438   0.39532   0.00000  Uiso   1.00
C248   C     0.21073   0.76328   0.05836   0.00000  Uiso   1.00
H249   H     0.32468   0.74974   0.19434   0.00000  Uiso   1.00
H250   H     0.13481   0.97056   0.31638   0.00000  Uiso   1.00
H251   H     0.08868   0.72605   0.11138   0.00000  Uiso   1.00
H252   H     0.20160   0.81377   0.38273   0.00000  Uiso   1.00
H253   H     0.24469   0.77392   0.13162   0.00000  Uiso   1.00
H254   H     0.13216   0.68604   0.37407   0.00000  Uiso   1.00
H255   H     0.24631   0.77308   0.04512   0.00000  Uiso   1.00
H256   H     0.13266   0.68459   0.46103   0.00000  Uiso   1.00
H257   H     0.06141   0.78888   0.49234   0.00000  Uiso   1.00
H258   H     0.02888   0.77251   0.04234   0.00000  Uiso   1.00
H259   H     0.30518   0.72077   0.48965   0.00000  Uiso   1.00
H260   H     0.00868   0.75013   0.30567   0.00000  Uiso   1.00
H261   H     0.30067   0.77675   0.46594   0.00000  Uiso   1.00
H262   H     0.00539   0.73535   0.44003   0.00000  Uiso   1.00
H263   H     0.12923   0.84525   0.48236   0.00000  Uiso   1.00
H264   H     0.15795   0.86994   0.43363   0.00000  Uiso   1.00
H265   H     0.22237   0.91040   0.49265   0.00000  Uiso   1.00
H266   H     0.15547   0.92331   0.49992   0.00000  Uiso   1.00
H267   H     0.19383   0.88553   0.04100   0.00000  Uiso   1.00
H268   H     0.20104   0.52956   0.32477   0.00000  Uiso   1.00
H269   H     0.19951   0.97053   0.18407   0.00000  Uiso   1.00
H270   H     0.19998   0.61066   0.32493   0.00000  Uiso   1.00
H271   H     0.19852   0.88945   0.18352   0.00000  Uiso   1.00
H272   H     0.13349   0.61050   0.17523   0.00000  Uiso   1.00
H273   H     0.13543   0.88948   0.31676   0.00000  Uiso   1.00
H274   H     0.13296   0.52940   0.17556   0.00000  Uiso   1.00
N275   N     0.16667   0.74999   0.12623   0.00000  Uiso   1.00
N276   N     0.16667   0.75001   0.37376   0.00000  Uiso   1.00
O277   O     0.16667   0.68453   0.28974   0.00000  Uiso   1.00
O278   O     0.20518   0.82427   0.47575   0.00000  Uiso   1.00
O279   O     0.16666   0.81546   0.21026   0.00000  Uiso   1.00
O280   O     0.16667   0.68453   0.21026   0.00000  Uiso   1.00
O281   O     0.16666   0.81547   0.28974   0.00000  Uiso   1.00
O282   O     0.09058   0.75000   0.28045   0.00000  Uiso   1.00
O283   O     0.24275   0.75000   0.21955   0.00000  Uiso   1.00
O284   O     0.09058   0.74999   0.20097   0.00000  Uiso   1.00
O285   O     0.24275   0.75000   0.29903   0.00000  Uiso   1.00
O286   O     0.07579   0.72389   0.01734   0.00000  Uiso   1.00
Zn287  Zn    0.16667   0.75000   0.30307   0.00000  Uiso   1.00
Zn288  Zn    0.16667   0.74999   0.19693   0.00000  Uiso   1.00
C289   C     0.50000   0.66389   0.25001   0.00000  Uiso   1.00
C290   C     0.48056   0.71382   0.44492   0.00000  Uiso   1.00
C291   C     0.49935   0.75019   0.02653   0.00000  Uiso   1.00
C292   C     0.49974   0.75048   0.47328   0.00000  Uiso   1.00
C293   C     0.40033   0.74997   0.23753   0.00000  Uiso   1.00
C294   C     0.59967   0.75000   0.26248   0.00000  Uiso   1.00
C295   C     0.34531   0.74990   0.23079   0.00000  Uiso   1.00
C296   C     0.65470   0.75001   0.26922   0.00000  Uiso   1.00
C297   C     0.51905   0.54711   0.29222   0.00000  Uiso   1.00
C298   C     0.51826   0.95295   0.21279   0.00000  Uiso   1.00
C299   C     0.51858   0.59309   0.29225   0.00000  Uiso   1.00
C300   C     0.50004   0.83612   0.25001   0.00000  Uiso   1.00
C301   C     0.51783   0.90697   0.21257   0.00000  Uiso   1.00
C302   C     0.50008   0.61601   0.25006   0.00000  Uiso   1.00
C303   C     0.50021   0.88401   0.25008   0.00000  Uiso   1.00
C304   C     0.48169   0.59300   0.20794   0.00000  Uiso   1.00
C305   C     0.48283   0.90699   0.28773   0.00000  Uiso   1.00
C306   C     0.48153   0.54702   0.20807   0.00000  Uiso   1.00
C307   C     0.48265   0.95297   0.28763   0.00000  Uiso   1.00
C308   C     0.50038   0.52406   0.25016   0.00000  Uiso   1.00
C309   C     0.50047   0.97596   0.25021   0.00000  Uiso   1.00
C310   C     0.37524   0.76091   0.00865   0.00000  Uiso   1.00
C311   C     0.45437   0.73731   0.04637   0.00000  Uiso   1.00
C312   C     0.66024   0.74752   0.47388   0.00000  Uiso   1.00
C313   C     0.49959   0.85771   0.47114   0.00000  Uiso   1.00
C314   C     0.51910   0.89669   0.00322   0.00000  Uiso   1.00
C315   C     0.51868   0.78741   0.44996   0.00000  Uiso   1.00
C316   C     0.45616   0.73677   0.09643   0.00000  Uiso   1.00
C317   C     0.51925   0.78590   0.40021   0.00000  Uiso   1.00
C318   C     0.54344   0.76331   0.10788   0.00000  Uiso   1.00
C319   C     0.48069   0.71438   0.39532   0.00000  Uiso   1.00
C320   C     0.54406   0.76328   0.05836   0.00000  Uiso   1.00
H321   H     0.65802   0.74974   0.19434   0.00000  Uiso   1.00
H322   H     0.46814   0.97056   0.31638   0.00000  Uiso   1.00
H323   H     0.42201   0.72605   0.11138   0.00000  Uiso   1.00
H324   H     0.53494   0.81377   0.38273   0.00000  Uiso   1.00
H325   H     0.57803   0.77392   0.13162   0.00000  Uiso   1.00
H326   H     0.46550   0.68604   0.37407   0.00000  Uiso   1.00
H327   H     0.57965   0.77308   0.04512   0.00000  Uiso   1.00
H328   H     0.46599   0.68459   0.46103   0.00000  Uiso   1.00
H329   H     0.39474   0.78888   0.49234   0.00000  Uiso   1.00
H330   H     0.36222   0.77251   0.04234   0.00000  Uiso   1.00
H331   H     0.63852   0.72077   0.48965   0.00000  Uiso   1.00
H332   H     0.34202   0.75013   0.30567   0.00000  Uiso   1.00
H333   H     0.63400   0.77675   0.46594   0.00000  Uiso   1.00
H334   H     0.33872   0.73535   0.44003   0.00000  Uiso   1.00
H335   H     0.46257   0.84525   0.48236   0.00000  Uiso   1.00
H336   H     0.49128   0.86994   0.43363   0.00000  Uiso   1.00
H337   H     0.55570   0.91040   0.49265   0.00000  Uiso   1.00
H338   H     0.48881   0.92331   0.49992   0.00000  Uiso   1.00
H339   H     0.52716   0.88553   0.04100   0.00000  Uiso   1.00
H340   H     0.53438   0.52956   0.32477   0.00000  Uiso   1.00
H341   H     0.53284   0.97053   0.18407   0.00000  Uiso   1.00
H342   H     0.53331   0.61066   0.32493   0.00000  Uiso   1.00
H343   H     0.53185   0.88945   0.18352   0.00000  Uiso   1.00
H344   H     0.46683   0.61050   0.17523   0.00000  Uiso   1.00
H345   H     0.46876   0.88948   0.31676   0.00000  Uiso   1.00
H346   H     0.46629   0.52940   0.17556   0.00000  Uiso   1.00
N347   N     0.50000   0.74999   0.12623   0.00000  Uiso   1.00
N348   N     0.50000   0.75001   0.37376   0.00000  Uiso   1.00
O349   O     0.50000   0.68453   0.28974   0.00000  Uiso   1.00
O350   O     0.53852   0.82427   0.47575   0.00000  Uiso   1.00
O351   O     0.50000   0.81546   0.21026   0.00000  Uiso   1.00
O352   O     0.50000   0.68453   0.21026   0.00000  Uiso   1.00
O353   O     0.50000   0.81547   0.28974   0.00000  Uiso   1.00
O354   O     0.42392   0.75000   0.28045   0.00000  Uiso   1.00
O355   O     0.57608   0.75000   0.21955   0.00000  Uiso   1.00
O356   O     0.42392   0.74999   0.20097   0.00000  Uiso   1.00
O357   O     0.57608   0.75000   0.29903   0.00000  Uiso   1.00
O358   O     0.40913   0.72389   0.01734   0.00000  Uiso   1.00
Zn359  Zn    0.50000   0.75000   0.30307   0.00000  Uiso   1.00
Zn360  Zn    0.50000   0.74999   0.19693   0.00000  Uiso   1.00
C361   C     0.83333   0.66389   0.25001   0.00000  Uiso   1.00
C362   C     0.81390   0.71382   0.44492   0.00000  Uiso   1.00
C363   C     0.83268   0.75019   0.02653   0.00000  Uiso   1.00
C364   C     0.83307   0.75048   0.47328   0.00000  Uiso   1.00
C365   C     0.73366   0.74997   0.23753   0.00000  Uiso   1.00
C366   C     0.93301   0.75000   0.26248   0.00000  Uiso   1.00
C367   C     0.67865   0.74990   0.23079   0.00000  Uiso   1.00
C368   C     0.98803   0.75001   0.26922   0.00000  Uiso   1.00
C369   C     0.85238   0.54711   0.29222   0.00000  Uiso   1.00
C370   C     0.85160   0.95295   0.21279   0.00000  Uiso   1.00
C371   C     0.85192   0.59309   0.29225   0.00000  Uiso   1.00
C372   C     0.83338   0.83612   0.25001   0.00000  Uiso   1.00
C373   C     0.85116   0.90697   0.21257   0.00000  Uiso   1.00
C374   C     0.83341   0.61601   0.25006   0.00000  Uiso   1.00
C375   C     0.83355   0.88401   0.25008   0.00000  Uiso   1.00
C376   C     0.81502   0.59300   0.20794   0.00000  Uiso   1.00
C377   C     0.81617   0.90699   0.28773   0.00000  Uiso   1.00
C378   C     0.81487   0.54702   0.20807   0.00000  Uiso   1.00
C379   C     0.81599   0.95297   0.28763   0.00000  Uiso   1.00
C380   C     0.83371   0.52406   0.25016   0.00000  Uiso   1.00
C381   C     0.83381   0.97596   0.25021   0.00000  Uiso   1.00
C382   C     0.70857   0.76091   0.00865   0.00000  Uiso   1.00
C383   C     0.78770   0.73731   0.04637   0.00000  Uiso   1.00
C384   C     0.99358   0.74752   0.47388   0.00000  Uiso   1.00
C385   C     0.83292   0.85771   0.47114   0.00000  Uiso   1.00
C386   C     0.85243   0.89669   0.00322   0.00000  Uiso   1.00
C387   C     0.85202   0.78741   0.44996   0.00000  Uiso   1.00
C388   C     0.78949   0.73677   0.09643   0.00000  Uiso   1.00
C389   C     0.85259   0.78590   0.40021   0.00000  Uiso   1.00
C390   C     0.87677   0.76331   0.10788   0.00000  Uiso   1.00
C391   C     0.81403   0.71438   0.39532   0.00000  Uiso   1.00
C392   C     0.87740   0.76328   0.05836   0.00000  Uiso   1.00
H393   H     0.99135   0.74974   0.19434   0.00000  Uiso   1.00
H394   H     0.80148   0.97056   0.31638   0.00000  Uiso   1.00
H395   H     0.75535   0.72605   0.11138   0.00000  Uiso   1.00
H396   H     0.86827   0.81377   0.38273   0.00000  Uiso   1.00
H397   H     0.91136   0.77392   0.13162   0.00000  Uiso   1.00
H398   H     0.79883   0.68604   0.37407   0.00000  Uiso   1.00
H399   H     0.91298   0.77308   0.04512   0.00000  Uiso   1.00
H400   H     0.79932   0.68459   0.46103   0.00000  Uiso   1.00
H401   H     0.72808   0.78888   0.49234   0.00000  Uiso   1.00
H402   H     0.69555   0.77251   0.04234   0.00000  Uiso   1.00
H403   H     0.97185   0.72077   0.48965   0.00000  Uiso   1.00
H404   H     0.67535   0.75013   0.30567   0.00000  Uiso   1.00
H405   H     0.96733   0.77675   0.46594   0.00000  Uiso   1.00
H406   H     0.67205   0.73535   0.44003   0.00000  Uiso   1.00
H407   H     0.79590   0.84525   0.48236   0.00000  Uiso   1.00
H408   H     0.82461   0.86994   0.43363   0.00000  Uiso   1.00
H409   H     0.88903   0.91040   0.49265   0.00000  Uiso   1.00
H410   H     0.82214   0.92331   0.49992   0.00000  Uiso   1.00
H411   H     0.86049   0.88553   0.04100   0.00000  Uiso   1.00
H412   H     0.86771   0.52956   0.32477   0.00000  Uiso   1.00
H413   H     0.86617   0.97053   0.18407   0.00000  Uiso   1.00
H414   H     0.86665   0.61066   0.32493   0.00000  Uiso   1.00
H415   H     0.86518   0.88945   0.18352   0.00000  Uiso   1.00
H416   H     0.80016   0.61050   0.17523   0.00000  Uiso   1.00
H417   H     0.80210   0.88948   0.31676   0.00000  Uiso   1.00
H418   H     0.79962   0.52940   0.17556   0.00000  Uiso   1.00
N419   N     0.83333   0.74999   0.12623   0.00000  Uiso   1.00
N420   N     0.83333   0.75001   0.37376   0.00000  Uiso   1.00
O421   O     0.83334   0.68453   0.28974   0.00000  Uiso   1.00
O422   O     0.87185   0.82427   0.47575   0.00000  Uiso   1.00
O423   O     0.83333   0.81546   0.21026   0.00000  Uiso   1.00
O424   O     0.83334   0.68453   0.21026   0.00000  Uiso   1.00
O425   O     0.83333   0.81547   0.28974   0.00000  Uiso   1.00
O426   O     0.75725   0.75000   0.28045   0.00000  Uiso   1.00
O427   O     0.90942   0.75000   0.21955   0.00000  Uiso   1.00
O428   O     0.75725   0.74999   0.20097   0.00000  Uiso   1.00
O429   O     0.90942   0.75000   0.29903   0.00000  Uiso   1.00
O430   O     0.74246   0.72389   0.01734   0.00000  Uiso   1.00
Zn431  Zn    0.83333   0.75000   0.30307   0.00000  Uiso   1.00
Zn432  Zn    0.83333   0.74999   0.19693   0.00000  Uiso   1.00
C433   C     0.16666   0.16389   0.75001   0.00000  Uiso   1.00
C434   C     0.14723   0.21382   0.94492   0.00000  Uiso   1.00
C435   C     0.16601   0.25019   0.52653   0.00000  Uiso   1.00
C436   C     0.16641   0.25048   0.97328   0.00000  Uiso   1.00
C437   C     0.06700   0.24997   0.73753   0.00000  Uiso   1.00
C438   C     0.26634   0.25000   0.76248   0.00000  Uiso   1.00
C439   C     0.01198   0.24990   0.73079   0.00000  Uiso   1.00
C440   C     0.32137   0.25001   0.76922   0.00000  Uiso   1.00
C441   C     0.18572   0.04711   0.79222   0.00000  Uiso   1.00
C442   C     0.18493   0.45295   0.71279   0.00000  Uiso   1.00
C443   C     0.18525   0.09309   0.79225   0.00000  Uiso   1.00
C444   C     0.16671   0.33612   0.75001   0.00000  Uiso   1.00
C445   C     0.18450   0.40697   0.71257   0.00000  Uiso   1.00
C446   C     0.16675   0.11601   0.75006   0.00000  Uiso   1.00
C447   C     0.16688   0.38401   0.75008   0.00000  Uiso   1.00
C448   C     0.14836   0.09300   0.70794   0.00000  Uiso   1.00
C449   C     0.14950   0.40699   0.78773   0.00000  Uiso   1.00
C450   C     0.14820   0.04702   0.70807   0.00000  Uiso   1.00
C451   C     0.14932   0.45297   0.78763   0.00000  Uiso   1.00
C452   C     0.16705   0.02406   0.75016   0.00000  Uiso   1.00
C453   C     0.16714   0.47596   0.75021   0.00000  Uiso   1.00
C454   C     0.04191   0.26091   0.50865   0.00000  Uiso   1.00
C455   C     0.12104   0.23731   0.54637   0.00000  Uiso   1.00
C456   C     0.32691   0.24752   0.97388   0.00000  Uiso   1.00
C457   C     0.16625   0.35771   0.97114   0.00000  Uiso   1.00
C458   C     0.18576   0.39669   0.50322   0.00000  Uiso   1.00
C459   C     0.18535   0.28741   0.94996   0.00000  Uiso   1.00
C460   C     0.12282   0.23677   0.59643   0.00000  Uiso   1.00
C461   C     0.18592   0.28590   0.90021   0.00000  Uiso   1.00
C462   C     0.21010   0.26331   0.60788   0.00000  Uiso   1.00
C463   C     0.14736   0.21438   0.89532   0.00000  Uiso   1.00
C464   C     0.21073   0.26328   0.55836   0.00000  Uiso   1.00
H465   H     0.32468   0.24974   0.69434   0.00000  Uiso   1.00
H466   H     0.13481   0.47056   0.81638   0.00000  Uiso   1.00
H467   H     0.08868   0.22605   0.61138   0.00000  Uiso   1.00
H468   H     0.20160   0.31377   0.88273   0.00000  Uiso   1.00
H469   H     0.24469   0.27392   0.63162   0.00000  Uiso   1.00
H470   H     0.13216   0.18604   0.87407   0.00000  Uiso   1.00
H471   H     0.24631   0.27308   0.54512   0.00000  Uiso   1.00
H472   H     0.13266   0.18459   0.96103   0.00000  Uiso   1.00
H473   H     0.06141   0.28888   0.99234   0.00000  Uiso   1.00
H474   H     0.02888   0.27251   0.54234   0.00000  Uiso   1.00
H475   H     0.30518   0.22077   0.98965   0.00000  Uiso   1.00
H476   H     0.00868   0.25013   0.80567   0.00000  Uiso   1.00
H477   H     0.30067   0.27675   0.96594   0.00000  Uiso   1.00
H478   H     0.00539   0.23535   0.94003   0.00000  Uiso   1.00
H479   H     0.12923   0.34525   0.98236   0.00000  Uiso   1.00
H480   H     0.15795   0.36994   0.93363   0.00000  Uiso   1.00
H481   H     0.22237   0.41040   0.99265   0.00000  Uiso   1.00
H482   H     0.15547   0.42331   0.99992   0.00000  Uiso   1.00
H483   H     0.19383   0.38553   0.54100   0.00000  Uiso   1.00
H484   H     0.20104   0.02956   0.82477   0.00000  Uiso   1.00
H485   H     0.19951   0.47053   0.68407   0.00000  Uiso   1.00
H486   H     0.19998   0.11066   0.82493   0.00000  Uiso   1.00
H487   H     0.19852   0.38945   0.68352   0.00000  Uiso   1.00
H488   H     0.13349   0.11050   0.67523   0.00000  Uiso   1.00
H489   H     0.13543   0.38948   0.81676   0.00000  Uiso   1.00
H490   H     0.13296   0.02940   0.67556   0.00000  Uiso   1.00
N491   N     0.16667   0.24999   0.62623   0.00000  Uiso   1.00
N492   N     0.16667   0.25001   0.87376   0.00000  Uiso   1.00
O493   O     0.16667   0.18453   0.78974   0.00000  Uiso   1.00
O494   O     0.20518   0.32427   0.97575   0.00000  Uiso   1.00
O495   O     0.16666   0.31546   0.71026   0.00000  Uiso   1.00
O496   O     0.16667   0.18453   0.71026   0.00000  Uiso   1.00
O497   O     0.16666   0.31547   0.78974   0.00000  Uiso   1.00
O498   O     0.09058   0.25000   0.78045   0.00000  Uiso   1.00
O499   O     0.24275   0.25000   0.71955   0.00000  Uiso   1.00
O500   O     0.09058   0.24999   0.70097   0.00000  Uiso   1.00
O501   O     0.24275   0.25000   0.79903   0.00000  Uiso   1.00
O502   O     0.07579   0.22389   0.51734   0.00000  Uiso   1.00
Zn503  Zn    0.16667   0.25000   0.80307   0.00000  Uiso   1.00
Zn504  Zn    0.16667   0.24999   0.69693   0.00000  Uiso   1.00
C505   C     0.50000   0.16389   0.75001   0.00000  Uiso   1.00
C506   C     0.48056   0.21382   0.94492   0.00000  Uiso   1.00
C507   C     0.49935   0.25019   0.52653   0.00000  Uiso   1.00
C508   C     0.49974   0.25048   0.97328   0.00000  Uiso   1.00
C509   C     0.40033   0.24997   0.73753   0.00000  Uiso   1.00
C510   C     0.59967   0.25000   0.76248   0.00000  Uiso   1.00
C511   C     0.34531   0.24990   0.73079   0.00000  Uiso   1.00
C512   C     0.65470   0.25001   0.76922   0.00000  Uiso   1.00
C513   C     0.51905   0.04711   0.79222   0.00000  Uiso   1.00
C514   C     0.51826   0.45295   0.71279   0.00000  Uiso   1.00
C515   C     0.51858   0.09309   0.79225   0.00000  Uiso   1.00
C516   C     0.50004   0.33612   0.75001   0.00000  Uiso   1.00
C517   C     0.51783   0.40697   0.71257   0.00000  Uiso   1.00
C518   C     0.50008   0.11601   0.75006   0.00000  Uiso   1.00
C519   C     0.50021   0.38401   0.75008   0.00000  Uiso   1.00
C520   C     0.48169   0.09300   0.70794   0.00000  Uiso   1.00
C521   C     0.48283   0.40699   0.78773   0.00000  Uiso   1.00
C522   C     0.48153   0.04702   0.70807   0.00000  Uiso   1.00
C523   C     0.48265   0.45297   0.78763   0.00000  Uiso   1.00
C524   C     0.50038   0.02406   0.75016   0.00000  Uiso   1.00
C525   C     0.50047   0.47596   0.75021   0.00000  Uiso   1.00
C526   C     0.37524   0.26091   0.50865   0.00000  Uiso   1.00
C527   C     0.45437   0.23731   0.54637   0.00000  Uiso   1.00
C528   C     0.66024   0.24752   0.97388   0.00000  Uiso   1.00
C529   C     0.49959   0.35771   0.97114   0.00000  Uiso   1.00
C530   C     0.51910   0.39669   0.50322   0.00000  Uiso   1.00
C531   C     0.51868   0.28741   0.94996   0.00000  Uiso   1.00
C532   C     0.45616   0.23677   0.59643   0.00000  Uiso   1.00
C533   C     0.51925   0.28590   0.90021   0.00000  Uiso   1.00
C534   C     0.54344   0.26331   0.60788   0.00000  Uiso   1.00
C535   C     0.48069   0.21438   0.89532   0.00000  Uiso   1.00
C536   C     0.54406   0.26328   0.55836   0.00000  Uiso   1.00
H537   H     0.65802   0.24974   0.69434   0.00000  Uiso   1.00
H538   H     0.46814   0.47056   0.81638   0.00000  Uiso   1.00
H539   H     0.42201   0.22605   0.61138   0.00000  Uiso   1.00
H540   H     0.53494   0.31377   0.88273   0.00000  Uiso   1.00
H541   H     0.57803   0.27392   0.63162   0.00000  Uiso   1.00
H542   H     0.46550   0.18604   0.87407   0.00000  Uiso   1.00
H543   H     0.57965   0.27308   0.54512   0.00000  Uiso   1.00
H544   H     0.46599   0.18459   0.96103   0.00000  Uiso   1.00
H545   H     0.39474   0.28888   0.99234   0.00000  Uiso   1.00
H546   H     0.36222   0.27251   0.54234   0.00000  Uiso   1.00
H547   H     0.63852   0.22077   0.98965   0.00000  Uiso   1.00
H548   H     0.34202   0.25013   0.80567   0.00000  Uiso   1.00
H549   H     0.63400   0.27675   0.96594   0.00000  Uiso   1.00
H550   H     0.33872   0.23535   0.94003   0.00000  Uiso   1.00
H551   H     0.46257   0.34525   0.98236   0.00000  Uiso   1.00
H552   H     0.49128   0.36994   0.93363   0.00000  Uiso   1.00
H553   H     0.55570   0.41040   0.99265   0.00000  Uiso   1.00
H554   H     0.48881   0.42331   0.99992   0.00000  Uiso   1.00
H555   H     0.52716   0.38553   0.54100   0.00000  Uiso   1.00
H556   H     0.53438   0.02956   0.82477   0.00000  Uiso   1.00
H557   H     0.53284   0.47053   0.68407   0.00000  Uiso   1.00
H558   H     0.53331   0.11066   0.82493   0.00000  Uiso   1.00
H559   H     0.53185   0.38945   0.68352   0.00000  Uiso   1.00
H560   H     0.46683   0.11050   0.67523   0.00000  Uiso   1.00
H561   H     0.46876   0.38948   0.81676   0.00000  Uiso   1.00
H562   H     0.46629   0.02940   0.67556   0.00000  Uiso   1.00
N563   N     0.50000   0.24999   0.62623   0.00000  Uiso   1.00
N564   N     0.50000   0.25001   0.87376   0.00000  Uiso   1.00
O565   O     0.50000   0.18453   0.78974   0.00000  Uiso   1.00
O566   O     0.53852   0.32427   0.97575   0.00000  Uiso   1.00
O567   O     0.50000   0.31546   0.71026   0.00000  Uiso   1.00
O568   O     0.50000   0.18453   0.71026   0.00000  Uiso   1.00
O569   O     0.50000   0.31547   0.78974   0.00000  Uiso   1.00
O570   O     0.42392   0.25000   0.78045   0.00000  Uiso   1.00
O571   O     0.57608   0.25000   0.71955   0.00000  Uiso   1.00
O572   O     0.42392   0.24999   0.70097   0.00000  Uiso   1.00
O573   O     0.57608   0.25000   0.79903   0.00000  Uiso   1.00
O574   O     0.40913   0.22389   0.51734   0.00000  Uiso   1.00
Zn575  Zn    0.50000   0.25000   0.80307   0.00000  Uiso   1.00
Zn576  Zn    0.50000   0.24999   0.69693   0.00000  Uiso   1.00
C577   C     0.83333   0.16389   0.75001   0.00000  Uiso   1.00
C578   C     0.81390   0.21382   0.94492   0.00000  Uiso   1.00
C579   C     0.83268   0.25019   0.52653   0.00000  Uiso   1.00
C580   C     0.83307   0.25048   0.97328   0.00000  Uiso   1.00
C581   C     0.73366   0.24997   0.73753   0.00000  Uiso   1.00
C582   C     0.93301   0.25000   0.76248   0.00000  Uiso   1.00
C583   C     0.67865   0.24990   0.73079   0.00000  Uiso   1.00
C584   C     0.98803   0.25001   0.76922   0.00000  Uiso   1.00
C585   C     0.85238   0.04711   0.79222   0.00000  Uiso   1.00
C586   C     0.85160   0.45295   0.71279   0.00000  Uiso   1.00
C587   C     0.85192   0.09309   0.79225   0.00000  Uiso   1.00
C588   C     0.83338   0.33612   0.75001   0.00000  Uiso   1.00
C589   C     0.85116   0.40697   0.71257   0.00000  Uiso   1.00
C590   C     0.83341   0.11601   0.75006   0.00000  Uiso   1.00
C591   C     0.83355   0.38401   0.75008   0.00000  Uiso   1.00
C592   C     0.81502   0.09300   0.70794   0.00000  Uiso   1.00
C593   C     0.81617   0.40699   0.78773   0.00000  Uiso   1.00
C594   C     0.81487   0.04702   0.70807   0.00000  Uiso   1.00
C595   C     0.81599   0.45297   0.78763   0.00000  Uiso   1.00
C596   C     0.83371   0.02406   0.75016   0.00000  Uiso   1.00
C597   C     0.83381   0.47596   0.75021   0.00000  Uiso   1.00
C598   C     0.70857   0.26091   0.50865   0.00000  Uiso   1.00
C599   C     0.78770   0.23731   0.54637   0.00000  Uiso   1.00
C600   C     0.99358   0.24752   0.97388   0.00000  Uiso   1.00
C601   C     0.83292   0.35771   0.97114   0.00000  Uiso   1.00
C602   C     0.85243   0.39669   0.50322   0.00000  Uiso   1.00
C603   C     0.85202   0.28741   0.94996   0.00000  Uiso   1.00
C604   C     0.78949   0.23677   0.59643   0.00000  Uiso   1.00
C605   C     0.85259   0.28590   0.90021   0.00000  Uiso   1.00
C606   C     0.87677   0.26331   0.60788   0.00000  Uiso   1.00
C607   C     0.81403   0.21438   0.89532   0.00000  Uiso   1.00
C608   C     0.87740   0.26328   0.55836   0.00000  Uiso   1.00
H609   H     0.99135   0.24974   0.69434   0.00000  Uiso   1.00
H610   H     0.80148   0.47056   0.81638   0.00000  Uiso   1.00
H611   H     0.75535   0.22605   0.61138   0.00000  Uiso   1.00
H612   H     0.86827   0.31377   0.88273   0.00000  Uiso   1.00
H613   H     0.91136   0.27392   0.63162   0.00000  Uiso   1.00
H614   H     0.79883   0.18604   0.87407   0.00000  Uiso   1.00
H615   H     0.91298   0.27308   0.54512   0.00000  Uiso   1.00
H616   H     0.79932   0.18459   0.96103   0.00000  Uiso   1.00
H617   H     0.72808   0.28888   0.99234   0.00000  Uiso   1.00
H618   H     0.69555   0.27251   0.54234   0.00000  Uiso   1.00
H619   H     0.97185   0.22077   0.98965   0.00000  Uiso   1.00
H620   H     0.67535   0.25013   0.80567   0.00000  Uiso   1.00
H621   H     0.96733   0.27675   0.96594   0.00000  Uiso   1.00
H622   H     0.67205   0.23535   0.94003   0.00000  Uiso   1.00
H623   H     0.79590   0.34525   0.98236   0.00000  Uiso   1.00
H624   H     0.82461   0.36994   0.93363   0.00000  Uiso   1.00
H625   H     0.88903   0.41040   0.99265   0.00000  Uiso   1.00
H626   H     0.82214   0.42331   0.99992   0.00000  Uiso   1.00
H627   H     0.86049   0.38553   0.54100   0.00000  Uiso   1.00
H628   H     0.86771   0.02956   0.82477   0.00000  Uiso   1.00
H629   H     0.86617   0.47053   0.68407   0.00000  Uiso   1.00
H630   H     0.86665   0.11066   0.82493   0.00000  Uiso   1.00
H631   H     0.86518   0.38945   0.68352   0.00000  Uiso   1.00
H632   H     0.80016   0.11050   0.67523   0.00000  Uiso   1.00
H633   H     0.80210   0.38948   0.81676   0.00000  Uiso   1.00
H634   H     0.79962   0.02940   0.67556   0.00000  Uiso   1.00
N635   N     0.83333   0.24999   0.62623   0.00000  Uiso   1.00
N636   N     0.83333   0.25001   0.87376   0.00000  Uiso   1.00
O637   O     0.83334   0.18453   0.78974   0.00000  Uiso   1.00
O638   O     0.87185   0.32427   0.97575   0.00000  Uiso   1.00
O639   O     0.83333   0.31546   0.71026   0.00000  Uiso   1.00
O640   O     0.83334   0.18453   0.71026   0.00000  Uiso   1.00
O641   O     0.83333   0.31547   0.78974   0.00000  Uiso   1.00
O642   O     0.75725   0.25000   0.78045   0.00000  Uiso   1.00
O643   O     0.90942   0.25000   0.71955   0.00000  Uiso   1.00
O644   O     0.75725   0.24999   0.70097   0.00000  Uiso   1.00
O645   O     0.90942   0.25000   0.79903   0.00000  Uiso   1.00
O646   O     0.74246   0.22389   0.51734   0.00000  Uiso   1.00
Zn647  Zn    0.83333   0.25000   0.80307   0.00000  Uiso   1.00
Zn648  Zn    0.83333   0.24999   0.69693   0.00000  Uiso   1.00
C649   C     0.16666   0.66389   0.75001   0.00000  Uiso   1.00
C650   C     0.14723   0.71382   0.94492   0.00000  Uiso   1.00
C651   C     0.16601   0.75019   0.52653   0.00000  Uiso   1.00
C652   C     0.16641   0.75048   0.97328   0.00000  Uiso   1.00
C653   C     0.06700   0.74997   0.73753   0.00000  Uiso   1.00
C654   C     0.26634   0.75000   0.76248   0.00000  Uiso   1.00
C655   C     0.01198   0.74990   0.73079   0.00000  Uiso   1.00
C656   C     0.32137   0.75001   0.76922   0.00000  Uiso   1.00
C657   C     0.18572   0.54711   0.79222   0.00000  Uiso   1.00
C658   C     0.18493   0.95295   0.71279   0.00000  Uiso   1.00
C659   C     0.18525   0.59309   0.79225   0.00000  Uiso   1.00
C660   C     0.16671   0.83612   0.75001   0.00000  Uiso   1.00
C661   C     0.18450   0.90697   0.71257   0.00000  Uiso   1.00
C662   C     0.16675   0.61601   0.75006   0.00000  Uiso   1.00
C663   C     0.16688   0.88401   0.75008   0.00000  Uiso   1.00
C664   C     0.14836   0.59300   0.70794   0.00000  Uiso   1.00
C665   C     0.14950   0.90699   0.78773   0.00000  Uiso   1.00
C666   C     0.14820   0.54702   0.70807   0.00000  Uiso   1.00
C667   C     0.14932   0.95297   0.78763   0.00000  Uiso   1.00
C668   C     0.16705   0.52406   0.75016   0.00000  Uiso   1.00
C669   C     0.16714   0.97596   0.75021   0.00000  Uiso   1.00
C670   C     0.04191   0.76091   0.50865   0.00000  Uiso   1.00
C671   C     0.12104   0.73731   0.54637   0.00000  Uiso   1.00
C672   C     0.32691   0.74752   0.97388   0.00000  Uiso   1.00
C673   C     0.16625   0.85771   0.97114   0.00000  Uiso   1.00
C674   C     0.18576   0.89669   0.50322   0.00000  Uiso   1.00
C675   C     0.18535   0.78741   0.94996   0.00000  Uiso   1.00
C676   C     0.12282   0.73677   0.59643   0.00000  Uiso   1.00
C677   C     0.18592   0.78590   0.90021   0.00000  Uiso   1.00
C678   C     0.21010   0.76331   0.60788   0.00000  Uiso   1.00
C679   C     0.14736   0.71438   0.89532   0.00000  Uiso   1.00
C680   C     0.21073   0.76328   0.55836   0.00000  Uiso   1.00
H681   H     0.32468   0.74974   0.69434   0.00000  Uiso   1.00
H682   H     0.13481   0.97056   0.81638   0.00000  Uiso   1.00
H683   H     0.08868   0.72605   0.61138   0.00000  Uiso   1.00
H684   H     0.20160   0.81377   0.88273   0.00000  Uiso   1.00
H685   H     0.24469   0.77392   0.63162   0.00000  Uiso   1.00
H686   H     0.13216   0.68604   0.87407   0.00000  Uiso   1.00
H687   H     0.24631   0.77308   0.54512   0.00000  Uiso   1.00
H688   H     0.13266   0.68459   0.96103   0.00000  Uiso   1.00
H689   H     0.06141   0.78888   0.99234   0.00000  Uiso   1.00
H690   H     0.02888   0.77251   0.54234   0.00000  Uiso   1.00
H691   H     0.30518   0.72077   0.98965   0.00000  Uiso   1.00
H692   H     0.00868   0.75013   0.80567   0.00000  Uiso   1.00
H693   H     0.30067   0.77675   0.96594   0.00000  Uiso   1.00
H694   H     0.00539   0.73535   0.94003   0.00000  Uiso   1.00
H695   H     0.12923   0.84525   0.98236   0.00000  Uiso   1.00
H696   H     0.15795   0.86994   0.93363   0.00000  Uiso   1.00
H697   H     0.22237   0.91040   0.99265   0.00000  Uiso   1.00
H698   H     0.15547   0.92331   0.99992   0.00000  Uiso   1.00
H699   H     0.19383   0.88553   0.54100   0.00000  Uiso   1.00
H700   H     0.20104   0.52956   0.82477   0.00000  Uiso   1.00
H701   H     0.19951   0.97053   0.68407   0.00000  Uiso   1.00
H702   H     0.19998   0.61066   0.82493   0.00000  Uiso   1.00
H703   H     0.19852   0.88945   0.68352   0.00000  Uiso   1.00
H704   H     0.13349   0.61050   0.67523   0.00000  Uiso   1.00
H705   H     0.13543   0.88948   0.81676   0.00000  Uiso   1.00
H706   H     0.13296   0.52940   0.67556   0.00000  Uiso   1.00
N707   N     0.16667   0.74999   0.62623   0.00000  Uiso   1.00
N708   N     0.16667   0.75001   0.87376   0.00000  Uiso   1.00
O709   O     0.16667   0.68453   0.78974   0.00000  Uiso   1.00
O710   O     0.20518   0.82427   0.97575   0.00000  Uiso   1.00
O711   O     0.16666   0.81546   0.71026   0.00000  Uiso   1.00
O712   O     0.16667   0.68453   0.71026   0.00000  Uiso   1.00
O713   O     0.16666   0.81547   0.78974   0.00000  Uiso   1.00
O714   O     0.09058   0.75000   0.78045   0.00000  Uiso   1.00
O715   O     0.24275   0.75000   0.71955   0.00000  Uiso   1.00
O716   O     0.09058   0.74999   0.70097   0.00000  Uiso   1.00
O717   O     0.24275   0.75000   0.79903   0.00000  Uiso   1.00
O718   O     0.07579   0.72389   0.51734   0.00000  Uiso   1.00
Zn719  Zn    0.16667   0.75000   0.80307   0.00000  Uiso   1.00
Zn720  Zn    0.16667   0.74999   0.69693   0.00000  Uiso   1.00
C721   C     0.50000   0.66389   0.75001   0.00000  Uiso   1.00
C722   C     0.48056   0.71382   0.94492   0.00000  Uiso   1.00
C723   C     0.49935   0.75019   0.52653   0.00000  Uiso   1.00
C724   C     0.49974   0.75048   0.97328   0.00000  Uiso   1.00
C725   C     0.40033   0.74997   0.73753   0.00000  Uiso   1.00
C726   C     0.59967   0.75000   0.76248   0.00000  Uiso   1.00
C727   C     0.34531   0.74990   0.73079   0.00000  Uiso   1.00
C728   C     0.65470   0.75001   0.76922   0.00000  Uiso   1.00
C729   C     0.51905   0.54711   0.79222   0.00000  Uiso   1.00
C730   C     0.51826   0.95295   0.71279   0.00000  Uiso   1.00
C731   C     0.51858   0.59309   0.79225   0.00000  Uiso   1.00
C732   C     0.50004   0.83612   0.75001   0.00000  Uiso   1.00
C733   C     0.51783   0.90697   0.71257   0.00000  Uiso   1.00
C734   C     0.50008   0.61601   0.75006   0.00000  Uiso   1.00
C735   C     0.50021   0.88401   0.75008   0.00000  Uiso   1.00
C736   C     0.48169   0.59300   0.70794   0.00000  Uiso   1.00
C737   C     0.48283   0.90699   0.78773   0.00000  Uiso   1.00
C738   C     0.48153   0.54702   0.70807   0.00000  Uiso   1.00
C739   C     0.48265   0.95297   0.78763   0.00000  Uiso   1.00
C740   C     0.50038   0.52406   0.75016   0.00000  Uiso   1.00
C741   C     0.50047   0.97596   0.75021   0.00000  Uiso   1.00
C742   C     0.37524   0.76091   0.50865   0.00000  Uiso   1.00
C743   C     0.45437   0.73731   0.54637   0.00000  Uiso   1.00
C744   C     0.66024   0.74752   0.97388   0.00000  Uiso   1.00
C745   C     0.49959   0.85771   0.97114   0.00000  Uiso   1.00
C746   C     0.51910   0.89669   0.50322   0.00000  Uiso   1.00
C747   C     0.51868   0.78741   0.94996   0.00000  Uiso   1.00
C748   C     0.45616   0.73677   0.59643   0.00000  Uiso   1.00
C749   C     0.51925   0.78590   0.90021   0.00000  Uiso   1.00
C750   C     0.54344   0.76331   0.60788   0.00000  Uiso   1.00
C751   C     0.48069   0.71438   0.89532   0.00000  Uiso   1.00
C752   C     0.54406   0.76328   0.55836   0.00000  Uiso   1.00
H753   H     0.65802   0.74974   0.69434   0.00000  Uiso   1.00
H754   H     0.46814   0.97056   0.81638   0.00000  Uiso   1.00
H755   H     0.42201   0.72605   0.61138   0.00000  Uiso   1.00
H756   H     0.53494   0.81377   0.88273   0.00000  Uiso   1.00
H757   H     0.57803   0.77392   0.63162   0.00000  Uiso   1.00
H758   H     0.46550   0.68604   0.87407   0.00000  Uiso   1.00
H759   H     0.57965   0.77308   0.54512   0.00000  Uiso   1.00
H760   H     0.46599   0.68459   0.96103   0.00000  Uiso   1.00
H761   H     0.39474   0.78888   0.99234   0.00000  Uiso   1.00
H762   H     0.36222   0.77251   0.54234   0.00000  Uiso   1.00
H763   H     0.63852   0.72077   0.98965   0.00000  Uiso   1.00
H764   H     0.34202   0.75013   0.80567   0.00000  Uiso   1.00
H765   H     0.63400   0.77675   0.96594   0.00000  Uiso   1.00
H766   H     0.33872   0.73535   0.94003   0.00000  Uiso   1.00
H767   H     0.46257   0.84525   0.98236   0.00000  Uiso   1.00
H768   H     0.49128   0.86994   0.93363   0.00000  Uiso   1.00
H769   H     0.55570   0.91040   0.99265   0.00000  Uiso   1.00
H770   H     0.48881   0.92331   0.99992   0.00000  Uiso   1.00
H771   H     0.52716   0.88553   0.54100   0.00000  Uiso   1.00
H772   H     0.53438   0.52956   0.82477   0.00000  Uiso   1.00
H773   H     0.53284   0.97053   0.68407   0.00000  Uiso   1.00
H774   H     0.53331   0.61066   0.82493   0.00000  Uiso   1.00
H775   H     0.53185   0.88945   0.68352   0.00000  Uiso   1.00
H776   H     0.46683   0.61050   0.67523   0.00000  Uiso   1.00
H777   H     0.46876   0.88948   0.81676   0.00000  Uiso   1.00
H778   H     0.46629   0.52940   0.67556   0.00000  Uiso   1.00
N779   N     0.50000   0.74999   0.62623   0.00000  Uiso   1.00
N780   N     0.50000   0.75001   0.87376   0.00000  Uiso   1.00
O781   O     0.50000   0.68453   0.78974   0.00000  Uiso   1.00
O782   O     0.53852   0.82427   0.97575   0.00000  Uiso   1.00
O783   O     0.50000   0.81546   0.71026   0.00000  Uiso   1.00
O784   O     0.50000   0.68453   0.71026   0.00000  Uiso   1.00
O785   O     0.50000   0.81547   0.78974   0.00000  Uiso   1.00
O786   O     0.42392   0.75000   0.78045   0.00000  Uiso   1.00
O787   O     0.57608   0.75000   0.71955   0.00000  Uiso   1.00
O788   O     0.42392   0.74999   0.70097   0.00000  Uiso   1.00
O789   O     0.57608   0.75000   0.79903   0.00000  Uiso   1.00
O790   O     0.40913   0.72389   0.51734   0.00000  Uiso   1.00
Zn791  Zn    0.50000   0.75000   0.80307   0.00000  Uiso   1.00
Zn792  Zn    0.50000   0.74999   0.69693   0.00000  Uiso   1.00
C793   C     0.83333   0.66389   0.75001   0.00000  Uiso   1.00
C794   C     0.81390   0.71382   0.94492   0.00000  Uiso   1.00
C795   C     0.83268   0.75019   0.52653   0.00000  Uiso   1.00
C796   C     0.83307   0.75048   0.97328   0.00000  Uiso   1.00
C797   C     0.73366   0.74997   0.73753   0.00000  Uiso   1.00
C798   C     0.93301   0.75000   0.76248   0.00000  Uiso   1.00
C799   C     0.67865   0.74990   0.73079   0.00000  Uiso   1.00
C800   C     0.98803   0.75001   0.76922   0.00000  Uiso   1.00
C801   C     0.85238   0.54711   0.79222   0.00000  Uiso   1.00
C802   C     0.85160   0.95295   0.71279   0.00000  Uiso   1.00
C803   C     0.85192   0.59309   0.79225   0.00000  Uiso   1.00
C804   C     0.83338   0.83612   0.75001   0.00000  Uiso   1.00
C805   C     0.85116   0.90697   0.71257   0.00000  Uiso   1.00
C806   C     0.83341   0.61601   0.75006   0.00000  Uiso   1.00
C807   C     0.83355   0.88401   0.75008   0.00000  Uiso   1.00
C808   C     0.81502   0.59300   0.70794   0.00000  Uiso   1.00
C809   C     0.81617   0.90699   0.78773   0.00000  Uiso   1.00
C810   C     0.81487   0.54702   0.70807   0.00000  Uiso   1.00
C811   C     0.81599   0.95297   0.78763   0.00000  Uiso   1.00
C812   C     0.83371   0.52406   0.75016   0.00000  Uiso   1.00
C813   C     0.83381   0.97596   0.75021   0.00000  Uiso   1.00
C814   C     0.70857   0.76091   0.50865   0.00000  Uiso   1.00
C815   C     0.78770   0.73731   0.54637   0.00000  Uiso   1.00
C816   C     0.99358   0.74752   0.97388   0.00000  Uiso   1.00
C817   C     0.83292   0.85771   0.97114   0.00000  Uiso   1.00
C818   C     0.85243   0.89669   0.50322   0.00000  Uiso   1.00
C819   C     0.85202   0.78741   0.94996   0.00000  Uiso   1.00
C820   C     0.78949   0.73677   0.59643   0.00000  Uiso   1.00
C821   C     0.85259   0.78590   0.90021   0.00000  Uiso   1.00
C822   C     0.87677   0.76331   0.60788   0.00000  Uiso   1.00
C823   C     0.81403   0.71438   0.89532   0.00000  Uiso   1.00
C824   C     0.87740   0.76328   0.55836   0.00000  Uiso   1.00
H825   H     0.99135   0.74974   0.69434   0.00000  Uiso   1.00
H826   H     0.80148   0.97056   0.81638   0.00000  Uiso   1.00
H827   H     0.75535   0.72605   0.61138   0.00000  Uiso   1.00
H828   H     0.86827   0.81377   0.88273   0.00000  Uiso   1.00
H829   H     0.91136   0.77392   0.63162   0.00000  Uiso   1.00
H830   H     0.79883   0.68604   0.87407   0.00000  Uiso   1.00
H831   H     0.91298   0.77308   0.54512   0.00000  Uiso   1.00
H832   H     0.79932   0.68459   0.96103   0.00000  Uiso   1.00
H833   H     0.72808   0.78888   0.99234   0.00000  Uiso   1.00
H834   H     0.69555   0.77251   0.54234   0.00000  Uiso   1.00
H835   H     0.97185   0.72077   0.98965   0.00000  Uiso   1.00
H836   H     0.67535   0.75013   0.80567   0.00000  Uiso   1.00
H837   H     0.96733   0.77675   0.96594   0.00000  Uiso   1.00
H838   H     0.67205   0.73535   0.94003   0.00000  Uiso   1.00
H839   H     0.79590   0.84525   0.98236   0.00000  Uiso   1.00
H840   H     0.82461   0.86994   0.93363   0.00000  Uiso   1.00
H841   H     0.88903   0.91040   0.99265   0.00000  Uiso   1.00
H842   H     0.82214   0.92331   0.99992   0.00000  Uiso   1.00
H843   H     0.86049   0.88553   0.54100   0.00000  Uiso   1.00
H844   H     0.86771   0.52956   0.82477   0.00000  Uiso   1.00
H845   H     0.86617   0.97053   0.68407   0.00000  Uiso   1.00
H846   H     0.86665   0.61066   0.82493   0.00000  Uiso   1.00
H847   H     0.86518   0.88945   0.68352   0.00000  Uiso   1.00
H848   H     0.80016   0.61050   0.67523   0.00000  Uiso   1.00
H849   H     0.80210   0.88948   0.81676   0.00000  Uiso   1.00
H850   H     0.79962   0.52940   0.67556   0.00000  Uiso   1.00
N851   N     0.83333   0.74999   0.62623   0.00000  Uiso   1.00
N852   N     0.83333   0.75001   0.87376   0.00000  Uiso   1.00
O853   O     0.83334   0.68453   0.78974   0.00000  Uiso   1.00
O854   O     0.87185   0.82427   0.97575   0.00000  Uiso   1.00
O855   O     0.83333   0.81546   0.71026   0.00000  Uiso   1.00
O856   O     0.83334   0.68453   0.71026   0.00000  Uiso   1.00
O857   O     0.83333   0.81547   0.78974   0.00000  Uiso   1.00
O858   O     0.75725   0.75000   0.78045   0.00000  Uiso   1.00
O859   O     0.90942   0.75000   0.71955   0.00000  Uiso   1.00
O860   O     0.75725   0.74999   0.70097   0.00000  Uiso   1.00
O861   O     0.90942   0.75000   0.79903   0.00000  Uiso   1.00
O862   O     0.74246   0.72389   0.51734   0.00000  Uiso   1.00
Zn863  Zn    0.83333   0.75000   0.80307   0.00000  Uiso   1.00
Zn864  Zn    0.83333   0.74999   0.69693   0.00000  Uiso   1.00
loop_
_geom_bond_atom_site_label_1
_geom_bond_atom_site_label_2
_geom_bond_distance
_geom_bond_site_symmetry_2
_ccdc_geom_bond_type
C1     O64     1.285   .     A
C1     C14     1.437   .     S
C1     O61     1.285   .     A
C2     C4      1.408   .     A
C2     H40     1.082   .     S
C2     C31     1.406   .     A
C3     C23     1.416   .     A
C3     C32     1.408   .     A
C3     C436    1.510   1_554 S
C4     C27     1.415   .     A
C4     C435    1.510   .     S
C5     C7      1.401   .     S
C5     O68     1.277   .     A
C5     O66     1.275   .     A
C6     O69     1.278   .     A
C6     O67     1.275   .     A
C6     C8      1.402   .     S
C7     C152    1.330   1_455 S
C7     H177    1.088   1_455 S
C8     C79     1.330   .     S
C8     H116    1.088   .     S
C9     C20     1.399   .     A
C9     C11     1.380   .     A
C9     H52     1.083   .     S
C10    C13     1.380   .     A
C10    C21     1.399   .     A
C10    H53     1.083   .     S
C11    H54     1.084   .     S
C11    C14     1.399   .     A
C12    O65     1.285   .     A
C12    C15     1.438   .     S
C12    O63     1.286   .     A
C13    C15     1.399   .     A
C13    H55     1.084   .     S
C14    C16     1.399   .     A
C15    C17     1.399   .     A
C16    H56     1.084   .     S
C16    C18     1.380   .     A
C17    C19     1.380   .     A
C17    H57     1.084   .     S
C18    H58     1.083   .     S
C18    C20     1.399   .     A
C19    C21     1.399   .     A
C19    H34     1.083   .     S
C20    C237    1.444   1_545 S
C21    C236    1.444   .     S
C22    H42     1.114   .     S
C22    O70     1.411   .     S
C22    C600    1.521   1_454 S
C22    H473    1.114   1_554 S
C23    O70     1.382   .     S
C23    C28     1.412   .     A
C24    H45     1.110   .     S
C24    H43     1.111   .     S
C24    C526    1.521   .     S
C24    H118    1.111   .     S
C25    H47     1.115   .     S
C25    O62     1.411   .     S
C25    H48     1.114   .     S
C25    C458    1.520   .     S
C26    H51     1.111   .     S
C26    C457    1.520   1_554 S
C26    H481    1.111   1_554 S
C26    H482    1.110   1_554 S
C27    O62     1.381   .     S
C27    C29     1.413   .     A
C28    N59     1.364   .     A
C28    H35     1.081   .     S
C29    N60     1.363   .     A
C29    H36     1.082   .     S
C30    N59     1.363   .     A
C30    C32     1.405   .     A
C30    H37     1.081   .     S
C31    N60     1.363   .     A
C31    H38     1.081   .     S
C32    H39     1.082   .     S
H33    C79     1.088   .     S
H41    C454    1.114   .     S
H44    C152    1.088   1_455 S
H46    C168    1.111   1_455 S
H49    C458    1.111   .     S
H50    C458    1.110   .     S
N59    Zn72    2.003   .     S
N60    Zn71    2.003   .     S
O61    Zn71    2.002   .     S
O63    Zn72    2.002   .     S
O64    Zn72    2.001   .     S
O65    Zn71    2.001   .     S
O66    Zn71    1.968   .     S
O67    Zn72    1.968   .     S
O68    Zn72    1.980   .     S
O69    Zn71    1.980   .     S
C73    O136    1.285   .     A
C73    C86     1.437   .     S
C73    O133    1.285   .     A
C74    C76     1.408   .     A
C74    H112    1.082   .     S
C74    C103    1.406   .     A
C75    C95     1.416   .     A
C75    C104    1.408   .     A
C75    C508    1.510   1_554 S
C76    C99     1.415   .     A
C76    C507    1.510   .     S
C77    C79     1.401   .     S
C77    O140    1.277   .     A
C77    O138    1.275   .     A
C78    O141    1.278   .     A
C78    O139    1.275   .     A
C78    C80     1.402   .     S
C80    C151    1.330   .     S
C80    H188    1.088   .     S
C81    C92     1.399   .     A
C81    C83     1.380   .     A
C81    H124    1.083   .     S
C82    C85     1.380   .     A
C82    C93     1.399   .     A
C82    H125    1.083   .     S
C83    H126    1.084   .     S
C83    C86     1.399   .     A
C84    O137    1.285   .     A
C84    C87     1.438   .     S
C84    O135    1.286   .     A
C85    C87     1.399   .     A
C85    H127    1.084   .     S
C86    C88     1.399   .     A
C87    C89     1.399   .     A
C88    H128    1.084   .     S
C88    C90     1.380   .     A
C89    C91     1.380   .     A
C89    H129    1.084   .     S
C90    H130    1.083   .     S
C90    C92     1.399   .     A
C91    C93     1.399   .     A
C91    H106    1.083   .     S
C92    C309    1.444   1_545 S
C93    C308    1.444   .     S
C94    H114    1.114   .     S
C94    O142    1.411   .     S
C94    C456    1.521   1_554 S
C94    H545    1.114   1_554 S
C95    O142    1.382   .     S
C95    C100    1.412   .     A
C96    H117    1.110   .     S
C96    H115    1.111   .     S
C96    C598    1.521   .     S
C96    H190    1.111   .     S
C97    H119    1.115   .     S
C97    O134    1.411   .     S
C97    H120    1.114   .     S
C97    C530    1.520   .     S
C98    H123    1.111   .     S
C98    C529    1.520   1_554 S
C98    H553    1.111   1_554 S
C98    H554    1.110   1_554 S
C99    O134    1.381   .     S
C99    C101    1.413   .     A
C100   N131    1.364   .     A
C100   H107    1.081   .     S
C101   N132    1.363   .     A
C101   H108    1.082   .     S
C102   N131    1.363   .     A
C102   C104    1.405   .     A
C102   H109    1.081   .     S
C103   N132    1.363   .     A
C103   H110    1.081   .     S
C104   H111    1.082   .     S
H105   C151    1.088   .     S
H113   C526    1.114   .     S
H121   C530    1.111   .     S
H122   C530    1.110   .     S
N131   Zn144   2.003   .     S
N132   Zn143   2.003   .     S
O133   Zn143   2.002   .     S
O135   Zn144   2.002   .     S
O136   Zn144   2.001   .     S
O137   Zn143   2.001   .     S
O138   Zn143   1.968   .     S
O139   Zn144   1.968   .     S
O140   Zn144   1.980   .     S
O141   Zn143   1.980   .     S
C145   O208    1.285   .     A
C145   C158    1.437   .     S
C145   O205    1.285   .     A
C146   C148    1.408   .     A
C146   H184    1.082   .     S
C146   C175    1.406   .     A
C147   C167    1.416   .     A
C147   C176    1.408   .     A
C147   C580    1.510   1_554 S
C148   C171    1.415   .     A
C148   C579    1.510   .     S
C149   C151    1.401   .     S
C149   O212    1.277   .     A
C149   O210    1.275   .     A
C150   O213    1.278   .     A
C150   O211    1.275   .     A
C150   C152    1.402   .     S
C152   C7      1.330   1_655 S
C152   H44     1.088   1_655 S
C153   C164    1.399   .     A
C153   C155    1.380   .     A
C153   H196    1.083   .     S
C154   C157    1.380   .     A
C154   C165    1.399   .     A
C154   H197    1.083   .     S
C155   H198    1.084   .     S
C155   C158    1.399   .     A
C156   O209    1.285   .     A
C156   C159    1.438   .     S
C156   O207    1.286   .     A
C157   C159    1.399   .     A
C157   H199    1.084   .     S
C158   C160    1.399   .     A
C159   C161    1.399   .     A
C160   H200    1.084   .     S
C160   C162    1.380   .     A
C161   C163    1.380   .     A
C161   H201    1.084   .     S
C162   H202    1.083   .     S
C162   C164    1.399   .     A
C163   C165    1.399   .     A
C163   H178    1.083   .     S
C164   C381    1.444   1_545 S
C165   C380    1.444   .     S
C166   H186    1.114   .     S
C166   O214    1.411   .     S
C166   C528    1.521   1_554 S
C166   H617    1.114   1_554 S
C167   O214    1.382   .     S
C167   C172    1.412   .     A
C168   H189    1.110   .     S
C168   H187    1.111   .     S
C168   C454    1.521   1_655 S
C168   H46     1.111   1_655 S
C169   H191    1.115   .     S
C169   O206    1.411   .     S
C169   H192    1.114   .     S
C169   C602    1.520   .     S
C170   H195    1.111   .     S
C170   C601    1.520   1_554 S
C170   H625    1.111   1_554 S
C170   H626    1.110   1_554 S
C171   O206    1.381   .     S
C171   C173    1.413   .     A
C172   N203    1.364   .     A
C172   H179    1.081   .     S
C173   N204    1.363   .     A
C173   H180    1.082   .     S
C174   N203    1.363   .     A
C174   C176    1.405   .     A
C174   H181    1.081   .     S
C175   N204    1.363   .     A
C175   H182    1.081   .     S
C176   H183    1.082   .     S
H177   C7      1.088   1_655 S
H185   C598    1.114   .     S
H193   C602    1.111   .     S
H194   C602    1.110   .     S
N203   Zn216   2.003   .     S
N204   Zn215   2.003   .     S
O205   Zn215   2.002   .     S
O207   Zn216   2.002   .     S
O208   Zn216   2.001   .     S
O209   Zn215   2.001   .     S
O210   Zn215   1.968   .     S
O211   Zn216   1.968   .     S
O212   Zn216   1.980   .     S
O213   Zn215   1.980   .     S
C217   O280    1.285   .     A
C217   C230    1.437   .     S
C217   O277    1.285   .     A
C218   C220    1.408   .     A
C218   H256    1.082   .     S
C218   C247    1.406   .     A
C219   C239    1.416   .     A
C219   C248    1.408   .     A
C219   C652    1.510   1_554 S
C220   C243    1.415   .     A
C220   C651    1.510   .     S
C221   C223    1.401   .     S
C221   O284    1.277   .     A
C221   O282    1.275   .     A
C222   O285    1.278   .     A
C222   O283    1.275   .     A
C222   C224    1.402   .     S
C223   C368    1.330   1_455 S
C223   H393    1.088   1_455 S
C224   C295    1.330   .     S
C224   H332    1.088   .     S
C225   C236    1.399   .     A
C225   C227    1.380   .     A
C225   H268    1.083   .     S
C226   C229    1.380   .     A
C226   C237    1.399   .     A
C226   H269    1.083   .     S
C227   H270    1.084   .     S
C227   C230    1.399   .     A
C228   O281    1.285   .     A
C228   C231    1.438   .     S
C228   O279    1.286   .     A
C229   C231    1.399   .     A
C229   H271    1.084   .     S
C230   C232    1.399   .     A
C231   C233    1.399   .     A
C232   H272    1.084   .     S
C232   C234    1.380   .     A
C233   C235    1.380   .     A
C233   H273    1.084   .     S
C234   H274    1.083   .     S
C234   C236    1.399   .     A
C235   C237    1.399   .     A
C235   H250    1.083   .     S
C237   C20     1.444   1_565 S
C238   H258    1.114   .     S
C238   O286    1.411   .     S
C238   C816    1.521   1_454 S
C238   H689    1.114   1_554 S
C239   O286    1.382   .     S
C239   C244    1.412   .     A
C240   H261    1.110   .     S
C240   H259    1.111   .     S
C240   C742    1.521   .     S
C240   H334    1.111   .     S
C241   H263    1.115   .     S
C241   O278    1.411   .     S
C241   H264    1.114   .     S
C241   C674    1.520   .     S
C242   H267    1.111   .     S
C242   C673    1.520   1_554 S
C242   H697    1.111   1_554 S
C242   H698    1.110   1_554 S
C243   O278    1.381   .     S
C243   C245    1.413   .     A
C244   N275    1.364   .     A
C244   H251    1.081   .     S
C245   N276    1.363   .     A
C245   H252    1.082   .     S
C246   N275    1.363   .     A
C246   C248    1.405   .     A
C246   H253    1.081   .     S
C247   N276    1.363   .     A
C247   H254    1.081   .     S
C248   H255    1.082   .     S
H249   C295    1.088   .     S
H257   C670    1.114   .     S
H260   C368    1.088   1_455 S
H262   C384    1.111   1_455 S
H265   C674    1.111   .     S
H266   C674    1.110   .     S
N275   Zn288   2.003   .     S
N276   Zn287   2.003   .     S
O277   Zn287   2.002   .     S
O279   Zn288   2.002   .     S
O280   Zn288   2.001   .     S
O281   Zn287   2.001   .     S
O282   Zn287   1.968   .     S
O283   Zn288   1.968   .     S
O284   Zn288   1.980   .     S
O285   Zn287   1.980   .     S
C289   O352    1.285   .     A
C289   C302    1.437   .     S
C289   O349    1.285   .     A
C290   C292    1.408   .     A
C290   H328    1.082   .     S
C290   C319    1.406   .     A
C291   C311    1.416   .     A
C291   C320    1.408   .     A
C291   C724    1.510   1_554 S
C292   C315    1.415   .     A
C292   C723    1.510   .     S
C293   C295    1.401   .     S
C293   O356    1.277   .     A
C293   O354    1.275   .     A
C294   O357    1.278   .     A
C294   O355    1.275   .     A
C294   C296    1.402   .     S
C296   C367    1.330   .     S
C296   H404    1.088   .     S
C297   C308    1.399   .     A
C297   C299    1.380   .     A
C297   H340    1.083   .     S
C298   C301    1.380   .     A
C298   C309    1.399   .     A
C298   H341    1.083   .     S
C299   H342    1.084   .     S
C299   C302    1.399   .     A
C300   O353    1.285   .     A
C300   C303    1.438   .     S
C300   O351    1.286   .     A
C301   C303    1.399   .     A
C301   H343    1.084   .     S
C302   C304    1.399   .     A
C303   C305    1.399   .     A
C304   H344    1.084   .     S
C304   C306    1.380   .     A
C305   C307    1.380   .     A
C305   H345    1.084   .     S
C306   H346    1.083   .     S
C306   C308    1.399   .     A
C307   C309    1.399   .     A
C307   H322    1.083   .     S
C309   C92     1.444   1_565 S
C310   H330    1.114   .     S
C310   O358    1.411   .     S
C310   C672    1.521   1_554 S
C310   H761    1.114   1_554 S
C311   O358    1.382   .     S
C311   C316    1.412   .     A
C312   H333    1.110   .     S
C312   H331    1.111   .     S
C312   C814    1.521   .     S
C312   H406    1.111   .     S
C313   H335    1.115   .     S
C313   O350    1.411   .     S
C313   H336    1.114   .     S
C313   C746    1.520   .     S
C314   H339    1.111   .     S
C314   C745    1.520   1_554 S
C314   H769    1.111   1_554 S
C314   H770    1.110   1_554 S
C315   O350    1.381   .     S
C315   C317    1.413   .     A
C316   N347    1.364   .     A
C316   H323    1.081   .     S
C317   N348    1.363   .     A
C317   H324    1.082   .     S
C318   N347    1.363   .     A
C318   C320    1.405   .     A
C318   H325    1.081   .     S
C319   N348    1.363   .     A
C319   H326    1.081   .     S
C320   H327    1.082   .     S
H321   C367    1.088   .     S
H329   C742    1.114   .     S
H337   C746    1.111   .     S
H338   C746    1.110   .     S
N347   Zn360   2.003   .     S
N348   Zn359   2.003   .     S
O349   Zn359   2.002   .     S
O351   Zn360   2.002   .     S
O352   Zn360   2.001   .     S
O353   Zn359   2.001   .     S
O354   Zn359   1.968   .     S
O355   Zn360   1.968   .     S
O356   Zn360   1.980   .     S
O357   Zn359   1.980   .     S
C361   O424    1.285   .     A
C361   C374    1.437   .     S
C361   O421    1.285   .     A
C362   C364    1.408   .     A
C362   H400    1.082   .     S
C362   C391    1.406   .     A
C363   C383    1.416   .     A
C363   C392    1.408   .     A
C363   C796    1.510   1_554 S
C364   C387    1.415   .     A
C364   C795    1.510   .     S
C365   C367    1.401   .     S
C365   O428    1.277   .     A
C365   O426    1.275   .     A
C366   O429    1.278   .     A
C366   O427    1.275   .     A
C366   C368    1.402   .     S
C368   C223    1.330   1_655 S
C368   H260    1.088   1_655 S
C369   C380    1.399   .     A
C369   C371    1.380   .     A
C369   H412    1.083   .     S
C370   C373    1.380   .     A
C370   C381    1.399   .     A
C370   H413    1.083   .     S
C371   H414    1.084   .     S
C371   C374    1.399   .     A
C372   O425    1.285   .     A
C372   C375    1.438   .     S
C372   O423    1.286   .     A
C373   C375    1.399   .     A
C373   H415    1.084   .     S
C374   C376    1.399   .     A
C375   C377    1.399   .     A
C376   H416    1.084   .     S
C376   C378    1.380   .     A
C377   C379    1.380   .     A
C377   H417    1.084   .     S
C378   H418    1.083   .     S
C378   C380    1.399   .     A
C379   C381    1.399   .     A
C379   H394    1.083   .     S
C381   C164    1.444   1_565 S
C382   H402    1.114   .     S
C382   O430    1.411   .     S
C382   C744    1.521   1_554 S
C382   H833    1.114   1_554 S
C383   O430    1.382   .     S
C383   C388    1.412   .     A
C384   H405    1.110   .     S
C384   H403    1.111   .     S
C384   C670    1.521   1_655 S
C384   H262    1.111   1_655 S
C385   H407    1.115   .     S
C385   O422    1.411   .     S
C385   H408    1.114   .     S
C385   C818    1.520   .     S
C386   H411    1.111   .     S
C386   C817    1.520   1_554 S
C386   H841    1.111   1_554 S
C386   H842    1.110   1_554 S
C387   O422    1.381   .     S
C387   C389    1.413   .     A
C388   N419    1.364   .     A
C388   H395    1.081   .     S
C389   N420    1.363   .     A
C389   H396    1.082   .     S
C390   N419    1.363   .     A
C390   C392    1.405   .     A
C390   H397    1.081   .     S
C391   N420    1.363   .     A
C391   H398    1.081   .     S
C392   H399    1.082   .     S
H393   C223    1.088   1_655 S
H401   C814    1.114   .     S
H409   C818    1.111   .     S
H410   C818    1.110   .     S
N419   Zn432   2.003   .     S
N420   Zn431   2.003   .     S
O421   Zn431   2.002   .     S
O423   Zn432   2.002   .     S
O424   Zn432   2.001   .     S
O425   Zn431   2.001   .     S
O426   Zn431   1.968   .     S
O427   Zn432   1.968   .     S
O428   Zn432   1.980   .     S
O429   Zn431   1.980   .     S
C433   O496    1.285   .     A
C433   C446    1.437   .     S
C433   O493    1.285   .     A
C434   C436    1.408   .     A
C434   H472    1.082   .     S
C434   C463    1.406   .     A
C435   C455    1.416   .     A
C435   C464    1.408   .     A
C436   C459    1.415   .     A
C436   C3      1.510   1_556 S
C437   C439    1.401   .     S
C437   O500    1.277   .     A
C437   O498    1.275   .     A
C438   O501    1.278   .     A
C438   O499    1.275   .     A
C438   C440    1.402   .     S
C439   C584    1.330   1_455 S
C439   H609    1.088   1_455 S
C440   C511    1.330   .     S
C440   H548    1.088   .     S
C441   C452    1.399   .     A
C441   C443    1.380   .     A
C441   H484    1.083   .     S
C442   C445    1.380   .     A
C442   C453    1.399   .     A
C442   H485    1.083   .     S
C443   H486    1.084   .     S
C443   C446    1.399   .     A
C444   O497    1.285   .     A
C444   C447    1.438   .     S
C444   O495    1.286   .     A
C445   C447    1.399   .     A
C445   H487    1.084   .     S
C446   C448    1.399   .     A
C447   C449    1.399   .     A
C448   H488    1.084   .     S
C448   C450    1.380   .     A
C449   C451    1.380   .     A
C449   H489    1.084   .     S
C450   H490    1.083   .     S
C450   C452    1.399   .     A
C451   C453    1.399   .     A
C451   H466    1.083   .     S
C452   C669    1.444   1_545 S
C453   C668    1.444   .     S
C454   H474    1.114   .     S
C454   O502    1.411   .     S
C454   C168    1.521   1_455 S
C455   O502    1.382   .     S
C455   C460    1.412   .     A
C456   H477    1.110   .     S
C456   H475    1.111   .     S
C456   C94     1.521   1_556 S
C456   H550    1.111   .     S
C457   H479    1.115   .     S
C457   O494    1.411   .     S
C457   H480    1.114   .     S
C457   C26     1.520   1_556 S
C458   H483    1.111   .     S
C459   O494    1.381   .     S
C459   C461    1.413   .     A
C460   N491    1.364   .     A
C460   H467    1.081   .     S
C461   N492    1.363   .     A
C461   H468    1.082   .     S
C462   N491    1.363   .     A
C462   C464    1.405   .     A
C462   H469    1.081   .     S
C463   N492    1.363   .     A
C463   H470    1.081   .     S
C464   H471    1.082   .     S
H465   C511    1.088   .     S
H473   C22     1.114   1_556 S
H476   C584    1.088   1_455 S
H478   C600    1.111   1_455 S
H481   C26     1.111   1_556 S
H482   C26     1.110   1_556 S
N491   Zn504   2.003   .     S
N492   Zn503   2.003   .     S
O493   Zn503   2.002   .     S
O495   Zn504   2.002   .     S
O496   Zn504   2.001   .     S
O497   Zn503   2.001   .     S
O498   Zn503   1.968   .     S
O499   Zn504   1.968   .     S
O500   Zn504   1.980   .     S
O501   Zn503   1.980   .     S
C505   O568    1.285   .     A
C505   C518    1.437   .     S
C505   O565    1.285   .     A
C506   C508    1.408   .     A
C506   H544    1.082   .     S
C506   C535    1.406   .     A
C507   C527    1.416   .     A
C507   C536    1.408   .     A
C508   C531    1.415   .     A
C508   C75     1.510   1_556 S
C509   C511    1.401   .     S
C509   O572    1.277   .     A
C509   O570    1.275   .     A
C510   O573    1.278   .     A
C510   O571    1.275   .     A
C510   C512    1.402   .     S
C512   C583    1.330   .     S
C512   H620    1.088   .     S
C513   C524    1.399   .     A
C513   C515    1.380   .     A
C513   H556    1.083   .     S
C514   C517    1.380   .     A
C514   C525    1.399   .     A
C514   H557    1.083   .     S
C515   H558    1.084   .     S
C515   C518    1.399   .     A
C516   O569    1.285   .     A
C516   C519    1.438   .     S
C516   O567    1.286   .     A
C517   C519    1.399   .     A
C517   H559    1.084   .     S
C518   C520    1.399   .     A
C519   C521    1.399   .     A
C520   H560    1.084   .     S
C520   C522    1.380   .     A
C521   C523    1.380   .     A
C521   H561    1.084   .     S
C522   H562    1.083   .     S
C522   C524    1.399   .     A
C523   C525    1.399   .     A
C523   H538    1.083   .     S
C524   C741    1.444   1_545 S
C525   C740    1.444   .     S
C526   H546    1.114   .     S
C526   O574    1.411   .     S
C527   O574    1.382   .     S
C527   C532    1.412   .     A
C528   H549    1.110   .     S
C528   H547    1.111   .     S
C528   C166    1.521   1_556 S
C528   H622    1.111   .     S
C529   H551    1.115   .     S
C529   O566    1.411   .     S
C529   H552    1.114   .     S
C529   C98     1.520   1_556 S
C530   H555    1.111   .     S
C531   O566    1.381   .     S
C531   C533    1.413   .     A
C532   N563    1.364   .     A
C532   H539    1.081   .     S
C533   N564    1.363   .     A
C533   H540    1.082   .     S
C534   N563    1.363   .     A
C534   C536    1.405   .     A
C534   H541    1.081   .     S
C535   N564    1.363   .     A
C535   H542    1.081   .     S
C536   H543    1.082   .     S
H537   C583    1.088   .     S
H545   C94     1.114   1_556 S
H553   C98     1.111   1_556 S
H554   C98     1.110   1_556 S
N563   Zn576   2.003   .     S
N564   Zn575   2.003   .     S
O565   Zn575   2.002   .     S
O567   Zn576   2.002   .     S
O568   Zn576   2.001   .     S
O569   Zn575   2.001   .     S
O570   Zn575   1.968   .     S
O571   Zn576   1.968   .     S
O572   Zn576   1.980   .     S
O573   Zn575   1.980   .     S
C577   O640    1.285   .     A
C577   C590    1.437   .     S
C577   O637    1.285   .     A
C578   C580    1.408   .     A
C578   H616    1.082   .     S
C578   C607    1.406   .     A
C579   C599    1.416   .     A
C579   C608    1.408   .     A
C580   C603    1.415   .     A
C580   C147    1.510   1_556 S
C581   C583    1.401   .     S
C581   O644    1.277   .     A
C581   O642    1.275   .     A
C582   O645    1.278   .     A
C582   O643    1.275   .     A
C582   C584    1.402   .     S
C584   C439    1.330   1_655 S
C584   H476    1.088   1_655 S
C585   C596    1.399   .     A
C585   C587    1.380   .     A
C585   H628    1.083   .     S
C586   C589    1.380   .     A
C586   C597    1.399   .     A
C586   H629    1.083   .     S
C587   H630    1.084   .     S
C587   C590    1.399   .     A
C588   O641    1.285   .     A
C588   C591    1.438   .     S
C588   O639    1.286   .     A
C589   C591    1.399   .     A
C589   H631    1.084   .     S
C590   C592    1.399   .     A
C591   C593    1.399   .     A
C592   H632    1.084   .     S
C592   C594    1.380   .     A
C593   C595    1.380   .     A
C593   H633    1.084   .     S
C594   H634    1.083   .     S
C594   C596    1.399   .     A
C595   C597    1.399   .     A
C595   H610    1.083   .     S
C596   C813    1.444   1_545 S
C597   C812    1.444   .     S
C598   H618    1.114   .     S
C598   O646    1.411   .     S
C599   O646    1.382   .     S
C599   C604    1.412   .     A
C600   H621    1.110   .     S
C600   H619    1.111   .     S
C600   C22     1.521   1_656 S
C600   H478    1.111   1_655 S
C601   H623    1.115   .     S
C601   O638    1.411   .     S
C601   H624    1.114   .     S
C601   C170    1.520   1_556 S
C602   H627    1.111   .     S
C603   O638    1.381   .     S
C603   C605    1.413   .     A
C604   N635    1.364   .     A
C604   H611    1.081   .     S
C605   N636    1.363   .     A
C605   H612    1.082   .     S
C606   N635    1.363   .     A
C606   C608    1.405   .     A
C606   H613    1.081   .     S
C607   N636    1.363   .     A
C607   H614    1.081   .     S
C608   H615    1.082   .     S
H609   C439    1.088   1_655 S
H617   C166    1.114   1_556 S
H625   C170    1.111   1_556 S
H626   C170    1.110   1_556 S
N635   Zn648   2.003   .     S
N636   Zn647   2.003   .     S
O637   Zn647   2.002   .     S
O639   Zn648   2.002   .     S
O640   Zn648   2.001   .     S
O641   Zn647   2.001   .     S
O642   Zn647   1.968   .     S
O643   Zn648   1.968   .     S
O644   Zn648   1.980   .     S
O645   Zn647   1.980   .     S
C649   O712    1.285   .     A
C649   C662    1.437   .     S
C649   O709    1.285   .     A
C650   C652    1.408   .     A
C650   H688    1.082   .     S
C650   C679    1.406   .     A
C651   C671    1.416   .     A
C651   C680    1.408   .     A
C652   C675    1.415   .     A
C652   C219    1.510   1_556 S
C653   C655    1.401   .     S
C653   O716    1.277   .     A
C653   O714    1.275   .     A
C654   O717    1.278   .     A
C654   O715    1.275   .     A
C654   C656    1.402   .     S
C655   C800    1.330   1_455 S
C655   H825    1.088   1_455 S
C656   C727    1.330   .     S
C656   H764    1.088   .     S
C657   C668    1.399   .     A
C657   C659    1.380   .     A
C657   H700    1.083   .     S
C658   C661    1.380   .     A
C658   C669    1.399   .     A
C658   H701    1.083   .     S
C659   H702    1.084   .     S
C659   C662    1.399   .     A
C660   O713    1.285   .     A
C660   C663    1.438   .     S
C660   O711    1.286   .     A
C661   C663    1.399   .     A
C661   H703    1.084   .     S
C662   C664    1.399   .     A
C663   C665    1.399   .     A
C664   H704    1.084   .     S
C664   C666    1.380   .     A
C665   C667    1.380   .     A
C665   H705    1.084   .     S
C666   H706    1.083   .     S
C666   C668    1.399   .     A
C667   C669    1.399   .     A
C667   H682    1.083   .     S
C669   C452    1.444   1_565 S
C670   H690    1.114   .     S
C670   O718    1.411   .     S
C670   C384    1.521   1_455 S
C671   O718    1.382   .     S
C671   C676    1.412   .     A
C672   H693    1.110   .     S
C672   H691    1.111   .     S
C672   C310    1.521   1_556 S
C672   H766    1.111   .     S
C673   H695    1.115   .     S
C673   O710    1.411   .     S
C673   H696    1.114   .     S
C673   C242    1.520   1_556 S
C674   H699    1.111   .     S
C675   O710    1.381   .     S
C675   C677    1.413   .     A
C676   N707    1.364   .     A
C676   H683    1.081   .     S
C677   N708    1.363   .     A
C677   H684    1.082   .     S
C678   N707    1.363   .     A
C678   C680    1.405   .     A
C678   H685    1.081   .     S
C679   N708    1.363   .     A
C679   H686    1.081   .     S
C680   H687    1.082   .     S
H681   C727    1.088   .     S
H689   C238    1.114   1_556 S
H692   C800    1.088   1_455 S
H694   C816    1.111   1_455 S
H697   C242    1.111   1_556 S
H698   C242    1.110   1_556 S
N707   Zn720   2.003   .     S
N708   Zn719   2.003   .     S
O709   Zn719   2.002   .     S
O711   Zn720   2.002   .     S
O712   Zn720   2.001   .     S
O713   Zn719   2.001   .     S
O714   Zn719   1.968   .     S
O715   Zn720   1.968   .     S
O716   Zn720   1.980   .     S
O717   Zn719   1.980   .     S
C721   O784    1.285   .     A
C721   C734    1.437   .     S
C721   O781    1.285   .     A
C722   C724    1.408   .     A
C722   H760    1.082   .     S
C722   C751    1.406   .     A
C723   C743    1.416   .     A
C723   C752    1.408   .     A
C724   C747    1.415   .     A
C724   C291    1.510   1_556 S
C725   C727    1.401   .     S
C725   O788    1.277   .     A
C725   O786    1.275   .     A
C726   O789    1.278   .     A
C726   O787    1.275   .     A
C726   C728    1.402   .     S
C728   C799    1.330   .     S
C728   H836    1.088   .     S
C729   C740    1.399   .     A
C729   C731    1.380   .     A
C729   H772    1.083   .     S
C730   C733    1.380   .     A
C730   C741    1.399   .     A
C730   H773    1.083   .     S
C731   H774    1.084   .     S
C731   C734    1.399   .     A
C732   O785    1.285   .     A
C732   C735    1.438   .     S
C732   O783    1.286   .     A
C733   C735    1.399   .     A
C733   H775    1.084   .     S
C734   C736    1.399   .     A
C735   C737    1.399   .     A
C736   H776    1.084   .     S
C736   C738    1.380   .     A
C737   C739    1.380   .     A
C737   H777    1.084   .     S
C738   H778    1.083   .     S
C738   C740    1.399   .     A
C739   C741    1.399   .     A
C739   H754    1.083   .     S
C741   C524    1.444   1_565 S
C742   H762    1.114   .     S
C742   O790    1.411   .     S
C743   O790    1.382   .     S
C743   C748    1.412   .     A
C744   H765    1.110   .     S
C744   H763    1.111   .     S
C744   C382    1.521   1_556 S
C744   H838    1.111   .     S
C745   H767    1.115   .     S
C745   O782    1.411   .     S
C745   H768    1.114   .     S
C745   C314    1.520   1_556 S
C746   H771    1.111   .     S
C747   O782    1.381   .     S
C747   C749    1.413   .     A
C748   N779    1.364   .     A
C748   H755    1.081   .     S
C749   N780    1.363   .     A
C749   H756    1.082   .     S
C750   N779    1.363   .     A
C750   C752    1.405   .     A
C750   H757    1.081   .     S
C751   N780    1.363   .     A
C751   H758    1.081   .     S
C752   H759    1.082   .     S
H753   C799    1.088   .     S
H761   C310    1.114   1_556 S
H769   C314    1.111   1_556 S
H770   C314    1.110   1_556 S
N779   Zn792   2.003   .     S
N780   Zn791   2.003   .     S
O781   Zn791   2.002   .     S
O783   Zn792   2.002   .     S
O784   Zn792   2.001   .     S
O785   Zn791   2.001   .     S
O786   Zn791   1.968   .     S
O787   Zn792   1.968   .     S
O788   Zn792   1.980   .     S
O789   Zn791   1.980   .     S
C793   O856    1.285   .     A
C793   C806    1.437   .     S
C793   O853    1.285   .     A
C794   C796    1.408   .     A
C794   H832    1.082   .     S
C794   C823    1.406   .     A
C795   C815    1.416   .     A
C795   C824    1.408   .     A
C796   C819    1.415   .     A
C796   C363    1.510   1_556 S
C797   C799    1.401   .     S
C797   O860    1.277   .     A
C797   O858    1.275   .     A
C798   O861    1.278   .     A
C798   O859    1.275   .     A
C798   C800    1.402   .     S
C800   C655    1.330   1_655 S
C800   H692    1.088   1_655 S
C801   C812    1.399   .     A
C801   C803    1.380   .     A
C801   H844    1.083   .     S
C802   C805    1.380   .     A
C802   C813    1.399   .     A
C802   H845    1.083   .     S
C803   H846    1.084   .     S
C803   C806    1.399   .     A
C804   O857    1.285   .     A
C804   C807    1.438   .     S
C804   O855    1.286   .     A
C805   C807    1.399   .     A
C805   H847    1.084   .     S
C806   C808    1.399   .     A
C807   C809    1.399   .     A
C808   H848    1.084   .     S
C808   C810    1.380   .     A
C809   C811    1.380   .     A
C809   H849    1.084   .     S
C810   H850    1.083   .     S
C810   C812    1.399   .     A
C811   C813    1.399   .     A
C811   H826    1.083   .     S
C813   C596    1.444   1_565 S
C814   H834    1.114   .     S
C814   O862    1.411   .     S
C815   O862    1.382   .     S
C815   C820    1.412   .     A
C816   H837    1.110   .     S
C816   H835    1.111   .     S
C816   C238    1.521   1_656 S
C816   H694    1.111   1_655 S
C817   H839    1.115   .     S
C817   O854    1.411   .     S
C817   H840    1.114   .     S
C817   C386    1.520   1_556 S
C818   H843    1.111   .     S
C819   O854    1.381   .     S
C819   C821    1.413   .     A
C820   N851    1.364   .     A
C820   H827    1.081   .     S
C821   N852    1.363   .     A
C821   H828    1.082   .     S
C822   N851    1.363   .     A
C822   C824    1.405   .     A
C822   H829    1.081   .     S
C823   N852    1.363   .     A
C823   H830    1.081   .     S
C824   H831    1.082   .     S
H825   C655    1.088   1_655 S
H833   C382    1.114   1_556 S
H841   C386    1.111   1_556 S
H842   C386    1.110   1_556 S
N851   Zn864   2.003   .     S
N852   Zn863   2.003   .     S
O853   Zn863   2.002   .     S
O855   Zn864   2.002   .     S
O856   Zn864   2.001   .     S
O857   Zn863   2.001   .     S
O858   Zn863   1.968   .     S
O859   Zn864   1.968   .     S
O860   Zn864   1.980   .     S
O861   Zn863   1.980   .     S
