data_str_m2_o2_o5_pcu_sym.34
_audit_creation_date              2020-01-03
_audit_creation_method            'Materials Studio'
_symmetry_space_group_name_H-M    'P1'
_symmetry_Int_Tables_number       1
_symmetry_cell_setting            triclinic
loop_
_symmetry_equiv_pos_as_xyz
  x,y,z
_cell_length_a                    30.5088
_cell_length_b                    27.8505
_cell_length_c                    27.3285
_cell_angle_alpha                 89.9999
_cell_angle_beta                  92.1999
_cell_angle_gamma                 90.0001
loop_
_atom_site_label
_atom_site_type_symbol
_atom_site_fract_x
_atom_site_fract_y
_atom_site_fract_z
_atom_site_U_iso_or_equiv
_atom_site_adp_type
_atom_site_occupancy
C1     C     0.16501   0.24993   0.16983   0.00000  Uiso   1.00
C2     C     0.28761   0.44540   0.18193   0.00000  Uiso   1.00
C3     C     0.24992   0.25001   0.07353   0.00000  Uiso   1.00
C4     C     0.25008   0.25001   0.25980   0.00000  Uiso   1.00
C5     C     0.25000   0.02750   0.16667   0.00000  Uiso   1.00
C6     C     0.25000   0.47254   0.16667   0.00000  Uiso   1.00
C7     C     0.24999   0.25006   0.02183   0.00000  Uiso   1.00
C8     C     0.25001   0.25006   0.31151   0.00000  Uiso   1.00
C9     C     0.04555   0.28428   0.15299   0.00000  Uiso   1.00
C10    C     0.45123   0.20322   0.14954   0.00000  Uiso   1.00
C11    C     0.45445   0.28428   0.18034   0.00000  Uiso   1.00
C12    C     0.33498   0.24993   0.16350   0.00000  Uiso   1.00
C13    C     0.04877   0.20322   0.18379   0.00000  Uiso   1.00
C14    C     0.09051   0.28950   0.16044   0.00000  Uiso   1.00
C15    C     0.40530   0.20596   0.14516   0.00000  Uiso   1.00
C16    C     0.40949   0.28950   0.17289   0.00000  Uiso   1.00
C17    C     0.09470   0.20596   0.18817   0.00000  Uiso   1.00
C18    C     0.11650   0.24903   0.17427   0.00000  Uiso   1.00
C19    C     0.38350   0.24903   0.15906   0.00000  Uiso   1.00
C20    C     0.02415   0.24232   0.16647   0.00000  Uiso   1.00
C21    C     0.47585   0.24232   0.16686   0.00000  Uiso   1.00
C22    C     0.29245   0.12766   0.28186   0.00000  Uiso   1.00
C23    C     0.27376   0.10509   0.20222   0.00000  Uiso   1.00
C24    C     0.19088   0.38415   0.06513   0.00000  Uiso   1.00
C25    C     0.20755   0.12766   0.05148   0.00000  Uiso   1.00
C26    C     0.30912   0.38414   0.26821   0.00000  Uiso   1.00
C27    C     0.10681   0.33935   0.15874   0.00000  Uiso   1.00
C28    C     0.38193   0.16472   0.12162   0.00000  Uiso   1.00
C29    C     0.39319   0.33935   0.17460   0.00000  Uiso   1.00
C30    C     0.11807   0.16472   0.21171   0.00000  Uiso   1.00
C31    C     0.26394   0.01312   0.27584   0.00000  Uiso   1.00
C32    C     0.15354   0.47803   0.18753   0.00000  Uiso   1.00
C33    C     0.23605   0.01312   0.05750   0.00000  Uiso   1.00
C34    C     0.21685   0.39545   0.14326   0.00000  Uiso   1.00
C35    C     0.34646   0.47803   0.14580   0.00000  Uiso   1.00
C36    C     0.22624   0.10509   0.13111   0.00000  Uiso   1.00
C37    C     0.28315   0.39545   0.19007   0.00000  Uiso   1.00
C38    C     0.27178   0.05415   0.20475   0.00000  Uiso   1.00
C39    C     0.21239   0.44540   0.15141   0.00000  Uiso   1.00
C40    C     0.22822   0.05415   0.12859   0.00000  Uiso   1.00
Cu41   Cu    0.25000   0.29821   0.16667   0.00000  Uiso   1.00
Cu42   Cu    0.25000   0.20178   0.16667   0.00000  Uiso   1.00
H43    H     0.02657   0.31475   0.13947   0.00000  Uiso   1.00
H44    H     0.17821   0.42103   0.05825   0.00000  Uiso   1.00
H45    H     0.19566   0.16065   0.03251   0.00000  Uiso   1.00
H46    H     0.18990   0.09740   0.03322   0.00000  Uiso   1.00
H47    H     0.24353   0.12537   0.04621   0.00000  Uiso   1.00
H48    H     0.32910   0.35930   0.29164   0.00000  Uiso   1.00
H49    H     0.27452   0.38117   0.27957   0.00000  Uiso   1.00
H50    H     0.32178   0.42103   0.27508   0.00000  Uiso   1.00
H51    H     0.10338   0.40366   0.12469   0.00000  Uiso   1.00
H52    H     0.33527   0.14191   0.07261   0.00000  Uiso   1.00
H53    H     0.39662   0.40366   0.20865   0.00000  Uiso   1.00
H54    H     0.46796   0.17133   0.13724   0.00000  Uiso   1.00
H55    H     0.16473   0.14191   0.26072   0.00000  Uiso   1.00
H56    H     0.24424   0.48296   0.26028   0.00000  Uiso   1.00
H57    H     0.24151   0.04165   0.28844   0.00000  Uiso   1.00
H58    H     0.28289   0.49867   0.30794   0.00000  Uiso   1.00
H59    H     0.17091   0.00883   0.20536   0.00000  Uiso   1.00
H60    H     0.15350   0.44674   0.21290   0.00000  Uiso   1.00
H61    H     0.11892   0.48900   0.18048   0.00000  Uiso   1.00
H62    H     0.25575   0.48296   0.07305   0.00000  Uiso   1.00
H63    H     0.25849   0.04165   0.04489   0.00000  Uiso   1.00
H64    H     0.21711   0.49867   0.02540   0.00000  Uiso   1.00
H65    H     0.47343   0.31475   0.19387   0.00000  Uiso   1.00
H66    H     0.32909   0.00882   0.12797   0.00000  Uiso   1.00
H67    H     0.34651   0.44674   0.12044   0.00000  Uiso   1.00
H68    H     0.38107   0.48901   0.15286   0.00000  Uiso   1.00
H69    H     0.03204   0.17133   0.19610   0.00000  Uiso   1.00
H70    H     0.30434   0.16065   0.30082   0.00000  Uiso   1.00
H71    H     0.31010   0.09740   0.30011   0.00000  Uiso   1.00
H72    H     0.25647   0.12537   0.28712   0.00000  Uiso   1.00
H73    H     0.17090   0.35929   0.04169   0.00000  Uiso   1.00
H74    H     0.22548   0.38118   0.05376   0.00000  Uiso   1.00
N75    N     0.25000   0.12934   0.16667   0.00000  Uiso   1.00
N76    N     0.25000   0.37065   0.16667   0.00000  Uiso   1.00
O77    O     0.18573   0.29071   0.16667   0.00000  Uiso   1.00
O78    O     0.18638   0.37080   0.11448   0.00000  Uiso   1.00
O79    O     0.19685   0.13082   0.10124   0.00000  Uiso   1.00
O80    O     0.31362   0.37080   0.21885   0.00000  Uiso   1.00
O81    O     0.12903   0.35546   0.19312   0.00000  Uiso   1.00
O82    O     0.09275   0.36942   0.12025   0.00000  Uiso   1.00
O83    O     0.39283   0.12363   0.13220   0.00000  Uiso   1.00
O84    O     0.34864   0.17281   0.08594   0.00000  Uiso   1.00
O85    O     0.37097   0.35546   0.14022   0.00000  Uiso   1.00
O86    O     0.40725   0.36942   0.21309   0.00000  Uiso   1.00
O87    O     0.10717   0.12363   0.20113   0.00000  Uiso   1.00
O88    O     0.31427   0.20928   0.16666   0.00000  Uiso   1.00
O89    O     0.15136   0.17281   0.24739   0.00000  Uiso   1.00
O90    O     0.29423   0.03120   0.24282   0.00000  Uiso   1.00
O91    O     0.17179   0.46634   0.14239   0.00000  Uiso   1.00
O92    O     0.20577   0.03120   0.09052   0.00000  Uiso   1.00
O93    O     0.32821   0.46634   0.19094   0.00000  Uiso   1.00
O94    O     0.31427   0.29071   0.16666   0.00000  Uiso   1.00
O95    O     0.18573   0.20928   0.16667   0.00000  Uiso   1.00
O96    O     0.25000   0.29071   0.09613   0.00000  Uiso   1.00
O97    O     0.25000   0.20929   0.23720   0.00000  Uiso   1.00
O98    O     0.25000   0.29071   0.23720   0.00000  Uiso   1.00
O99    O     0.25000   0.20929   0.09613   0.00000  Uiso   1.00
O100   O     0.30315   0.13082   0.23209   0.00000  Uiso   1.00
C101   C     0.66501   0.24993   0.16983   0.00000  Uiso   1.00
C102   C     0.78761   0.44540   0.18193   0.00000  Uiso   1.00
C103   C     0.74992   0.25001   0.07353   0.00000  Uiso   1.00
C104   C     0.75008   0.25001   0.25980   0.00000  Uiso   1.00
C105   C     0.75000   0.02750   0.16667   0.00000  Uiso   1.00
C106   C     0.75000   0.47254   0.16667   0.00000  Uiso   1.00
C107   C     0.74999   0.25006   0.02183   0.00000  Uiso   1.00
C108   C     0.75001   0.25006   0.31151   0.00000  Uiso   1.00
C109   C     0.54555   0.28428   0.15299   0.00000  Uiso   1.00
C110   C     0.95123   0.20322   0.14954   0.00000  Uiso   1.00
C111   C     0.95445   0.28428   0.18034   0.00000  Uiso   1.00
C112   C     0.83498   0.24993   0.16350   0.00000  Uiso   1.00
C113   C     0.54877   0.20322   0.18379   0.00000  Uiso   1.00
C114   C     0.59051   0.28950   0.16044   0.00000  Uiso   1.00
C115   C     0.90530   0.20596   0.14516   0.00000  Uiso   1.00
C116   C     0.90949   0.28950   0.17289   0.00000  Uiso   1.00
C117   C     0.59470   0.20596   0.18817   0.00000  Uiso   1.00
C118   C     0.61650   0.24903   0.17427   0.00000  Uiso   1.00
C119   C     0.88350   0.24903   0.15906   0.00000  Uiso   1.00
C120   C     0.52415   0.24232   0.16647   0.00000  Uiso   1.00
C121   C     0.97585   0.24232   0.16686   0.00000  Uiso   1.00
C122   C     0.79245   0.12766   0.28186   0.00000  Uiso   1.00
C123   C     0.77376   0.10509   0.20222   0.00000  Uiso   1.00
C124   C     0.69088   0.38415   0.06513   0.00000  Uiso   1.00
C125   C     0.70755   0.12766   0.05148   0.00000  Uiso   1.00
C126   C     0.80912   0.38414   0.26821   0.00000  Uiso   1.00
C127   C     0.60681   0.33935   0.15874   0.00000  Uiso   1.00
C128   C     0.88193   0.16472   0.12162   0.00000  Uiso   1.00
C129   C     0.89319   0.33935   0.17460   0.00000  Uiso   1.00
C130   C     0.61807   0.16472   0.21171   0.00000  Uiso   1.00
C131   C     0.76394   0.01312   0.27584   0.00000  Uiso   1.00
C132   C     0.65354   0.47803   0.18753   0.00000  Uiso   1.00
C133   C     0.73605   0.01312   0.05750   0.00000  Uiso   1.00
C134   C     0.71685   0.39545   0.14326   0.00000  Uiso   1.00
C135   C     0.84646   0.47803   0.14580   0.00000  Uiso   1.00
C136   C     0.72624   0.10509   0.13111   0.00000  Uiso   1.00
C137   C     0.78315   0.39545   0.19007   0.00000  Uiso   1.00
C138   C     0.77178   0.05415   0.20475   0.00000  Uiso   1.00
C139   C     0.71239   0.44540   0.15141   0.00000  Uiso   1.00
C140   C     0.72822   0.05415   0.12859   0.00000  Uiso   1.00
Cu141  Cu    0.75000   0.29821   0.16667   0.00000  Uiso   1.00
Cu142  Cu    0.75000   0.20178   0.16667   0.00000  Uiso   1.00
H143   H     0.52657   0.31475   0.13947   0.00000  Uiso   1.00
H144   H     0.67821   0.42103   0.05825   0.00000  Uiso   1.00
H145   H     0.69566   0.16065   0.03251   0.00000  Uiso   1.00
H146   H     0.68990   0.09740   0.03322   0.00000  Uiso   1.00
H147   H     0.74353   0.12537   0.04621   0.00000  Uiso   1.00
H148   H     0.82910   0.35930   0.29164   0.00000  Uiso   1.00
H149   H     0.77452   0.38117   0.27957   0.00000  Uiso   1.00
H150   H     0.82178   0.42103   0.27508   0.00000  Uiso   1.00
H151   H     0.60338   0.40366   0.12469   0.00000  Uiso   1.00
H152   H     0.83527   0.14191   0.07261   0.00000  Uiso   1.00
H153   H     0.89662   0.40366   0.20865   0.00000  Uiso   1.00
H154   H     0.96796   0.17133   0.13724   0.00000  Uiso   1.00
H155   H     0.66473   0.14191   0.26072   0.00000  Uiso   1.00
H156   H     0.74424   0.48296   0.26028   0.00000  Uiso   1.00
H157   H     0.74151   0.04165   0.28844   0.00000  Uiso   1.00
H158   H     0.78289   0.49867   0.30794   0.00000  Uiso   1.00
H159   H     0.67091   0.00883   0.20536   0.00000  Uiso   1.00
H160   H     0.65350   0.44674   0.21290   0.00000  Uiso   1.00
H161   H     0.61892   0.48900   0.18048   0.00000  Uiso   1.00
H162   H     0.75575   0.48296   0.07305   0.00000  Uiso   1.00
H163   H     0.75849   0.04165   0.04489   0.00000  Uiso   1.00
H164   H     0.71711   0.49867   0.02540   0.00000  Uiso   1.00
H165   H     0.97343   0.31475   0.19387   0.00000  Uiso   1.00
H166   H     0.82909   0.00882   0.12797   0.00000  Uiso   1.00
H167   H     0.84651   0.44674   0.12044   0.00000  Uiso   1.00
H168   H     0.88107   0.48901   0.15286   0.00000  Uiso   1.00
H169   H     0.53204   0.17133   0.19610   0.00000  Uiso   1.00
H170   H     0.80434   0.16065   0.30082   0.00000  Uiso   1.00
H171   H     0.81010   0.09740   0.30011   0.00000  Uiso   1.00
H172   H     0.75647   0.12537   0.28712   0.00000  Uiso   1.00
H173   H     0.67090   0.35929   0.04169   0.00000  Uiso   1.00
H174   H     0.72548   0.38118   0.05376   0.00000  Uiso   1.00
N175   N     0.75000   0.12934   0.16667   0.00000  Uiso   1.00
N176   N     0.75000   0.37065   0.16667   0.00000  Uiso   1.00
O177   O     0.68573   0.29071   0.16667   0.00000  Uiso   1.00
O178   O     0.68638   0.37080   0.11448   0.00000  Uiso   1.00
O179   O     0.69685   0.13082   0.10124   0.00000  Uiso   1.00
O180   O     0.81362   0.37080   0.21885   0.00000  Uiso   1.00
O181   O     0.62903   0.35546   0.19312   0.00000  Uiso   1.00
O182   O     0.59275   0.36942   0.12025   0.00000  Uiso   1.00
O183   O     0.89283   0.12363   0.13220   0.00000  Uiso   1.00
O184   O     0.84864   0.17281   0.08594   0.00000  Uiso   1.00
O185   O     0.87097   0.35546   0.14022   0.00000  Uiso   1.00
O186   O     0.90725   0.36942   0.21309   0.00000  Uiso   1.00
O187   O     0.60717   0.12363   0.20113   0.00000  Uiso   1.00
O188   O     0.81427   0.20928   0.16666   0.00000  Uiso   1.00
O189   O     0.65136   0.17281   0.24739   0.00000  Uiso   1.00
O190   O     0.79423   0.03120   0.24282   0.00000  Uiso   1.00
O191   O     0.67179   0.46634   0.14239   0.00000  Uiso   1.00
O192   O     0.70577   0.03120   0.09052   0.00000  Uiso   1.00
O193   O     0.82821   0.46634   0.19094   0.00000  Uiso   1.00
O194   O     0.81427   0.29071   0.16666   0.00000  Uiso   1.00
O195   O     0.68573   0.20928   0.16667   0.00000  Uiso   1.00
O196   O     0.75000   0.29071   0.09613   0.00000  Uiso   1.00
O197   O     0.75000   0.20929   0.23720   0.00000  Uiso   1.00
O198   O     0.75000   0.29071   0.23720   0.00000  Uiso   1.00
O199   O     0.75000   0.20929   0.09613   0.00000  Uiso   1.00
O200   O     0.80315   0.13082   0.23209   0.00000  Uiso   1.00
C201   C     0.16501   0.74993   0.16983   0.00000  Uiso   1.00
C202   C     0.28761   0.94540   0.18193   0.00000  Uiso   1.00
C203   C     0.24992   0.75001   0.07353   0.00000  Uiso   1.00
C204   C     0.25008   0.75001   0.25980   0.00000  Uiso   1.00
C205   C     0.25000   0.52750   0.16667   0.00000  Uiso   1.00
C206   C     0.25000   0.97254   0.16667   0.00000  Uiso   1.00
C207   C     0.24999   0.75006   0.02183   0.00000  Uiso   1.00
C208   C     0.25001   0.75006   0.31151   0.00000  Uiso   1.00
C209   C     0.04555   0.78428   0.15299   0.00000  Uiso   1.00
C210   C     0.45123   0.70322   0.14954   0.00000  Uiso   1.00
C211   C     0.45445   0.78428   0.18034   0.00000  Uiso   1.00
C212   C     0.33498   0.74993   0.16350   0.00000  Uiso   1.00
C213   C     0.04877   0.70322   0.18379   0.00000  Uiso   1.00
C214   C     0.09051   0.78950   0.16044   0.00000  Uiso   1.00
C215   C     0.40530   0.70596   0.14516   0.00000  Uiso   1.00
C216   C     0.40949   0.78950   0.17289   0.00000  Uiso   1.00
C217   C     0.09470   0.70596   0.18817   0.00000  Uiso   1.00
C218   C     0.11650   0.74903   0.17427   0.00000  Uiso   1.00
C219   C     0.38350   0.74903   0.15906   0.00000  Uiso   1.00
C220   C     0.02415   0.74232   0.16647   0.00000  Uiso   1.00
C221   C     0.47585   0.74232   0.16686   0.00000  Uiso   1.00
C222   C     0.29245   0.62766   0.28186   0.00000  Uiso   1.00
C223   C     0.27376   0.60509   0.20222   0.00000  Uiso   1.00
C224   C     0.19088   0.88415   0.06513   0.00000  Uiso   1.00
C225   C     0.20755   0.62766   0.05148   0.00000  Uiso   1.00
C226   C     0.30912   0.88414   0.26821   0.00000  Uiso   1.00
C227   C     0.10681   0.83935   0.15874   0.00000  Uiso   1.00
C228   C     0.38193   0.66472   0.12162   0.00000  Uiso   1.00
C229   C     0.39319   0.83935   0.17460   0.00000  Uiso   1.00
C230   C     0.11807   0.66472   0.21171   0.00000  Uiso   1.00
C231   C     0.26394   0.51312   0.27584   0.00000  Uiso   1.00
C232   C     0.15354   0.97803   0.18753   0.00000  Uiso   1.00
C233   C     0.23605   0.51312   0.05750   0.00000  Uiso   1.00
C234   C     0.21685   0.89545   0.14326   0.00000  Uiso   1.00
C235   C     0.34646   0.97803   0.14580   0.00000  Uiso   1.00
C236   C     0.22624   0.60509   0.13111   0.00000  Uiso   1.00
C237   C     0.28315   0.89545   0.19007   0.00000  Uiso   1.00
C238   C     0.27178   0.55415   0.20475   0.00000  Uiso   1.00
C239   C     0.21239   0.94540   0.15141   0.00000  Uiso   1.00
C240   C     0.22822   0.55415   0.12859   0.00000  Uiso   1.00
Cu241  Cu    0.25000   0.79821   0.16667   0.00000  Uiso   1.00
Cu242  Cu    0.25000   0.70178   0.16667   0.00000  Uiso   1.00
H243   H     0.02657   0.81475   0.13947   0.00000  Uiso   1.00
H244   H     0.17821   0.92103   0.05825   0.00000  Uiso   1.00
H245   H     0.19566   0.66065   0.03251   0.00000  Uiso   1.00
H246   H     0.18990   0.59740   0.03322   0.00000  Uiso   1.00
H247   H     0.24353   0.62537   0.04621   0.00000  Uiso   1.00
H248   H     0.32910   0.85930   0.29164   0.00000  Uiso   1.00
H249   H     0.27452   0.88117   0.27957   0.00000  Uiso   1.00
H250   H     0.32178   0.92103   0.27508   0.00000  Uiso   1.00
H251   H     0.10338   0.90366   0.12469   0.00000  Uiso   1.00
H252   H     0.33527   0.64191   0.07261   0.00000  Uiso   1.00
H253   H     0.39662   0.90366   0.20865   0.00000  Uiso   1.00
H254   H     0.46796   0.67133   0.13724   0.00000  Uiso   1.00
H255   H     0.16473   0.64191   0.26072   0.00000  Uiso   1.00
H256   H     0.24424   0.98296   0.26028   0.00000  Uiso   1.00
H257   H     0.24151   0.54165   0.28844   0.00000  Uiso   1.00
H258   H     0.28289   0.99867   0.30794   0.00000  Uiso   1.00
H259   H     0.17091   0.50883   0.20536   0.00000  Uiso   1.00
H260   H     0.15350   0.94674   0.21290   0.00000  Uiso   1.00
H261   H     0.11892   0.98900   0.18048   0.00000  Uiso   1.00
H262   H     0.25575   0.98296   0.07305   0.00000  Uiso   1.00
H263   H     0.25849   0.54165   0.04489   0.00000  Uiso   1.00
H264   H     0.21711   0.99867   0.02540   0.00000  Uiso   1.00
H265   H     0.47343   0.81475   0.19387   0.00000  Uiso   1.00
H266   H     0.32909   0.50882   0.12797   0.00000  Uiso   1.00
H267   H     0.34651   0.94674   0.12044   0.00000  Uiso   1.00
H268   H     0.38107   0.98901   0.15286   0.00000  Uiso   1.00
H269   H     0.03204   0.67133   0.19610   0.00000  Uiso   1.00
H270   H     0.30434   0.66065   0.30082   0.00000  Uiso   1.00
H271   H     0.31010   0.59740   0.30011   0.00000  Uiso   1.00
H272   H     0.25647   0.62537   0.28712   0.00000  Uiso   1.00
H273   H     0.17090   0.85929   0.04169   0.00000  Uiso   1.00
H274   H     0.22548   0.88118   0.05376   0.00000  Uiso   1.00
N275   N     0.25000   0.62934   0.16667   0.00000  Uiso   1.00
N276   N     0.25000   0.87065   0.16667   0.00000  Uiso   1.00
O277   O     0.18573   0.79071   0.16667   0.00000  Uiso   1.00
O278   O     0.18638   0.87080   0.11448   0.00000  Uiso   1.00
O279   O     0.19685   0.63082   0.10124   0.00000  Uiso   1.00
O280   O     0.31362   0.87080   0.21885   0.00000  Uiso   1.00
O281   O     0.12903   0.85546   0.19312   0.00000  Uiso   1.00
O282   O     0.09275   0.86942   0.12025   0.00000  Uiso   1.00
O283   O     0.39283   0.62363   0.13220   0.00000  Uiso   1.00
O284   O     0.34864   0.67281   0.08594   0.00000  Uiso   1.00
O285   O     0.37097   0.85546   0.14022   0.00000  Uiso   1.00
O286   O     0.40725   0.86942   0.21309   0.00000  Uiso   1.00
O287   O     0.10717   0.62363   0.20113   0.00000  Uiso   1.00
O288   O     0.31427   0.70928   0.16666   0.00000  Uiso   1.00
O289   O     0.15136   0.67281   0.24739   0.00000  Uiso   1.00
O290   O     0.29423   0.53120   0.24282   0.00000  Uiso   1.00
O291   O     0.17179   0.96634   0.14239   0.00000  Uiso   1.00
O292   O     0.20577   0.53120   0.09052   0.00000  Uiso   1.00
O293   O     0.32821   0.96634   0.19094   0.00000  Uiso   1.00
O294   O     0.31427   0.79071   0.16666   0.00000  Uiso   1.00
O295   O     0.18573   0.70928   0.16667   0.00000  Uiso   1.00
O296   O     0.25000   0.79071   0.09613   0.00000  Uiso   1.00
O297   O     0.25000   0.70929   0.23720   0.00000  Uiso   1.00
O298   O     0.25000   0.79071   0.23720   0.00000  Uiso   1.00
O299   O     0.25000   0.70929   0.09613   0.00000  Uiso   1.00
O300   O     0.30315   0.63082   0.23209   0.00000  Uiso   1.00
C301   C     0.66501   0.74993   0.16983   0.00000  Uiso   1.00
C302   C     0.78761   0.94540   0.18193   0.00000  Uiso   1.00
C303   C     0.74992   0.75001   0.07353   0.00000  Uiso   1.00
C304   C     0.75008   0.75001   0.25980   0.00000  Uiso   1.00
C305   C     0.75000   0.52750   0.16667   0.00000  Uiso   1.00
C306   C     0.75000   0.97254   0.16667   0.00000  Uiso   1.00
C307   C     0.74999   0.75006   0.02183   0.00000  Uiso   1.00
C308   C     0.75001   0.75006   0.31151   0.00000  Uiso   1.00
C309   C     0.54555   0.78428   0.15299   0.00000  Uiso   1.00
C310   C     0.95123   0.70322   0.14954   0.00000  Uiso   1.00
C311   C     0.95445   0.78428   0.18034   0.00000  Uiso   1.00
C312   C     0.83498   0.74993   0.16350   0.00000  Uiso   1.00
C313   C     0.54877   0.70322   0.18379   0.00000  Uiso   1.00
C314   C     0.59051   0.78950   0.16044   0.00000  Uiso   1.00
C315   C     0.90530   0.70596   0.14516   0.00000  Uiso   1.00
C316   C     0.90949   0.78950   0.17289   0.00000  Uiso   1.00
C317   C     0.59470   0.70596   0.18817   0.00000  Uiso   1.00
C318   C     0.61650   0.74903   0.17427   0.00000  Uiso   1.00
C319   C     0.88350   0.74903   0.15906   0.00000  Uiso   1.00
C320   C     0.52415   0.74232   0.16647   0.00000  Uiso   1.00
C321   C     0.97585   0.74232   0.16686   0.00000  Uiso   1.00
C322   C     0.79245   0.62766   0.28186   0.00000  Uiso   1.00
C323   C     0.77376   0.60509   0.20222   0.00000  Uiso   1.00
C324   C     0.69088   0.88415   0.06513   0.00000  Uiso   1.00
C325   C     0.70755   0.62766   0.05148   0.00000  Uiso   1.00
C326   C     0.80912   0.88414   0.26821   0.00000  Uiso   1.00
C327   C     0.60681   0.83935   0.15874   0.00000  Uiso   1.00
C328   C     0.88193   0.66472   0.12162   0.00000  Uiso   1.00
C329   C     0.89319   0.83935   0.17460   0.00000  Uiso   1.00
C330   C     0.61807   0.66472   0.21171   0.00000  Uiso   1.00
C331   C     0.76394   0.51312   0.27584   0.00000  Uiso   1.00
C332   C     0.65354   0.97803   0.18753   0.00000  Uiso   1.00
C333   C     0.73605   0.51312   0.05750   0.00000  Uiso   1.00
C334   C     0.71685   0.89545   0.14326   0.00000  Uiso   1.00
C335   C     0.84646   0.97803   0.14580   0.00000  Uiso   1.00
C336   C     0.72624   0.60509   0.13111   0.00000  Uiso   1.00
C337   C     0.78315   0.89545   0.19007   0.00000  Uiso   1.00
C338   C     0.77178   0.55415   0.20475   0.00000  Uiso   1.00
C339   C     0.71239   0.94540   0.15141   0.00000  Uiso   1.00
C340   C     0.72822   0.55415   0.12859   0.00000  Uiso   1.00
Cu341  Cu    0.75000   0.79821   0.16667   0.00000  Uiso   1.00
Cu342  Cu    0.75000   0.70178   0.16667   0.00000  Uiso   1.00
H343   H     0.52657   0.81475   0.13947   0.00000  Uiso   1.00
H344   H     0.67821   0.92103   0.05825   0.00000  Uiso   1.00
H345   H     0.69566   0.66065   0.03251   0.00000  Uiso   1.00
H346   H     0.68990   0.59740   0.03322   0.00000  Uiso   1.00
H347   H     0.74353   0.62537   0.04621   0.00000  Uiso   1.00
H348   H     0.82910   0.85930   0.29164   0.00000  Uiso   1.00
H349   H     0.77452   0.88117   0.27957   0.00000  Uiso   1.00
H350   H     0.82178   0.92103   0.27508   0.00000  Uiso   1.00
H351   H     0.60338   0.90366   0.12469   0.00000  Uiso   1.00
H352   H     0.83527   0.64191   0.07261   0.00000  Uiso   1.00
H353   H     0.89662   0.90366   0.20865   0.00000  Uiso   1.00
H354   H     0.96796   0.67133   0.13724   0.00000  Uiso   1.00
H355   H     0.66473   0.64191   0.26072   0.00000  Uiso   1.00
H356   H     0.74424   0.98296   0.26028   0.00000  Uiso   1.00
H357   H     0.74151   0.54165   0.28844   0.00000  Uiso   1.00
H358   H     0.78289   0.99867   0.30794   0.00000  Uiso   1.00
H359   H     0.67091   0.50883   0.20536   0.00000  Uiso   1.00
H360   H     0.65350   0.94674   0.21290   0.00000  Uiso   1.00
H361   H     0.61892   0.98900   0.18048   0.00000  Uiso   1.00
H362   H     0.75575   0.98296   0.07305   0.00000  Uiso   1.00
H363   H     0.75849   0.54165   0.04489   0.00000  Uiso   1.00
H364   H     0.71711   0.99867   0.02540   0.00000  Uiso   1.00
H365   H     0.97343   0.81475   0.19387   0.00000  Uiso   1.00
H366   H     0.82909   0.50882   0.12797   0.00000  Uiso   1.00
H367   H     0.84651   0.94674   0.12044   0.00000  Uiso   1.00
H368   H     0.88107   0.98901   0.15286   0.00000  Uiso   1.00
H369   H     0.53204   0.67133   0.19610   0.00000  Uiso   1.00
H370   H     0.80434   0.66065   0.30082   0.00000  Uiso   1.00
H371   H     0.81010   0.59740   0.30011   0.00000  Uiso   1.00
H372   H     0.75647   0.62537   0.28712   0.00000  Uiso   1.00
H373   H     0.67090   0.85929   0.04169   0.00000  Uiso   1.00
H374   H     0.72548   0.88118   0.05376   0.00000  Uiso   1.00
N375   N     0.75000   0.62934   0.16667   0.00000  Uiso   1.00
N376   N     0.75000   0.87065   0.16667   0.00000  Uiso   1.00
O377   O     0.68573   0.79071   0.16667   0.00000  Uiso   1.00
O378   O     0.68638   0.87080   0.11448   0.00000  Uiso   1.00
O379   O     0.69685   0.63082   0.10124   0.00000  Uiso   1.00
O380   O     0.81362   0.87080   0.21885   0.00000  Uiso   1.00
O381   O     0.62903   0.85546   0.19312   0.00000  Uiso   1.00
O382   O     0.59275   0.86942   0.12025   0.00000  Uiso   1.00
O383   O     0.89283   0.62363   0.13220   0.00000  Uiso   1.00
O384   O     0.84864   0.67281   0.08594   0.00000  Uiso   1.00
O385   O     0.87097   0.85546   0.14022   0.00000  Uiso   1.00
O386   O     0.90725   0.86942   0.21309   0.00000  Uiso   1.00
O387   O     0.60717   0.62363   0.20113   0.00000  Uiso   1.00
O388   O     0.81427   0.70928   0.16666   0.00000  Uiso   1.00
O389   O     0.65136   0.67281   0.24739   0.00000  Uiso   1.00
O390   O     0.79423   0.53120   0.24282   0.00000  Uiso   1.00
O391   O     0.67179   0.96634   0.14239   0.00000  Uiso   1.00
O392   O     0.70577   0.53120   0.09052   0.00000  Uiso   1.00
O393   O     0.82821   0.96634   0.19094   0.00000  Uiso   1.00
O394   O     0.81427   0.79071   0.16666   0.00000  Uiso   1.00
O395   O     0.68573   0.70928   0.16667   0.00000  Uiso   1.00
O396   O     0.75000   0.79071   0.09613   0.00000  Uiso   1.00
O397   O     0.75000   0.70929   0.23720   0.00000  Uiso   1.00
O398   O     0.75000   0.79071   0.23720   0.00000  Uiso   1.00
O399   O     0.75000   0.70929   0.09613   0.00000  Uiso   1.00
O400   O     0.80315   0.63082   0.23209   0.00000  Uiso   1.00
C401   C     0.16501   0.24993   0.50316   0.00000  Uiso   1.00
C402   C     0.28761   0.44540   0.51526   0.00000  Uiso   1.00
C403   C     0.24992   0.25001   0.40687   0.00000  Uiso   1.00
C404   C     0.25008   0.25001   0.59313   0.00000  Uiso   1.00
C405   C     0.25000   0.02750   0.50000   0.00000  Uiso   1.00
C406   C     0.25000   0.47254   0.50000   0.00000  Uiso   1.00
C407   C     0.24999   0.25006   0.35516   0.00000  Uiso   1.00
C408   C     0.25001   0.25006   0.64484   0.00000  Uiso   1.00
C409   C     0.04555   0.28428   0.48633   0.00000  Uiso   1.00
C410   C     0.45123   0.20322   0.48288   0.00000  Uiso   1.00
C411   C     0.45445   0.28428   0.51368   0.00000  Uiso   1.00
C412   C     0.33498   0.24993   0.49684   0.00000  Uiso   1.00
C413   C     0.04877   0.20322   0.51713   0.00000  Uiso   1.00
C414   C     0.09051   0.28950   0.49378   0.00000  Uiso   1.00
C415   C     0.40530   0.20596   0.47849   0.00000  Uiso   1.00
C416   C     0.40949   0.28950   0.50622   0.00000  Uiso   1.00
C417   C     0.09470   0.20596   0.52151   0.00000  Uiso   1.00
C418   C     0.11650   0.24903   0.50761   0.00000  Uiso   1.00
C419   C     0.38350   0.24903   0.49239   0.00000  Uiso   1.00
C420   C     0.02415   0.24232   0.49980   0.00000  Uiso   1.00
C421   C     0.47585   0.24232   0.50020   0.00000  Uiso   1.00
C422   C     0.29245   0.12766   0.61519   0.00000  Uiso   1.00
C423   C     0.27376   0.10509   0.53555   0.00000  Uiso   1.00
C424   C     0.19088   0.38415   0.39846   0.00000  Uiso   1.00
C425   C     0.20755   0.12766   0.38481   0.00000  Uiso   1.00
C426   C     0.30912   0.38414   0.60154   0.00000  Uiso   1.00
C427   C     0.10681   0.33935   0.49207   0.00000  Uiso   1.00
C428   C     0.38193   0.16472   0.45495   0.00000  Uiso   1.00
C429   C     0.39319   0.33935   0.50793   0.00000  Uiso   1.00
C430   C     0.11807   0.16472   0.54505   0.00000  Uiso   1.00
C431   C     0.26394   0.01312   0.60917   0.00000  Uiso   1.00
C432   C     0.15354   0.47803   0.52087   0.00000  Uiso   1.00
C433   C     0.23605   0.01312   0.39083   0.00000  Uiso   1.00
C434   C     0.21685   0.39545   0.47659   0.00000  Uiso   1.00
C435   C     0.34646   0.47803   0.47913   0.00000  Uiso   1.00
C436   C     0.22624   0.10509   0.46445   0.00000  Uiso   1.00
C437   C     0.28315   0.39545   0.52341   0.00000  Uiso   1.00
C438   C     0.27178   0.05415   0.53808   0.00000  Uiso   1.00
C439   C     0.21239   0.44540   0.48474   0.00000  Uiso   1.00
C440   C     0.22822   0.05415   0.46192   0.00000  Uiso   1.00
Cu441  Cu    0.25000   0.29821   0.50000   0.00000  Uiso   1.00
Cu442  Cu    0.25000   0.20178   0.50000   0.00000  Uiso   1.00
H443   H     0.02657   0.31475   0.47280   0.00000  Uiso   1.00
H444   H     0.17821   0.42103   0.39158   0.00000  Uiso   1.00
H445   H     0.19566   0.16065   0.36585   0.00000  Uiso   1.00
H446   H     0.18990   0.09740   0.36656   0.00000  Uiso   1.00
H447   H     0.24353   0.12537   0.37954   0.00000  Uiso   1.00
H448   H     0.32910   0.35930   0.62497   0.00000  Uiso   1.00
H449   H     0.27452   0.38117   0.61290   0.00000  Uiso   1.00
H450   H     0.32178   0.42103   0.60842   0.00000  Uiso   1.00
H451   H     0.10338   0.40366   0.45802   0.00000  Uiso   1.00
H452   H     0.33527   0.14191   0.40595   0.00000  Uiso   1.00
H453   H     0.39662   0.40366   0.54198   0.00000  Uiso   1.00
H454   H     0.46796   0.17133   0.47057   0.00000  Uiso   1.00
H455   H     0.16473   0.14191   0.59405   0.00000  Uiso   1.00
H456   H     0.24424   0.48296   0.59361   0.00000  Uiso   1.00
H457   H     0.24151   0.04165   0.62177   0.00000  Uiso   1.00
H458   H     0.28289   0.49867   0.64127   0.00000  Uiso   1.00
H459   H     0.17091   0.00883   0.53869   0.00000  Uiso   1.00
H460   H     0.15350   0.44674   0.54624   0.00000  Uiso   1.00
H461   H     0.11892   0.48900   0.51381   0.00000  Uiso   1.00
H462   H     0.25575   0.48296   0.40639   0.00000  Uiso   1.00
H463   H     0.25849   0.04165   0.37823   0.00000  Uiso   1.00
H464   H     0.21711   0.49867   0.35873   0.00000  Uiso   1.00
H465   H     0.47343   0.31475   0.52720   0.00000  Uiso   1.00
H466   H     0.32909   0.00882   0.46130   0.00000  Uiso   1.00
H467   H     0.34651   0.44674   0.45377   0.00000  Uiso   1.00
H468   H     0.38107   0.48901   0.48619   0.00000  Uiso   1.00
H469   H     0.03204   0.17133   0.52943   0.00000  Uiso   1.00
H470   H     0.30434   0.16065   0.63415   0.00000  Uiso   1.00
H471   H     0.31010   0.09740   0.63344   0.00000  Uiso   1.00
H472   H     0.25647   0.12537   0.62046   0.00000  Uiso   1.00
H473   H     0.17090   0.35929   0.37503   0.00000  Uiso   1.00
H474   H     0.22548   0.38118   0.38710   0.00000  Uiso   1.00
N475   N     0.25000   0.12934   0.50000   0.00000  Uiso   1.00
N476   N     0.25000   0.37065   0.50000   0.00000  Uiso   1.00
O477   O     0.18573   0.29071   0.50000   0.00000  Uiso   1.00
O478   O     0.18638   0.37080   0.44781   0.00000  Uiso   1.00
O479   O     0.19685   0.13082   0.43457   0.00000  Uiso   1.00
O480   O     0.31362   0.37080   0.55219   0.00000  Uiso   1.00
O481   O     0.12903   0.35546   0.52645   0.00000  Uiso   1.00
O482   O     0.09275   0.36942   0.45358   0.00000  Uiso   1.00
O483   O     0.39283   0.12363   0.46554   0.00000  Uiso   1.00
O484   O     0.34864   0.17281   0.41927   0.00000  Uiso   1.00
O485   O     0.37097   0.35546   0.47355   0.00000  Uiso   1.00
O486   O     0.40725   0.36942   0.54642   0.00000  Uiso   1.00
O487   O     0.10717   0.12363   0.53446   0.00000  Uiso   1.00
O488   O     0.31427   0.20928   0.50000   0.00000  Uiso   1.00
O489   O     0.15136   0.17281   0.58073   0.00000  Uiso   1.00
O490   O     0.29423   0.03120   0.57615   0.00000  Uiso   1.00
O491   O     0.17179   0.46634   0.47573   0.00000  Uiso   1.00
O492   O     0.20577   0.03120   0.42385   0.00000  Uiso   1.00
O493   O     0.32821   0.46634   0.52428   0.00000  Uiso   1.00
O494   O     0.31427   0.29071   0.50000   0.00000  Uiso   1.00
O495   O     0.18573   0.20928   0.50000   0.00000  Uiso   1.00
O496   O     0.25000   0.29071   0.42946   0.00000  Uiso   1.00
O497   O     0.25000   0.20929   0.57054   0.00000  Uiso   1.00
O498   O     0.25000   0.29071   0.57054   0.00000  Uiso   1.00
O499   O     0.25000   0.20929   0.42946   0.00000  Uiso   1.00
O500   O     0.30315   0.13082   0.56543   0.00000  Uiso   1.00
C501   C     0.66501   0.24993   0.50316   0.00000  Uiso   1.00
C502   C     0.78761   0.44540   0.51526   0.00000  Uiso   1.00
C503   C     0.74992   0.25001   0.40687   0.00000  Uiso   1.00
C504   C     0.75008   0.25001   0.59313   0.00000  Uiso   1.00
C505   C     0.75000   0.02750   0.50000   0.00000  Uiso   1.00
C506   C     0.75000   0.47254   0.50000   0.00000  Uiso   1.00
C507   C     0.74999   0.25006   0.35516   0.00000  Uiso   1.00
C508   C     0.75001   0.25006   0.64484   0.00000  Uiso   1.00
C509   C     0.54555   0.28428   0.48633   0.00000  Uiso   1.00
C510   C     0.95123   0.20322   0.48288   0.00000  Uiso   1.00
C511   C     0.95445   0.28428   0.51368   0.00000  Uiso   1.00
C512   C     0.83498   0.24993   0.49684   0.00000  Uiso   1.00
C513   C     0.54877   0.20322   0.51713   0.00000  Uiso   1.00
C514   C     0.59051   0.28950   0.49378   0.00000  Uiso   1.00
C515   C     0.90530   0.20596   0.47849   0.00000  Uiso   1.00
C516   C     0.90949   0.28950   0.50622   0.00000  Uiso   1.00
C517   C     0.59470   0.20596   0.52151   0.00000  Uiso   1.00
C518   C     0.61650   0.24903   0.50761   0.00000  Uiso   1.00
C519   C     0.88350   0.24903   0.49239   0.00000  Uiso   1.00
C520   C     0.52415   0.24232   0.49980   0.00000  Uiso   1.00
C521   C     0.97585   0.24232   0.50020   0.00000  Uiso   1.00
C522   C     0.79245   0.12766   0.61519   0.00000  Uiso   1.00
C523   C     0.77376   0.10509   0.53555   0.00000  Uiso   1.00
C524   C     0.69088   0.38415   0.39846   0.00000  Uiso   1.00
C525   C     0.70755   0.12766   0.38481   0.00000  Uiso   1.00
C526   C     0.80912   0.38414   0.60154   0.00000  Uiso   1.00
C527   C     0.60681   0.33935   0.49207   0.00000  Uiso   1.00
C528   C     0.88193   0.16472   0.45495   0.00000  Uiso   1.00
C529   C     0.89319   0.33935   0.50793   0.00000  Uiso   1.00
C530   C     0.61807   0.16472   0.54505   0.00000  Uiso   1.00
C531   C     0.76394   0.01312   0.60917   0.00000  Uiso   1.00
C532   C     0.65354   0.47803   0.52087   0.00000  Uiso   1.00
C533   C     0.73605   0.01312   0.39083   0.00000  Uiso   1.00
C534   C     0.71685   0.39545   0.47659   0.00000  Uiso   1.00
C535   C     0.84646   0.47803   0.47913   0.00000  Uiso   1.00
C536   C     0.72624   0.10509   0.46445   0.00000  Uiso   1.00
C537   C     0.78315   0.39545   0.52341   0.00000  Uiso   1.00
C538   C     0.77178   0.05415   0.53808   0.00000  Uiso   1.00
C539   C     0.71239   0.44540   0.48474   0.00000  Uiso   1.00
C540   C     0.72822   0.05415   0.46192   0.00000  Uiso   1.00
Cu541  Cu    0.75000   0.29821   0.50000   0.00000  Uiso   1.00
Cu542  Cu    0.75000   0.20178   0.50000   0.00000  Uiso   1.00
H543   H     0.52657   0.31475   0.47280   0.00000  Uiso   1.00
H544   H     0.67821   0.42103   0.39158   0.00000  Uiso   1.00
H545   H     0.69566   0.16065   0.36585   0.00000  Uiso   1.00
H546   H     0.68990   0.09740   0.36656   0.00000  Uiso   1.00
H547   H     0.74353   0.12537   0.37954   0.00000  Uiso   1.00
H548   H     0.82910   0.35930   0.62497   0.00000  Uiso   1.00
H549   H     0.77452   0.38117   0.61290   0.00000  Uiso   1.00
H550   H     0.82178   0.42103   0.60842   0.00000  Uiso   1.00
H551   H     0.60338   0.40366   0.45802   0.00000  Uiso   1.00
H552   H     0.83527   0.14191   0.40595   0.00000  Uiso   1.00
H553   H     0.89662   0.40366   0.54198   0.00000  Uiso   1.00
H554   H     0.96796   0.17133   0.47057   0.00000  Uiso   1.00
H555   H     0.66473   0.14191   0.59405   0.00000  Uiso   1.00
H556   H     0.74424   0.48296   0.59361   0.00000  Uiso   1.00
H557   H     0.74151   0.04165   0.62177   0.00000  Uiso   1.00
H558   H     0.78289   0.49867   0.64127   0.00000  Uiso   1.00
H559   H     0.67091   0.00883   0.53869   0.00000  Uiso   1.00
H560   H     0.65350   0.44674   0.54624   0.00000  Uiso   1.00
H561   H     0.61892   0.48900   0.51381   0.00000  Uiso   1.00
H562   H     0.75575   0.48296   0.40639   0.00000  Uiso   1.00
H563   H     0.75849   0.04165   0.37823   0.00000  Uiso   1.00
H564   H     0.71711   0.49867   0.35873   0.00000  Uiso   1.00
H565   H     0.97343   0.31475   0.52720   0.00000  Uiso   1.00
H566   H     0.82909   0.00882   0.46130   0.00000  Uiso   1.00
H567   H     0.84651   0.44674   0.45377   0.00000  Uiso   1.00
H568   H     0.88107   0.48901   0.48619   0.00000  Uiso   1.00
H569   H     0.53204   0.17133   0.52943   0.00000  Uiso   1.00
H570   H     0.80434   0.16065   0.63415   0.00000  Uiso   1.00
H571   H     0.81010   0.09740   0.63344   0.00000  Uiso   1.00
H572   H     0.75647   0.12537   0.62046   0.00000  Uiso   1.00
H573   H     0.67090   0.35929   0.37503   0.00000  Uiso   1.00
H574   H     0.72548   0.38118   0.38710   0.00000  Uiso   1.00
N575   N     0.75000   0.12934   0.50000   0.00000  Uiso   1.00
N576   N     0.75000   0.37065   0.50000   0.00000  Uiso   1.00
O577   O     0.68573   0.29071   0.50000   0.00000  Uiso   1.00
O578   O     0.68638   0.37080   0.44781   0.00000  Uiso   1.00
O579   O     0.69685   0.13082   0.43457   0.00000  Uiso   1.00
O580   O     0.81362   0.37080   0.55219   0.00000  Uiso   1.00
O581   O     0.62903   0.35546   0.52645   0.00000  Uiso   1.00
O582   O     0.59275   0.36942   0.45358   0.00000  Uiso   1.00
O583   O     0.89283   0.12363   0.46554   0.00000  Uiso   1.00
O584   O     0.84864   0.17281   0.41927   0.00000  Uiso   1.00
O585   O     0.87097   0.35546   0.47355   0.00000  Uiso   1.00
O586   O     0.90725   0.36942   0.54642   0.00000  Uiso   1.00
O587   O     0.60717   0.12363   0.53446   0.00000  Uiso   1.00
O588   O     0.81427   0.20928   0.50000   0.00000  Uiso   1.00
O589   O     0.65136   0.17281   0.58073   0.00000  Uiso   1.00
O590   O     0.79423   0.03120   0.57615   0.00000  Uiso   1.00
O591   O     0.67179   0.46634   0.47573   0.00000  Uiso   1.00
O592   O     0.70577   0.03120   0.42385   0.00000  Uiso   1.00
O593   O     0.82821   0.46634   0.52428   0.00000  Uiso   1.00
O594   O     0.81427   0.29071   0.50000   0.00000  Uiso   1.00
O595   O     0.68573   0.20928   0.50000   0.00000  Uiso   1.00
O596   O     0.75000   0.29071   0.42946   0.00000  Uiso   1.00
O597   O     0.75000   0.20929   0.57054   0.00000  Uiso   1.00
O598   O     0.75000   0.29071   0.57054   0.00000  Uiso   1.00
O599   O     0.75000   0.20929   0.42946   0.00000  Uiso   1.00
O600   O     0.80315   0.13082   0.56543   0.00000  Uiso   1.00
C601   C     0.16501   0.74993   0.50316   0.00000  Uiso   1.00
C602   C     0.28761   0.94540   0.51526   0.00000  Uiso   1.00
C603   C     0.24992   0.75001   0.40687   0.00000  Uiso   1.00
C604   C     0.25008   0.75001   0.59313   0.00000  Uiso   1.00
C605   C     0.25000   0.52750   0.50000   0.00000  Uiso   1.00
C606   C     0.25000   0.97254   0.50000   0.00000  Uiso   1.00
C607   C     0.24999   0.75006   0.35516   0.00000  Uiso   1.00
C608   C     0.25001   0.75006   0.64484   0.00000  Uiso   1.00
C609   C     0.04555   0.78428   0.48633   0.00000  Uiso   1.00
C610   C     0.45123   0.70322   0.48288   0.00000  Uiso   1.00
C611   C     0.45445   0.78428   0.51368   0.00000  Uiso   1.00
C612   C     0.33498   0.74993   0.49684   0.00000  Uiso   1.00
C613   C     0.04877   0.70322   0.51713   0.00000  Uiso   1.00
C614   C     0.09051   0.78950   0.49378   0.00000  Uiso   1.00
C615   C     0.40530   0.70596   0.47849   0.00000  Uiso   1.00
C616   C     0.40949   0.78950   0.50622   0.00000  Uiso   1.00
C617   C     0.09470   0.70596   0.52151   0.00000  Uiso   1.00
C618   C     0.11650   0.74903   0.50761   0.00000  Uiso   1.00
C619   C     0.38350   0.74903   0.49239   0.00000  Uiso   1.00
C620   C     0.02415   0.74232   0.49980   0.00000  Uiso   1.00
C621   C     0.47585   0.74232   0.50020   0.00000  Uiso   1.00
C622   C     0.29245   0.62766   0.61519   0.00000  Uiso   1.00
C623   C     0.27376   0.60509   0.53555   0.00000  Uiso   1.00
C624   C     0.19088   0.88415   0.39846   0.00000  Uiso   1.00
C625   C     0.20755   0.62766   0.38481   0.00000  Uiso   1.00
C626   C     0.30912   0.88414   0.60154   0.00000  Uiso   1.00
C627   C     0.10681   0.83935   0.49207   0.00000  Uiso   1.00
C628   C     0.38193   0.66472   0.45495   0.00000  Uiso   1.00
C629   C     0.39319   0.83935   0.50793   0.00000  Uiso   1.00
C630   C     0.11807   0.66472   0.54505   0.00000  Uiso   1.00
C631   C     0.26394   0.51312   0.60917   0.00000  Uiso   1.00
C632   C     0.15354   0.97803   0.52087   0.00000  Uiso   1.00
C633   C     0.23605   0.51312   0.39083   0.00000  Uiso   1.00
C634   C     0.21685   0.89545   0.47659   0.00000  Uiso   1.00
C635   C     0.34646   0.97803   0.47913   0.00000  Uiso   1.00
C636   C     0.22624   0.60509   0.46445   0.00000  Uiso   1.00
C637   C     0.28315   0.89545   0.52341   0.00000  Uiso   1.00
C638   C     0.27178   0.55415   0.53808   0.00000  Uiso   1.00
C639   C     0.21239   0.94540   0.48474   0.00000  Uiso   1.00
C640   C     0.22822   0.55415   0.46192   0.00000  Uiso   1.00
Cu641  Cu    0.25000   0.79821   0.50000   0.00000  Uiso   1.00
Cu642  Cu    0.25000   0.70178   0.50000   0.00000  Uiso   1.00
H643   H     0.02657   0.81475   0.47280   0.00000  Uiso   1.00
H644   H     0.17821   0.92103   0.39158   0.00000  Uiso   1.00
H645   H     0.19566   0.66065   0.36585   0.00000  Uiso   1.00
H646   H     0.18990   0.59740   0.36656   0.00000  Uiso   1.00
H647   H     0.24353   0.62537   0.37954   0.00000  Uiso   1.00
H648   H     0.32910   0.85930   0.62497   0.00000  Uiso   1.00
H649   H     0.27452   0.88117   0.61290   0.00000  Uiso   1.00
H650   H     0.32178   0.92103   0.60842   0.00000  Uiso   1.00
H651   H     0.10338   0.90366   0.45802   0.00000  Uiso   1.00
H652   H     0.33527   0.64191   0.40595   0.00000  Uiso   1.00
H653   H     0.39662   0.90366   0.54198   0.00000  Uiso   1.00
H654   H     0.46796   0.67133   0.47057   0.00000  Uiso   1.00
H655   H     0.16473   0.64191   0.59405   0.00000  Uiso   1.00
H656   H     0.24424   0.98296   0.59361   0.00000  Uiso   1.00
H657   H     0.24151   0.54165   0.62177   0.00000  Uiso   1.00
H658   H     0.28289   0.99867   0.64127   0.00000  Uiso   1.00
H659   H     0.17091   0.50883   0.53869   0.00000  Uiso   1.00
H660   H     0.15350   0.94674   0.54624   0.00000  Uiso   1.00
H661   H     0.11892   0.98900   0.51381   0.00000  Uiso   1.00
H662   H     0.25575   0.98296   0.40639   0.00000  Uiso   1.00
H663   H     0.25849   0.54165   0.37823   0.00000  Uiso   1.00
H664   H     0.21711   0.99867   0.35873   0.00000  Uiso   1.00
H665   H     0.47343   0.81475   0.52720   0.00000  Uiso   1.00
H666   H     0.32909   0.50882   0.46130   0.00000  Uiso   1.00
H667   H     0.34651   0.94674   0.45377   0.00000  Uiso   1.00
H668   H     0.38107   0.98901   0.48619   0.00000  Uiso   1.00
H669   H     0.03204   0.67133   0.52943   0.00000  Uiso   1.00
H670   H     0.30434   0.66065   0.63415   0.00000  Uiso   1.00
H671   H     0.31010   0.59740   0.63344   0.00000  Uiso   1.00
H672   H     0.25647   0.62537   0.62046   0.00000  Uiso   1.00
H673   H     0.17090   0.85929   0.37503   0.00000  Uiso   1.00
H674   H     0.22548   0.88118   0.38710   0.00000  Uiso   1.00
N675   N     0.25000   0.62934   0.50000   0.00000  Uiso   1.00
N676   N     0.25000   0.87065   0.50000   0.00000  Uiso   1.00
O677   O     0.18573   0.79071   0.50000   0.00000  Uiso   1.00
O678   O     0.18638   0.87080   0.44781   0.00000  Uiso   1.00
O679   O     0.19685   0.63082   0.43457   0.00000  Uiso   1.00
O680   O     0.31362   0.87080   0.55219   0.00000  Uiso   1.00
O681   O     0.12903   0.85546   0.52645   0.00000  Uiso   1.00
O682   O     0.09275   0.86942   0.45358   0.00000  Uiso   1.00
O683   O     0.39283   0.62363   0.46554   0.00000  Uiso   1.00
O684   O     0.34864   0.67281   0.41927   0.00000  Uiso   1.00
O685   O     0.37097   0.85546   0.47355   0.00000  Uiso   1.00
O686   O     0.40725   0.86942   0.54642   0.00000  Uiso   1.00
O687   O     0.10717   0.62363   0.53446   0.00000  Uiso   1.00
O688   O     0.31427   0.70928   0.50000   0.00000  Uiso   1.00
O689   O     0.15136   0.67281   0.58073   0.00000  Uiso   1.00
O690   O     0.29423   0.53120   0.57615   0.00000  Uiso   1.00
O691   O     0.17179   0.96634   0.47573   0.00000  Uiso   1.00
O692   O     0.20577   0.53120   0.42385   0.00000  Uiso   1.00
O693   O     0.32821   0.96634   0.52428   0.00000  Uiso   1.00
O694   O     0.31427   0.79071   0.50000   0.00000  Uiso   1.00
O695   O     0.18573   0.70928   0.50000   0.00000  Uiso   1.00
O696   O     0.25000   0.79071   0.42946   0.00000  Uiso   1.00
O697   O     0.25000   0.70929   0.57054   0.00000  Uiso   1.00
O698   O     0.25000   0.79071   0.57054   0.00000  Uiso   1.00
O699   O     0.25000   0.70929   0.42946   0.00000  Uiso   1.00
O700   O     0.30315   0.63082   0.56543   0.00000  Uiso   1.00
C701   C     0.66501   0.74993   0.50316   0.00000  Uiso   1.00
C702   C     0.78761   0.94540   0.51526   0.00000  Uiso   1.00
C703   C     0.74992   0.75001   0.40687   0.00000  Uiso   1.00
C704   C     0.75008   0.75001   0.59313   0.00000  Uiso   1.00
C705   C     0.75000   0.52750   0.50000   0.00000  Uiso   1.00
C706   C     0.75000   0.97254   0.50000   0.00000  Uiso   1.00
C707   C     0.74999   0.75006   0.35516   0.00000  Uiso   1.00
C708   C     0.75001   0.75006   0.64484   0.00000  Uiso   1.00
C709   C     0.54555   0.78428   0.48633   0.00000  Uiso   1.00
C710   C     0.95123   0.70322   0.48288   0.00000  Uiso   1.00
C711   C     0.95445   0.78428   0.51368   0.00000  Uiso   1.00
C712   C     0.83498   0.74993   0.49684   0.00000  Uiso   1.00
C713   C     0.54877   0.70322   0.51713   0.00000  Uiso   1.00
C714   C     0.59051   0.78950   0.49378   0.00000  Uiso   1.00
C715   C     0.90530   0.70596   0.47849   0.00000  Uiso   1.00
C716   C     0.90949   0.78950   0.50622   0.00000  Uiso   1.00
C717   C     0.59470   0.70596   0.52151   0.00000  Uiso   1.00
C718   C     0.61650   0.74903   0.50761   0.00000  Uiso   1.00
C719   C     0.88350   0.74903   0.49239   0.00000  Uiso   1.00
C720   C     0.52415   0.74232   0.49980   0.00000  Uiso   1.00
C721   C     0.97585   0.74232   0.50020   0.00000  Uiso   1.00
C722   C     0.79245   0.62766   0.61519   0.00000  Uiso   1.00
C723   C     0.77376   0.60509   0.53555   0.00000  Uiso   1.00
C724   C     0.69088   0.88415   0.39846   0.00000  Uiso   1.00
C725   C     0.70755   0.62766   0.38481   0.00000  Uiso   1.00
C726   C     0.80912   0.88414   0.60154   0.00000  Uiso   1.00
C727   C     0.60681   0.83935   0.49207   0.00000  Uiso   1.00
C728   C     0.88193   0.66472   0.45495   0.00000  Uiso   1.00
C729   C     0.89319   0.83935   0.50793   0.00000  Uiso   1.00
C730   C     0.61807   0.66472   0.54505   0.00000  Uiso   1.00
C731   C     0.76394   0.51312   0.60917   0.00000  Uiso   1.00
C732   C     0.65354   0.97803   0.52087   0.00000  Uiso   1.00
C733   C     0.73605   0.51312   0.39083   0.00000  Uiso   1.00
C734   C     0.71685   0.89545   0.47659   0.00000  Uiso   1.00
C735   C     0.84646   0.97803   0.47913   0.00000  Uiso   1.00
C736   C     0.72624   0.60509   0.46445   0.00000  Uiso   1.00
C737   C     0.78315   0.89545   0.52341   0.00000  Uiso   1.00
C738   C     0.77178   0.55415   0.53808   0.00000  Uiso   1.00
C739   C     0.71239   0.94540   0.48474   0.00000  Uiso   1.00
C740   C     0.72822   0.55415   0.46192   0.00000  Uiso   1.00
Cu741  Cu    0.75000   0.79821   0.50000   0.00000  Uiso   1.00
Cu742  Cu    0.75000   0.70178   0.50000   0.00000  Uiso   1.00
H743   H     0.52657   0.81475   0.47280   0.00000  Uiso   1.00
H744   H     0.67821   0.92103   0.39158   0.00000  Uiso   1.00
H745   H     0.69566   0.66065   0.36585   0.00000  Uiso   1.00
H746   H     0.68990   0.59740   0.36656   0.00000  Uiso   1.00
H747   H     0.74353   0.62537   0.37954   0.00000  Uiso   1.00
H748   H     0.82910   0.85930   0.62497   0.00000  Uiso   1.00
H749   H     0.77452   0.88117   0.61290   0.00000  Uiso   1.00
H750   H     0.82178   0.92103   0.60842   0.00000  Uiso   1.00
H751   H     0.60338   0.90366   0.45802   0.00000  Uiso   1.00
H752   H     0.83527   0.64191   0.40595   0.00000  Uiso   1.00
H753   H     0.89662   0.90366   0.54198   0.00000  Uiso   1.00
H754   H     0.96796   0.67133   0.47057   0.00000  Uiso   1.00
H755   H     0.66473   0.64191   0.59405   0.00000  Uiso   1.00
H756   H     0.74424   0.98296   0.59361   0.00000  Uiso   1.00
H757   H     0.74151   0.54165   0.62177   0.00000  Uiso   1.00
H758   H     0.78289   0.99867   0.64127   0.00000  Uiso   1.00
H759   H     0.67091   0.50883   0.53869   0.00000  Uiso   1.00
H760   H     0.65350   0.94674   0.54624   0.00000  Uiso   1.00
H761   H     0.61892   0.98900   0.51381   0.00000  Uiso   1.00
H762   H     0.75575   0.98296   0.40639   0.00000  Uiso   1.00
H763   H     0.75849   0.54165   0.37823   0.00000  Uiso   1.00
H764   H     0.71711   0.99867   0.35873   0.00000  Uiso   1.00
H765   H     0.97343   0.81475   0.52720   0.00000  Uiso   1.00
H766   H     0.82909   0.50882   0.46130   0.00000  Uiso   1.00
H767   H     0.84651   0.94674   0.45377   0.00000  Uiso   1.00
H768   H     0.88107   0.98901   0.48619   0.00000  Uiso   1.00
H769   H     0.53204   0.67133   0.52943   0.00000  Uiso   1.00
H770   H     0.80434   0.66065   0.63415   0.00000  Uiso   1.00
H771   H     0.81010   0.59740   0.63344   0.00000  Uiso   1.00
H772   H     0.75647   0.62537   0.62046   0.00000  Uiso   1.00
H773   H     0.67090   0.85929   0.37503   0.00000  Uiso   1.00
H774   H     0.72548   0.88118   0.38710   0.00000  Uiso   1.00
N775   N     0.75000   0.62934   0.50000   0.00000  Uiso   1.00
N776   N     0.75000   0.87065   0.50000   0.00000  Uiso   1.00
O777   O     0.68573   0.79071   0.50000   0.00000  Uiso   1.00
O778   O     0.68638   0.87080   0.44781   0.00000  Uiso   1.00
O779   O     0.69685   0.63082   0.43457   0.00000  Uiso   1.00
O780   O     0.81362   0.87080   0.55219   0.00000  Uiso   1.00
O781   O     0.62903   0.85546   0.52645   0.00000  Uiso   1.00
O782   O     0.59275   0.86942   0.45358   0.00000  Uiso   1.00
O783   O     0.89283   0.62363   0.46554   0.00000  Uiso   1.00
O784   O     0.84864   0.67281   0.41927   0.00000  Uiso   1.00
O785   O     0.87097   0.85546   0.47355   0.00000  Uiso   1.00
O786   O     0.90725   0.86942   0.54642   0.00000  Uiso   1.00
O787   O     0.60717   0.62363   0.53446   0.00000  Uiso   1.00
O788   O     0.81427   0.70928   0.50000   0.00000  Uiso   1.00
O789   O     0.65136   0.67281   0.58073   0.00000  Uiso   1.00
O790   O     0.79423   0.53120   0.57615   0.00000  Uiso   1.00
O791   O     0.67179   0.96634   0.47573   0.00000  Uiso   1.00
O792   O     0.70577   0.53120   0.42385   0.00000  Uiso   1.00
O793   O     0.82821   0.96634   0.52428   0.00000  Uiso   1.00
O794   O     0.81427   0.79071   0.50000   0.00000  Uiso   1.00
O795   O     0.68573   0.70928   0.50000   0.00000  Uiso   1.00
O796   O     0.75000   0.79071   0.42946   0.00000  Uiso   1.00
O797   O     0.75000   0.70929   0.57054   0.00000  Uiso   1.00
O798   O     0.75000   0.79071   0.57054   0.00000  Uiso   1.00
O799   O     0.75000   0.70929   0.42946   0.00000  Uiso   1.00
O800   O     0.80315   0.63082   0.56543   0.00000  Uiso   1.00
C801   C     0.16501   0.24993   0.83650   0.00000  Uiso   1.00
C802   C     0.28761   0.44540   0.84859   0.00000  Uiso   1.00
C803   C     0.24992   0.25001   0.74020   0.00000  Uiso   1.00
C804   C     0.25008   0.25001   0.92647   0.00000  Uiso   1.00
C805   C     0.25000   0.02750   0.83333   0.00000  Uiso   1.00
C806   C     0.25000   0.47254   0.83333   0.00000  Uiso   1.00
C807   C     0.24999   0.25006   0.68849   0.00000  Uiso   1.00
C808   C     0.25001   0.25006   0.97818   0.00000  Uiso   1.00
C809   C     0.04555   0.28428   0.81966   0.00000  Uiso   1.00
C810   C     0.45123   0.20322   0.81621   0.00000  Uiso   1.00
C811   C     0.45445   0.28428   0.84701   0.00000  Uiso   1.00
C812   C     0.33498   0.24993   0.83017   0.00000  Uiso   1.00
C813   C     0.04877   0.20322   0.85046   0.00000  Uiso   1.00
C814   C     0.09051   0.28950   0.82711   0.00000  Uiso   1.00
C815   C     0.40530   0.20596   0.81183   0.00000  Uiso   1.00
C816   C     0.40949   0.28950   0.83956   0.00000  Uiso   1.00
C817   C     0.09470   0.20596   0.85484   0.00000  Uiso   1.00
C818   C     0.11650   0.24903   0.84094   0.00000  Uiso   1.00
C819   C     0.38350   0.24903   0.82573   0.00000  Uiso   1.00
C820   C     0.02415   0.24232   0.83314   0.00000  Uiso   1.00
C821   C     0.47585   0.24232   0.83353   0.00000  Uiso   1.00
C822   C     0.29245   0.12766   0.94852   0.00000  Uiso   1.00
C823   C     0.27376   0.10509   0.86889   0.00000  Uiso   1.00
C824   C     0.19088   0.38415   0.73179   0.00000  Uiso   1.00
C825   C     0.20755   0.12766   0.71814   0.00000  Uiso   1.00
C826   C     0.30912   0.38414   0.93487   0.00000  Uiso   1.00
C827   C     0.10681   0.33935   0.82540   0.00000  Uiso   1.00
C828   C     0.38193   0.16472   0.78829   0.00000  Uiso   1.00
C829   C     0.39319   0.33935   0.84126   0.00000  Uiso   1.00
C830   C     0.11807   0.16472   0.87838   0.00000  Uiso   1.00
C831   C     0.26394   0.01312   0.94251   0.00000  Uiso   1.00
C832   C     0.15354   0.47803   0.85420   0.00000  Uiso   1.00
C833   C     0.23605   0.01312   0.72416   0.00000  Uiso   1.00
C834   C     0.21685   0.39545   0.80993   0.00000  Uiso   1.00
C835   C     0.34646   0.47803   0.81247   0.00000  Uiso   1.00
C836   C     0.22624   0.10509   0.79778   0.00000  Uiso   1.00
C837   C     0.28315   0.39545   0.85674   0.00000  Uiso   1.00
C838   C     0.27178   0.05415   0.87141   0.00000  Uiso   1.00
C839   C     0.21239   0.44540   0.81807   0.00000  Uiso   1.00
C840   C     0.22822   0.05415   0.79525   0.00000  Uiso   1.00
Cu841  Cu    0.25000   0.29821   0.83333   0.00000  Uiso   1.00
Cu842  Cu    0.25000   0.20178   0.83333   0.00000  Uiso   1.00
H843   H     0.02657   0.31475   0.80613   0.00000  Uiso   1.00
H844   H     0.17821   0.42103   0.72492   0.00000  Uiso   1.00
H845   H     0.19566   0.16065   0.69918   0.00000  Uiso   1.00
H846   H     0.18990   0.09740   0.69989   0.00000  Uiso   1.00
H847   H     0.24353   0.12537   0.71288   0.00000  Uiso   1.00
H848   H     0.32910   0.35930   0.95831   0.00000  Uiso   1.00
H849   H     0.27452   0.38117   0.94624   0.00000  Uiso   1.00
H850   H     0.32178   0.42103   0.94175   0.00000  Uiso   1.00
H851   H     0.10338   0.40366   0.79135   0.00000  Uiso   1.00
H852   H     0.33527   0.14191   0.73928   0.00000  Uiso   1.00
H853   H     0.39662   0.40366   0.87531   0.00000  Uiso   1.00
H854   H     0.46796   0.17133   0.80390   0.00000  Uiso   1.00
H855   H     0.16473   0.14191   0.92739   0.00000  Uiso   1.00
H856   H     0.24424   0.48296   0.92695   0.00000  Uiso   1.00
H857   H     0.24151   0.04165   0.95511   0.00000  Uiso   1.00
H858   H     0.28289   0.49867   0.97461   0.00000  Uiso   1.00
H859   H     0.17091   0.00883   0.87203   0.00000  Uiso   1.00
H860   H     0.15350   0.44674   0.87957   0.00000  Uiso   1.00
H861   H     0.11892   0.48900   0.84715   0.00000  Uiso   1.00
H862   H     0.25575   0.48296   0.73972   0.00000  Uiso   1.00
H863   H     0.25849   0.04165   0.71156   0.00000  Uiso   1.00
H864   H     0.21711   0.49867   0.69206   0.00000  Uiso   1.00
H865   H     0.47343   0.31475   0.86053   0.00000  Uiso   1.00
H866   H     0.32909   0.00882   0.79463   0.00000  Uiso   1.00
H867   H     0.34651   0.44674   0.78710   0.00000  Uiso   1.00
H868   H     0.38107   0.48901   0.81952   0.00000  Uiso   1.00
H869   H     0.03204   0.17133   0.86277   0.00000  Uiso   1.00
H870   H     0.30434   0.16065   0.96749   0.00000  Uiso   1.00
H871   H     0.31010   0.09740   0.96678   0.00000  Uiso   1.00
H872   H     0.25647   0.12537   0.95379   0.00000  Uiso   1.00
H873   H     0.17090   0.35929   0.70836   0.00000  Uiso   1.00
H874   H     0.22548   0.38118   0.72043   0.00000  Uiso   1.00
N875   N     0.25000   0.12934   0.83333   0.00000  Uiso   1.00
N876   N     0.25000   0.37065   0.83333   0.00000  Uiso   1.00
O877   O     0.18573   0.29071   0.83334   0.00000  Uiso   1.00
O878   O     0.18638   0.37080   0.78115   0.00000  Uiso   1.00
O879   O     0.19685   0.13082   0.76791   0.00000  Uiso   1.00
O880   O     0.31362   0.37080   0.88552   0.00000  Uiso   1.00
O881   O     0.12903   0.35546   0.85978   0.00000  Uiso   1.00
O882   O     0.09275   0.36942   0.78691   0.00000  Uiso   1.00
O883   O     0.39283   0.12363   0.79887   0.00000  Uiso   1.00
O884   O     0.34864   0.17281   0.75261   0.00000  Uiso   1.00
O885   O     0.37097   0.35546   0.80688   0.00000  Uiso   1.00
O886   O     0.40725   0.36942   0.87975   0.00000  Uiso   1.00
O887   O     0.10717   0.12363   0.86780   0.00000  Uiso   1.00
O888   O     0.31427   0.20928   0.83333   0.00000  Uiso   1.00
O889   O     0.15136   0.17281   0.91406   0.00000  Uiso   1.00
O890   O     0.29423   0.03120   0.90948   0.00000  Uiso   1.00
O891   O     0.17179   0.46634   0.80906   0.00000  Uiso   1.00
O892   O     0.20577   0.03120   0.75719   0.00000  Uiso   1.00
O893   O     0.32821   0.46634   0.85761   0.00000  Uiso   1.00
O894   O     0.31427   0.29071   0.83333   0.00000  Uiso   1.00
O895   O     0.18573   0.20928   0.83334   0.00000  Uiso   1.00
O896   O     0.25000   0.29071   0.76280   0.00000  Uiso   1.00
O897   O     0.25000   0.20929   0.90387   0.00000  Uiso   1.00
O898   O     0.25000   0.29071   0.90387   0.00000  Uiso   1.00
O899   O     0.25000   0.20929   0.76280   0.00000  Uiso   1.00
O900   O     0.30315   0.13082   0.89876   0.00000  Uiso   1.00
C901   C     0.66501   0.24993   0.83650   0.00000  Uiso   1.00
C902   C     0.78761   0.44540   0.84859   0.00000  Uiso   1.00
C903   C     0.74992   0.25001   0.74020   0.00000  Uiso   1.00
C904   C     0.75008   0.25001   0.92647   0.00000  Uiso   1.00
C905   C     0.75000   0.02750   0.83333   0.00000  Uiso   1.00
C906   C     0.75000   0.47254   0.83333   0.00000  Uiso   1.00
C907   C     0.74999   0.25006   0.68849   0.00000  Uiso   1.00
C908   C     0.75001   0.25006   0.97818   0.00000  Uiso   1.00
C909   C     0.54555   0.28428   0.81966   0.00000  Uiso   1.00
C910   C     0.95123   0.20322   0.81621   0.00000  Uiso   1.00
C911   C     0.95445   0.28428   0.84701   0.00000  Uiso   1.00
C912   C     0.83498   0.24993   0.83017   0.00000  Uiso   1.00
C913   C     0.54877   0.20322   0.85046   0.00000  Uiso   1.00
C914   C     0.59051   0.28950   0.82711   0.00000  Uiso   1.00
C915   C     0.90530   0.20596   0.81183   0.00000  Uiso   1.00
C916   C     0.90949   0.28950   0.83956   0.00000  Uiso   1.00
C917   C     0.59470   0.20596   0.85484   0.00000  Uiso   1.00
C918   C     0.61650   0.24903   0.84094   0.00000  Uiso   1.00
C919   C     0.88350   0.24903   0.82573   0.00000  Uiso   1.00
C920   C     0.52415   0.24232   0.83314   0.00000  Uiso   1.00
C921   C     0.97585   0.24232   0.83353   0.00000  Uiso   1.00
C922   C     0.79245   0.12766   0.94852   0.00000  Uiso   1.00
C923   C     0.77376   0.10509   0.86889   0.00000  Uiso   1.00
C924   C     0.69088   0.38415   0.73179   0.00000  Uiso   1.00
C925   C     0.70755   0.12766   0.71814   0.00000  Uiso   1.00
C926   C     0.80912   0.38414   0.93487   0.00000  Uiso   1.00
C927   C     0.60681   0.33935   0.82540   0.00000  Uiso   1.00
C928   C     0.88193   0.16472   0.78829   0.00000  Uiso   1.00
C929   C     0.89319   0.33935   0.84126   0.00000  Uiso   1.00
C930   C     0.61807   0.16472   0.87838   0.00000  Uiso   1.00
C931   C     0.76394   0.01312   0.94251   0.00000  Uiso   1.00
C932   C     0.65354   0.47803   0.85420   0.00000  Uiso   1.00
C933   C     0.73605   0.01312   0.72416   0.00000  Uiso   1.00
C934   C     0.71685   0.39545   0.80993   0.00000  Uiso   1.00
C935   C     0.84646   0.47803   0.81247   0.00000  Uiso   1.00
C936   C     0.72624   0.10509   0.79778   0.00000  Uiso   1.00
C937   C     0.78315   0.39545   0.85674   0.00000  Uiso   1.00
C938   C     0.77178   0.05415   0.87141   0.00000  Uiso   1.00
C939   C     0.71239   0.44540   0.81807   0.00000  Uiso   1.00
C940   C     0.72822   0.05415   0.79525   0.00000  Uiso   1.00
Cu941  Cu    0.75000   0.29821   0.83333   0.00000  Uiso   1.00
Cu942  Cu    0.75000   0.20178   0.83333   0.00000  Uiso   1.00
H943   H     0.52657   0.31475   0.80613   0.00000  Uiso   1.00
H944   H     0.67821   0.42103   0.72492   0.00000  Uiso   1.00
H945   H     0.69566   0.16065   0.69918   0.00000  Uiso   1.00
H946   H     0.68990   0.09740   0.69989   0.00000  Uiso   1.00
H947   H     0.74353   0.12537   0.71288   0.00000  Uiso   1.00
H948   H     0.82910   0.35930   0.95831   0.00000  Uiso   1.00
H949   H     0.77452   0.38117   0.94624   0.00000  Uiso   1.00
H950   H     0.82178   0.42103   0.94175   0.00000  Uiso   1.00
H951   H     0.60338   0.40366   0.79135   0.00000  Uiso   1.00
H952   H     0.83527   0.14191   0.73928   0.00000  Uiso   1.00
H953   H     0.89662   0.40366   0.87531   0.00000  Uiso   1.00
H954   H     0.96796   0.17133   0.80390   0.00000  Uiso   1.00
H955   H     0.66473   0.14191   0.92739   0.00000  Uiso   1.00
H956   H     0.74424   0.48296   0.92695   0.00000  Uiso   1.00
H957   H     0.74151   0.04165   0.95511   0.00000  Uiso   1.00
H958   H     0.78289   0.49867   0.97461   0.00000  Uiso   1.00
H959   H     0.67091   0.00883   0.87203   0.00000  Uiso   1.00
H960   H     0.65350   0.44674   0.87957   0.00000  Uiso   1.00
H961   H     0.61892   0.48900   0.84715   0.00000  Uiso   1.00
H962   H     0.75575   0.48296   0.73972   0.00000  Uiso   1.00
H963   H     0.75849   0.04165   0.71156   0.00000  Uiso   1.00
H964   H     0.71711   0.49867   0.69206   0.00000  Uiso   1.00
H965   H     0.97343   0.31475   0.86053   0.00000  Uiso   1.00
H966   H     0.82909   0.00882   0.79463   0.00000  Uiso   1.00
H967   H     0.84651   0.44674   0.78710   0.00000  Uiso   1.00
H968   H     0.88107   0.48901   0.81952   0.00000  Uiso   1.00
H969   H     0.53204   0.17133   0.86277   0.00000  Uiso   1.00
H970   H     0.80434   0.16065   0.96749   0.00000  Uiso   1.00
H971   H     0.81010   0.09740   0.96678   0.00000  Uiso   1.00
H972   H     0.75647   0.12537   0.95379   0.00000  Uiso   1.00
H973   H     0.67090   0.35929   0.70836   0.00000  Uiso   1.00
H974   H     0.72548   0.38118   0.72043   0.00000  Uiso   1.00
N975   N     0.75000   0.12934   0.83333   0.00000  Uiso   1.00
N976   N     0.75000   0.37065   0.83333   0.00000  Uiso   1.00
O977   O     0.68573   0.29071   0.83334   0.00000  Uiso   1.00
O978   O     0.68638   0.37080   0.78115   0.00000  Uiso   1.00
O979   O     0.69685   0.13082   0.76791   0.00000  Uiso   1.00
O980   O     0.81362   0.37080   0.88552   0.00000  Uiso   1.00
O981   O     0.62903   0.35546   0.85978   0.00000  Uiso   1.00
O982   O     0.59275   0.36942   0.78691   0.00000  Uiso   1.00
O983   O     0.89283   0.12363   0.79887   0.00000  Uiso   1.00
O984   O     0.84864   0.17281   0.75261   0.00000  Uiso   1.00
O985   O     0.87097   0.35546   0.80688   0.00000  Uiso   1.00
O986   O     0.90725   0.36942   0.87975   0.00000  Uiso   1.00
O987   O     0.60717   0.12363   0.86780   0.00000  Uiso   1.00
O988   O     0.81427   0.20928   0.83333   0.00000  Uiso   1.00
O989   O     0.65136   0.17281   0.91406   0.00000  Uiso   1.00
O990   O     0.79423   0.03120   0.90948   0.00000  Uiso   1.00
O991   O     0.67179   0.46634   0.80906   0.00000  Uiso   1.00
O992   O     0.70577   0.03120   0.75719   0.00000  Uiso   1.00
O993   O     0.82821   0.46634   0.85761   0.00000  Uiso   1.00
O994   O     0.81427   0.29071   0.83333   0.00000  Uiso   1.00
O995   O     0.68573   0.20928   0.83334   0.00000  Uiso   1.00
O996   O     0.75000   0.29071   0.76280   0.00000  Uiso   1.00
O997   O     0.75000   0.20929   0.90387   0.00000  Uiso   1.00
O998   O     0.75000   0.29071   0.90387   0.00000  Uiso   1.00
O999   O     0.75000   0.20929   0.76280   0.00000  Uiso   1.00
O1000  O     0.80315   0.13082   0.89876   0.00000  Uiso   1.00
C1001  C     0.16501   0.74993   0.83650   0.00000  Uiso   1.00
C1002  C     0.28761   0.94540   0.84859   0.00000  Uiso   1.00
C1003  C     0.24992   0.75001   0.74020   0.00000  Uiso   1.00
C1004  C     0.25008   0.75001   0.92647   0.00000  Uiso   1.00
C1005  C     0.25000   0.52750   0.83333   0.00000  Uiso   1.00
C1006  C     0.25000   0.97254   0.83333   0.00000  Uiso   1.00
C1007  C     0.24999   0.75006   0.68849   0.00000  Uiso   1.00
C1008  C     0.25001   0.75006   0.97818   0.00000  Uiso   1.00
C1009  C     0.04555   0.78428   0.81966   0.00000  Uiso   1.00
C1010  C     0.45123   0.70322   0.81621   0.00000  Uiso   1.00
C1011  C     0.45445   0.78428   0.84701   0.00000  Uiso   1.00
C1012  C     0.33498   0.74993   0.83017   0.00000  Uiso   1.00
C1013  C     0.04877   0.70322   0.85046   0.00000  Uiso   1.00
C1014  C     0.09051   0.78950   0.82711   0.00000  Uiso   1.00
C1015  C     0.40530   0.70596   0.81183   0.00000  Uiso   1.00
C1016  C     0.40949   0.78950   0.83956   0.00000  Uiso   1.00
C1017  C     0.09470   0.70596   0.85484   0.00000  Uiso   1.00
C1018  C     0.11650   0.74903   0.84094   0.00000  Uiso   1.00
C1019  C     0.38350   0.74903   0.82573   0.00000  Uiso   1.00
C1020  C     0.02415   0.74232   0.83314   0.00000  Uiso   1.00
C1021  C     0.47585   0.74232   0.83353   0.00000  Uiso   1.00
C1022  C     0.29245   0.62766   0.94852   0.00000  Uiso   1.00
C1023  C     0.27376   0.60509   0.86889   0.00000  Uiso   1.00
C1024  C     0.19088   0.88415   0.73179   0.00000  Uiso   1.00
C1025  C     0.20755   0.62766   0.71814   0.00000  Uiso   1.00
C1026  C     0.30912   0.88414   0.93487   0.00000  Uiso   1.00
C1027  C     0.10681   0.83935   0.82540   0.00000  Uiso   1.00
C1028  C     0.38193   0.66472   0.78829   0.00000  Uiso   1.00
C1029  C     0.39319   0.83935   0.84126   0.00000  Uiso   1.00
C1030  C     0.11807   0.66472   0.87838   0.00000  Uiso   1.00
C1031  C     0.26394   0.51312   0.94251   0.00000  Uiso   1.00
C1032  C     0.15354   0.97803   0.85420   0.00000  Uiso   1.00
C1033  C     0.23605   0.51312   0.72416   0.00000  Uiso   1.00
C1034  C     0.21685   0.89545   0.80993   0.00000  Uiso   1.00
C1035  C     0.34646   0.97803   0.81247   0.00000  Uiso   1.00
C1036  C     0.22624   0.60509   0.79778   0.00000  Uiso   1.00
C1037  C     0.28315   0.89545   0.85674   0.00000  Uiso   1.00
C1038  C     0.27178   0.55415   0.87141   0.00000  Uiso   1.00
C1039  C     0.21239   0.94540   0.81807   0.00000  Uiso   1.00
C1040  C     0.22822   0.55415   0.79525   0.00000  Uiso   1.00
Cu1041 Cu    0.25000   0.79821   0.83333   0.00000  Uiso   1.00
Cu1042 Cu    0.25000   0.70178   0.83333   0.00000  Uiso   1.00
H1043  H     0.02657   0.81475   0.80613   0.00000  Uiso   1.00
H1044  H     0.17821   0.92103   0.72492   0.00000  Uiso   1.00
H1045  H     0.19566   0.66065   0.69918   0.00000  Uiso   1.00
H1046  H     0.18990   0.59740   0.69989   0.00000  Uiso   1.00
H1047  H     0.24353   0.62537   0.71288   0.00000  Uiso   1.00
H1048  H     0.32910   0.85930   0.95831   0.00000  Uiso   1.00
H1049  H     0.27452   0.88117   0.94624   0.00000  Uiso   1.00
H1050  H     0.32178   0.92103   0.94175   0.00000  Uiso   1.00
H1051  H     0.10338   0.90366   0.79135   0.00000  Uiso   1.00
H1052  H     0.33527   0.64191   0.73928   0.00000  Uiso   1.00
H1053  H     0.39662   0.90366   0.87531   0.00000  Uiso   1.00
H1054  H     0.46796   0.67133   0.80390   0.00000  Uiso   1.00
H1055  H     0.16473   0.64191   0.92739   0.00000  Uiso   1.00
H1056  H     0.24424   0.98296   0.92695   0.00000  Uiso   1.00
H1057  H     0.24151   0.54165   0.95511   0.00000  Uiso   1.00
H1058  H     0.28289   0.99867   0.97461   0.00000  Uiso   1.00
H1059  H     0.17091   0.50883   0.87203   0.00000  Uiso   1.00
H1060  H     0.15350   0.94674   0.87957   0.00000  Uiso   1.00
H1061  H     0.11892   0.98900   0.84715   0.00000  Uiso   1.00
H1062  H     0.25575   0.98296   0.73972   0.00000  Uiso   1.00
H1063  H     0.25849   0.54165   0.71156   0.00000  Uiso   1.00
H1064  H     0.21711   0.99867   0.69206   0.00000  Uiso   1.00
H1065  H     0.47343   0.81475   0.86053   0.00000  Uiso   1.00
H1066  H     0.32909   0.50882   0.79463   0.00000  Uiso   1.00
H1067  H     0.34651   0.94674   0.78710   0.00000  Uiso   1.00
H1068  H     0.38107   0.98901   0.81952   0.00000  Uiso   1.00
H1069  H     0.03204   0.67133   0.86277   0.00000  Uiso   1.00
H1070  H     0.30434   0.66065   0.96749   0.00000  Uiso   1.00
H1071  H     0.31010   0.59740   0.96678   0.00000  Uiso   1.00
H1072  H     0.25647   0.62537   0.95379   0.00000  Uiso   1.00
H1073  H     0.17090   0.85929   0.70836   0.00000  Uiso   1.00
H1074  H     0.22548   0.88118   0.72043   0.00000  Uiso   1.00
N1075  N     0.25000   0.62934   0.83333   0.00000  Uiso   1.00
N1076  N     0.25000   0.87065   0.83333   0.00000  Uiso   1.00
O1077  O     0.18573   0.79071   0.83334   0.00000  Uiso   1.00
O1078  O     0.18638   0.87080   0.78115   0.00000  Uiso   1.00
O1079  O     0.19685   0.63082   0.76791   0.00000  Uiso   1.00
O1080  O     0.31362   0.87080   0.88552   0.00000  Uiso   1.00
O1081  O     0.12903   0.85546   0.85978   0.00000  Uiso   1.00
O1082  O     0.09275   0.86942   0.78691   0.00000  Uiso   1.00
O1083  O     0.39283   0.62363   0.79887   0.00000  Uiso   1.00
O1084  O     0.34864   0.67281   0.75261   0.00000  Uiso   1.00
O1085  O     0.37097   0.85546   0.80688   0.00000  Uiso   1.00
O1086  O     0.40725   0.86942   0.87975   0.00000  Uiso   1.00
O1087  O     0.10717   0.62363   0.86780   0.00000  Uiso   1.00
O1088  O     0.31427   0.70928   0.83333   0.00000  Uiso   1.00
O1089  O     0.15136   0.67281   0.91406   0.00000  Uiso   1.00
O1090  O     0.29423   0.53120   0.90948   0.00000  Uiso   1.00
O1091  O     0.17179   0.96634   0.80906   0.00000  Uiso   1.00
O1092  O     0.20577   0.53120   0.75719   0.00000  Uiso   1.00
O1093  O     0.32821   0.96634   0.85761   0.00000  Uiso   1.00
O1094  O     0.31427   0.79071   0.83333   0.00000  Uiso   1.00
O1095  O     0.18573   0.70928   0.83334   0.00000  Uiso   1.00
O1096  O     0.25000   0.79071   0.76280   0.00000  Uiso   1.00
O1097  O     0.25000   0.70929   0.90387   0.00000  Uiso   1.00
O1098  O     0.25000   0.79071   0.90387   0.00000  Uiso   1.00
O1099  O     0.25000   0.70929   0.76280   0.00000  Uiso   1.00
O1100  O     0.30315   0.63082   0.89876   0.00000  Uiso   1.00
C1101  C     0.66501   0.74993   0.83650   0.00000  Uiso   1.00
C1102  C     0.78761   0.94540   0.84859   0.00000  Uiso   1.00
C1103  C     0.74992   0.75001   0.74020   0.00000  Uiso   1.00
C1104  C     0.75008   0.75001   0.92647   0.00000  Uiso   1.00
C1105  C     0.75000   0.52750   0.83333   0.00000  Uiso   1.00
C1106  C     0.75000   0.97254   0.83333   0.00000  Uiso   1.00
C1107  C     0.74999   0.75006   0.68849   0.00000  Uiso   1.00
C1108  C     0.75001   0.75006   0.97818   0.00000  Uiso   1.00
C1109  C     0.54555   0.78428   0.81966   0.00000  Uiso   1.00
C1110  C     0.95123   0.70322   0.81621   0.00000  Uiso   1.00
C1111  C     0.95445   0.78428   0.84701   0.00000  Uiso   1.00
C1112  C     0.83498   0.74993   0.83017   0.00000  Uiso   1.00
C1113  C     0.54877   0.70322   0.85046   0.00000  Uiso   1.00
C1114  C     0.59051   0.78950   0.82711   0.00000  Uiso   1.00
C1115  C     0.90530   0.70596   0.81183   0.00000  Uiso   1.00
C1116  C     0.90949   0.78950   0.83956   0.00000  Uiso   1.00
C1117  C     0.59470   0.70596   0.85484   0.00000  Uiso   1.00
C1118  C     0.61650   0.74903   0.84094   0.00000  Uiso   1.00
C1119  C     0.88350   0.74903   0.82573   0.00000  Uiso   1.00
C1120  C     0.52415   0.74232   0.83314   0.00000  Uiso   1.00
C1121  C     0.97585   0.74232   0.83353   0.00000  Uiso   1.00
C1122  C     0.79245   0.62766   0.94852   0.00000  Uiso   1.00
C1123  C     0.77376   0.60509   0.86889   0.00000  Uiso   1.00
C1124  C     0.69088   0.88415   0.73179   0.00000  Uiso   1.00
C1125  C     0.70755   0.62766   0.71814   0.00000  Uiso   1.00
C1126  C     0.80912   0.88414   0.93487   0.00000  Uiso   1.00
C1127  C     0.60681   0.83935   0.82540   0.00000  Uiso   1.00
C1128  C     0.88193   0.66472   0.78829   0.00000  Uiso   1.00
C1129  C     0.89319   0.83935   0.84126   0.00000  Uiso   1.00
C1130  C     0.61807   0.66472   0.87838   0.00000  Uiso   1.00
C1131  C     0.76394   0.51312   0.94251   0.00000  Uiso   1.00
C1132  C     0.65354   0.97803   0.85420   0.00000  Uiso   1.00
C1133  C     0.73605   0.51312   0.72416   0.00000  Uiso   1.00
C1134  C     0.71685   0.89545   0.80993   0.00000  Uiso   1.00
C1135  C     0.84646   0.97803   0.81247   0.00000  Uiso   1.00
C1136  C     0.72624   0.60509   0.79778   0.00000  Uiso   1.00
C1137  C     0.78315   0.89545   0.85674   0.00000  Uiso   1.00
C1138  C     0.77178   0.55415   0.87141   0.00000  Uiso   1.00
C1139  C     0.71239   0.94540   0.81807   0.00000  Uiso   1.00
C1140  C     0.72822   0.55415   0.79525   0.00000  Uiso   1.00
Cu1141 Cu    0.75000   0.79821   0.83333   0.00000  Uiso   1.00
Cu1142 Cu    0.75000   0.70178   0.83333   0.00000  Uiso   1.00
H1143  H     0.52657   0.81475   0.80613   0.00000  Uiso   1.00
H1144  H     0.67821   0.92103   0.72492   0.00000  Uiso   1.00
H1145  H     0.69566   0.66065   0.69918   0.00000  Uiso   1.00
H1146  H     0.68990   0.59740   0.69989   0.00000  Uiso   1.00
H1147  H     0.74353   0.62537   0.71288   0.00000  Uiso   1.00
H1148  H     0.82910   0.85930   0.95831   0.00000  Uiso   1.00
H1149  H     0.77452   0.88117   0.94624   0.00000  Uiso   1.00
H1150  H     0.82178   0.92103   0.94175   0.00000  Uiso   1.00
H1151  H     0.60338   0.90366   0.79135   0.00000  Uiso   1.00
H1152  H     0.83527   0.64191   0.73928   0.00000  Uiso   1.00
H1153  H     0.89662   0.90366   0.87531   0.00000  Uiso   1.00
H1154  H     0.96796   0.67133   0.80390   0.00000  Uiso   1.00
H1155  H     0.66473   0.64191   0.92739   0.00000  Uiso   1.00
H1156  H     0.74424   0.98296   0.92695   0.00000  Uiso   1.00
H1157  H     0.74151   0.54165   0.95511   0.00000  Uiso   1.00
H1158  H     0.78289   0.99867   0.97461   0.00000  Uiso   1.00
H1159  H     0.67091   0.50883   0.87203   0.00000  Uiso   1.00
H1160  H     0.65350   0.94674   0.87957   0.00000  Uiso   1.00
H1161  H     0.61892   0.98900   0.84715   0.00000  Uiso   1.00
H1162  H     0.75575   0.98296   0.73972   0.00000  Uiso   1.00
H1163  H     0.75849   0.54165   0.71156   0.00000  Uiso   1.00
H1164  H     0.71711   0.99867   0.69206   0.00000  Uiso   1.00
H1165  H     0.97343   0.81475   0.86053   0.00000  Uiso   1.00
H1166  H     0.82909   0.50882   0.79463   0.00000  Uiso   1.00
H1167  H     0.84651   0.94674   0.78710   0.00000  Uiso   1.00
H1168  H     0.88107   0.98901   0.81952   0.00000  Uiso   1.00
H1169  H     0.53204   0.67133   0.86277   0.00000  Uiso   1.00
H1170  H     0.80434   0.66065   0.96749   0.00000  Uiso   1.00
H1171  H     0.81010   0.59740   0.96678   0.00000  Uiso   1.00
H1172  H     0.75647   0.62537   0.95379   0.00000  Uiso   1.00
H1173  H     0.67090   0.85929   0.70836   0.00000  Uiso   1.00
H1174  H     0.72548   0.88118   0.72043   0.00000  Uiso   1.00
N1175  N     0.75000   0.62934   0.83333   0.00000  Uiso   1.00
N1176  N     0.75000   0.87065   0.83333   0.00000  Uiso   1.00
O1177  O     0.68573   0.79071   0.83334   0.00000  Uiso   1.00
O1178  O     0.68638   0.87080   0.78115   0.00000  Uiso   1.00
O1179  O     0.69685   0.63082   0.76791   0.00000  Uiso   1.00
O1180  O     0.81362   0.87080   0.88552   0.00000  Uiso   1.00
O1181  O     0.62903   0.85546   0.85978   0.00000  Uiso   1.00
O1182  O     0.59275   0.86942   0.78691   0.00000  Uiso   1.00
O1183  O     0.89283   0.62363   0.79887   0.00000  Uiso   1.00
O1184  O     0.84864   0.67281   0.75261   0.00000  Uiso   1.00
O1185  O     0.87097   0.85546   0.80688   0.00000  Uiso   1.00
O1186  O     0.90725   0.86942   0.87975   0.00000  Uiso   1.00
O1187  O     0.60717   0.62363   0.86780   0.00000  Uiso   1.00
O1188  O     0.81427   0.70928   0.83333   0.00000  Uiso   1.00
O1189  O     0.65136   0.67281   0.91406   0.00000  Uiso   1.00
O1190  O     0.79423   0.53120   0.90948   0.00000  Uiso   1.00
O1191  O     0.67179   0.96634   0.80906   0.00000  Uiso   1.00
O1192  O     0.70577   0.53120   0.75719   0.00000  Uiso   1.00
O1193  O     0.82821   0.96634   0.85761   0.00000  Uiso   1.00
O1194  O     0.81427   0.79071   0.83333   0.00000  Uiso   1.00
O1195  O     0.68573   0.70928   0.83334   0.00000  Uiso   1.00
O1196  O     0.75000   0.79071   0.76280   0.00000  Uiso   1.00
O1197  O     0.75000   0.70929   0.90387   0.00000  Uiso   1.00
O1198  O     0.75000   0.79071   0.90387   0.00000  Uiso   1.00
O1199  O     0.75000   0.70929   0.76280   0.00000  Uiso   1.00
O1200  O     0.80315   0.63082   0.89876   0.00000  Uiso   1.00
loop_
_geom_bond_atom_site_label_1
_geom_bond_atom_site_label_2
_geom_bond_distance
_geom_bond_site_symmetry_2
_ccdc_geom_bond_type
C1     O77     1.304   .     A
C1     O95     1.301   .     A
C1     C18     1.490   .     S
C2     O93     1.382   .     S
C2     C6      1.423   .     A
C2     C37     1.416   .     A
C3     C7      1.413   .     S
C3     O96     1.291   .     A
C3     O99     1.291   .     A
C4     O98     1.291   .     A
C4     C8      1.413   .     S
C4     O97     1.291   .     A
C5     C40     1.422   .     A
C5     C38     1.422   .     A
C5     C206    1.531   1_545 S
C6     C39     1.423   .     A
C6     C205    1.531   .     S
C7     C808    1.193   1_554 S
C8     C407    1.193   .     S
C9     H43     1.084   .     S
C9     C14     1.387   .     A
C9     C20     1.395   .     A
C10    C15     1.404   .     A
C10    C21     1.395   .     A
C10    H54     1.084   .     S
C11    C21     1.395   .     A
C11    C16     1.387   .     A
C11    H65     1.084   .     S
C12    O94     1.304   .     A
C12    O88     1.301   .     A
C12    C19     1.490   .     S
C13    C20     1.395   .     A
C13    C17     1.404   .     A
C13    H69     1.084   .     S
C14    C18     1.421   .     A
C14    C27     1.476   .     S
C15    C19     1.430   .     A
C15    C28     1.485   .     S
C16    C29     1.476   .     S
C16    C19     1.421   .     A
C17    C30     1.485   .     S
C17    C18     1.430   .     A
C20    C121    1.474   1_455 S
C21    C120    1.474   .     S
C22    H72     1.114   .     S
C22    O100    1.413   .     S
C22    H71     1.108   .     S
C22    H70     1.109   .     S
C23    O100    1.388   .     S
C23    N75     1.368   .     A
C23    C38     1.422   .     A
C24    H73     1.109   .     S
C24    O78     1.411   .     S
C24    H44     1.111   .     S
C24    H74     1.115   .     S
C25    H47     1.114   .     S
C25    H45     1.109   .     S
C25    O79     1.413   .     S
C25    H46     1.108   .     S
C26    H50     1.111   .     S
C26    H49     1.115   .     S
C26    O80     1.411   .     S
C26    H48     1.109   .     S
C27    O81     1.223   .     D
C27    O82     1.399   .     S
C28    O84     1.399   .     S
C28    O83     1.223   .     D
C29    O85     1.223   .     D
C29    O86     1.399   .     S
C30    O89     1.399   .     S
C30    O87     1.223   .     D
C31    O90     1.409   .     S
C31    H57     1.112   .     S
C31    H256    1.108   1_545 S
C31    H258    1.108   1_545 S
C32    H61     1.109   .     S
C32    H60     1.114   .     S
C32    O91     1.411   .     S
C32    H259    1.111   .     S
C33    H63     1.112   .     S
C33    O92     1.409   .     S
C33    H262    1.108   1_545 S
C33    H264    1.108   1_545 S
C34    C39     1.416   .     A
C34    O78     1.378   .     S
C34    N76     1.363   .     A
C35    O93     1.411   .     S
C35    H67     1.114   .     S
C35    H68     1.109   .     S
C35    H266    1.111   .     S
C36    C40     1.422   .     A
C36    N75     1.368   .     A
C36    O79     1.388   .     S
C37    O80     1.378   .     S
C37    N76     1.363   .     A
C38    O90     1.380   .     S
C39    O91     1.383   .     S
C40    O92     1.380   .     S
Cu41   Cu42    2.686   .     S
Cu41   O77     1.972   .     S
Cu41   O96     1.939   .     S
Cu41   O94     1.972   .     S
Cu41   N76     2.017   .     S
Cu41   O98     1.939   .     S
Cu42   O97     1.939   .     S
Cu42   N75     2.017   .     S
Cu42   O95     1.972   .     S
Cu42   O88     1.972   .     S
Cu42   O99     1.939   .     S
H51    O82     1.013   .     S
H52    O84     1.014   .     S
H53    O86     1.013   .     S
H55    O89     1.014   .     S
H56    C231    1.108   .     S
H58    C231    1.108   .     S
H59    C232    1.111   1_545 S
H62    C233    1.108   .     S
H64    C233    1.108   .     S
H66    C235    1.111   1_545 S
C101   O177    1.304   .     A
C101   O195    1.301   .     A
C101   C118    1.490   .     S
C102   O193    1.382   .     S
C102   C106    1.423   .     A
C102   C137    1.416   .     A
C103   C107    1.413   .     S
C103   O196    1.291   .     A
C103   O199    1.291   .     A
C104   O198    1.291   .     A
C104   C108    1.413   .     S
C104   O197    1.291   .     A
C105   C140    1.422   .     A
C105   C138    1.422   .     A
C105   C306    1.531   1_545 S
C106   C139    1.423   .     A
C106   C305    1.531   .     S
C107   C908    1.193   1_554 S
C108   C507    1.193   .     S
C109   H143    1.084   .     S
C109   C114    1.387   .     A
C109   C120    1.395   .     A
C110   C115    1.404   .     A
C110   C121    1.395   .     A
C110   H154    1.084   .     S
C111   C121    1.395   .     A
C111   C116    1.387   .     A
C111   H165    1.084   .     S
C112   O194    1.304   .     A
C112   O188    1.301   .     A
C112   C119    1.490   .     S
C113   C120    1.395   .     A
C113   C117    1.404   .     A
C113   H169    1.084   .     S
C114   C118    1.421   .     A
C114   C127    1.476   .     S
C115   C119    1.430   .     A
C115   C128    1.485   .     S
C116   C129    1.476   .     S
C116   C119    1.421   .     A
C117   C130    1.485   .     S
C117   C118    1.430   .     A
C121   C20     1.474   1_655 S
C122   H172    1.114   .     S
C122   O200    1.413   .     S
C122   H171    1.108   .     S
C122   H170    1.109   .     S
C123   O200    1.388   .     S
C123   N175    1.368   .     A
C123   C138    1.422   .     A
C124   H173    1.109   .     S
C124   O178    1.411   .     S
C124   H144    1.111   .     S
C124   H174    1.115   .     S
C125   H147    1.114   .     S
C125   H145    1.109   .     S
C125   O179    1.413   .     S
C125   H146    1.108   .     S
C126   H150    1.111   .     S
C126   H149    1.115   .     S
C126   O180    1.411   .     S
C126   H148    1.109   .     S
C127   O181    1.223   .     D
C127   O182    1.399   .     S
C128   O184    1.399   .     S
C128   O183    1.223   .     D
C129   O185    1.223   .     D
C129   O186    1.399   .     S
C130   O189    1.399   .     S
C130   O187    1.223   .     D
C131   O190    1.409   .     S
C131   H157    1.112   .     S
C131   H356    1.108   1_545 S
C131   H358    1.108   1_545 S
C132   H161    1.109   .     S
C132   H160    1.114   .     S
C132   O191    1.411   .     S
C132   H359    1.111   .     S
C133   H163    1.112   .     S
C133   O192    1.409   .     S
C133   H362    1.108   1_545 S
C133   H364    1.108   1_545 S
C134   C139    1.416   .     A
C134   O178    1.378   .     S
C134   N176    1.363   .     A
C135   O193    1.411   .     S
C135   H167    1.114   .     S
C135   H168    1.109   .     S
C135   H366    1.111   .     S
C136   C140    1.422   .     A
C136   N175    1.368   .     A
C136   O179    1.388   .     S
C137   O180    1.378   .     S
C137   N176    1.363   .     A
C138   O190    1.380   .     S
C139   O191    1.383   .     S
C140   O192    1.380   .     S
Cu141  Cu142   2.686   .     S
Cu141  O177    1.972   .     S
Cu141  O196    1.939   .     S
Cu141  O194    1.972   .     S
Cu141  N176    2.017   .     S
Cu141  O198    1.939   .     S
Cu142  O197    1.939   .     S
Cu142  N175    2.017   .     S
Cu142  O195    1.972   .     S
Cu142  O188    1.972   .     S
Cu142  O199    1.939   .     S
H151   O182    1.013   .     S
H152   O184    1.014   .     S
H153   O186    1.013   .     S
H155   O189    1.014   .     S
H156   C331    1.108   .     S
H158   C331    1.108   .     S
H159   C332    1.111   1_545 S
H162   C333    1.108   .     S
H164   C333    1.108   .     S
H166   C335    1.111   1_545 S
C201   O277    1.304   .     A
C201   O295    1.301   .     A
C201   C218    1.490   .     S
C202   O293    1.382   .     S
C202   C206    1.423   .     A
C202   C237    1.416   .     A
C203   C207    1.413   .     S
C203   O296    1.291   .     A
C203   O299    1.291   .     A
C204   O298    1.291   .     A
C204   C208    1.413   .     S
C204   O297    1.291   .     A
C205   C240    1.422   .     A
C205   C238    1.422   .     A
C206   C239    1.423   .     A
C206   C5      1.531   1_565 S
C207   C1008   1.193   1_554 S
C208   C607    1.193   .     S
C209   H243    1.084   .     S
C209   C214    1.387   .     A
C209   C220    1.395   .     A
C210   C215    1.404   .     A
C210   C221    1.395   .     A
C210   H254    1.084   .     S
C211   C221    1.395   .     A
C211   C216    1.387   .     A
C211   H265    1.084   .     S
C212   O294    1.304   .     A
C212   O288    1.301   .     A
C212   C219    1.490   .     S
C213   C220    1.395   .     A
C213   C217    1.404   .     A
C213   H269    1.084   .     S
C214   C218    1.421   .     A
C214   C227    1.476   .     S
C215   C219    1.430   .     A
C215   C228    1.485   .     S
C216   C229    1.476   .     S
C216   C219    1.421   .     A
C217   C230    1.485   .     S
C217   C218    1.430   .     A
C220   C321    1.474   1_455 S
C221   C320    1.474   .     S
C222   H272    1.114   .     S
C222   O300    1.413   .     S
C222   H271    1.108   .     S
C222   H270    1.109   .     S
C223   O300    1.388   .     S
C223   N275    1.368   .     A
C223   C238    1.422   .     A
C224   H273    1.109   .     S
C224   O278    1.411   .     S
C224   H244    1.111   .     S
C224   H274    1.115   .     S
C225   H247    1.114   .     S
C225   H245    1.109   .     S
C225   O279    1.413   .     S
C225   H246    1.108   .     S
C226   H250    1.111   .     S
C226   H249    1.115   .     S
C226   O280    1.411   .     S
C226   H248    1.109   .     S
C227   O281    1.223   .     D
C227   O282    1.399   .     S
C228   O284    1.399   .     S
C228   O283    1.223   .     D
C229   O285    1.223   .     D
C229   O286    1.399   .     S
C230   O289    1.399   .     S
C230   O287    1.223   .     D
C231   O290    1.409   .     S
C231   H257    1.112   .     S
C232   H261    1.109   .     S
C232   H260    1.114   .     S
C232   O291    1.411   .     S
C232   H59     1.111   1_565 S
C233   H263    1.112   .     S
C233   O292    1.409   .     S
C234   C239    1.416   .     A
C234   O278    1.378   .     S
C234   N276    1.363   .     A
C235   O293    1.411   .     S
C235   H267    1.114   .     S
C235   H268    1.109   .     S
C235   H66     1.111   1_565 S
C236   C240    1.422   .     A
C236   N275    1.368   .     A
C236   O279    1.388   .     S
C237   O280    1.378   .     S
C237   N276    1.363   .     A
C238   O290    1.380   .     S
C239   O291    1.383   .     S
C240   O292    1.380   .     S
Cu241  Cu242   2.686   .     S
Cu241  O277    1.972   .     S
Cu241  O296    1.939   .     S
Cu241  O294    1.972   .     S
Cu241  N276    2.017   .     S
Cu241  O298    1.939   .     S
Cu242  O297    1.939   .     S
Cu242  N275    2.017   .     S
Cu242  O295    1.972   .     S
Cu242  O288    1.972   .     S
Cu242  O299    1.939   .     S
H251   O282    1.013   .     S
H252   O284    1.014   .     S
H253   O286    1.013   .     S
H255   O289    1.014   .     S
H256   C31     1.108   1_565 S
H258   C31     1.108   1_565 S
H262   C33     1.108   1_565 S
H264   C33     1.108   1_565 S
C301   O377    1.304   .     A
C301   O395    1.301   .     A
C301   C318    1.490   .     S
C302   O393    1.382   .     S
C302   C306    1.423   .     A
C302   C337    1.416   .     A
C303   C307    1.413   .     S
C303   O396    1.291   .     A
C303   O399    1.291   .     A
C304   O398    1.291   .     A
C304   C308    1.413   .     S
C304   O397    1.291   .     A
C305   C340    1.422   .     A
C305   C338    1.422   .     A
C306   C339    1.423   .     A
C306   C105    1.531   1_565 S
C307   C1108   1.193   1_554 S
C308   C707    1.193   .     S
C309   H343    1.084   .     S
C309   C314    1.387   .     A
C309   C320    1.395   .     A
C310   C315    1.404   .     A
C310   C321    1.395   .     A
C310   H354    1.084   .     S
C311   C321    1.395   .     A
C311   C316    1.387   .     A
C311   H365    1.084   .     S
C312   O394    1.304   .     A
C312   O388    1.301   .     A
C312   C319    1.490   .     S
C313   C320    1.395   .     A
C313   C317    1.404   .     A
C313   H369    1.084   .     S
C314   C318    1.421   .     A
C314   C327    1.476   .     S
C315   C319    1.430   .     A
C315   C328    1.485   .     S
C316   C329    1.476   .     S
C316   C319    1.421   .     A
C317   C330    1.485   .     S
C317   C318    1.430   .     A
C321   C220    1.474   1_655 S
C322   H372    1.114   .     S
C322   O400    1.413   .     S
C322   H371    1.108   .     S
C322   H370    1.109   .     S
C323   O400    1.388   .     S
C323   N375    1.368   .     A
C323   C338    1.422   .     A
C324   H373    1.109   .     S
C324   O378    1.411   .     S
C324   H344    1.111   .     S
C324   H374    1.115   .     S
C325   H347    1.114   .     S
C325   H345    1.109   .     S
C325   O379    1.413   .     S
C325   H346    1.108   .     S
C326   H350    1.111   .     S
C326   H349    1.115   .     S
C326   O380    1.411   .     S
C326   H348    1.109   .     S
C327   O381    1.223   .     D
C327   O382    1.399   .     S
C328   O384    1.399   .     S
C328   O383    1.223   .     D
C329   O385    1.223   .     D
C329   O386    1.399   .     S
C330   O389    1.399   .     S
C330   O387    1.223   .     D
C331   O390    1.409   .     S
C331   H357    1.112   .     S
C332   H361    1.109   .     S
C332   H360    1.114   .     S
C332   O391    1.411   .     S
C332   H159    1.111   1_565 S
C333   H363    1.112   .     S
C333   O392    1.409   .     S
C334   C339    1.416   .     A
C334   O378    1.378   .     S
C334   N376    1.363   .     A
C335   O393    1.411   .     S
C335   H367    1.114   .     S
C335   H368    1.109   .     S
C335   H166    1.111   1_565 S
C336   C340    1.422   .     A
C336   N375    1.368   .     A
C336   O379    1.388   .     S
C337   O380    1.378   .     S
C337   N376    1.363   .     A
C338   O390    1.380   .     S
C339   O391    1.383   .     S
C340   O392    1.380   .     S
Cu341  Cu342   2.686   .     S
Cu341  O377    1.972   .     S
Cu341  O396    1.939   .     S
Cu341  O394    1.972   .     S
Cu341  N376    2.017   .     S
Cu341  O398    1.939   .     S
Cu342  O397    1.939   .     S
Cu342  N375    2.017   .     S
Cu342  O395    1.972   .     S
Cu342  O388    1.972   .     S
Cu342  O399    1.939   .     S
H351   O382    1.013   .     S
H352   O384    1.014   .     S
H353   O386    1.013   .     S
H355   O389    1.014   .     S
H356   C131    1.108   1_565 S
H358   C131    1.108   1_565 S
H362   C133    1.108   1_565 S
H364   C133    1.108   1_565 S
C401   O477    1.304   .     A
C401   O495    1.301   .     A
C401   C418    1.490   .     S
C402   O493    1.382   .     S
C402   C406    1.423   .     A
C402   C437    1.416   .     A
C403   C407    1.413   .     S
C403   O496    1.291   .     A
C403   O499    1.291   .     A
C404   O498    1.291   .     A
C404   C408    1.413   .     S
C404   O497    1.291   .     A
C405   C440    1.422   .     A
C405   C438    1.422   .     A
C405   C606    1.531   1_545 S
C406   C439    1.423   .     A
C406   C605    1.531   .     S
C408   C807    1.193   .     S
C409   H443    1.084   .     S
C409   C414    1.387   .     A
C409   C420    1.395   .     A
C410   C415    1.404   .     A
C410   C421    1.395   .     A
C410   H454    1.084   .     S
C411   C421    1.395   .     A
C411   C416    1.387   .     A
C411   H465    1.084   .     S
C412   O494    1.304   .     A
C412   O488    1.301   .     A
C412   C419    1.490   .     S
C413   C420    1.395   .     A
C413   C417    1.404   .     A
C413   H469    1.084   .     S
C414   C418    1.421   .     A
C414   C427    1.476   .     S
C415   C419    1.430   .     A
C415   C428    1.485   .     S
C416   C429    1.476   .     S
C416   C419    1.421   .     A
C417   C430    1.485   .     S
C417   C418    1.430   .     A
C420   C521    1.474   1_455 S
C421   C520    1.474   .     S
C422   H472    1.114   .     S
C422   O500    1.413   .     S
C422   H471    1.108   .     S
C422   H470    1.109   .     S
C423   O500    1.388   .     S
C423   N475    1.368   .     A
C423   C438    1.422   .     A
C424   H473    1.109   .     S
C424   O478    1.411   .     S
C424   H444    1.111   .     S
C424   H474    1.115   .     S
C425   H447    1.114   .     S
C425   H445    1.109   .     S
C425   O479    1.413   .     S
C425   H446    1.108   .     S
C426   H450    1.111   .     S
C426   H449    1.115   .     S
C426   O480    1.411   .     S
C426   H448    1.109   .     S
C427   O481    1.223   .     D
C427   O482    1.399   .     S
C428   O484    1.399   .     S
C428   O483    1.223   .     D
C429   O485    1.223   .     D
C429   O486    1.399   .     S
C430   O489    1.399   .     S
C430   O487    1.223   .     D
C431   O490    1.409   .     S
C431   H457    1.112   .     S
C431   H656    1.108   1_545 S
C431   H658    1.108   1_545 S
C432   H461    1.109   .     S
C432   H460    1.114   .     S
C432   O491    1.411   .     S
C432   H659    1.111   .     S
C433   H463    1.112   .     S
C433   O492    1.409   .     S
C433   H662    1.108   1_545 S
C433   H664    1.108   1_545 S
C434   C439    1.416   .     A
C434   O478    1.378   .     S
C434   N476    1.363   .     A
C435   O493    1.411   .     S
C435   H467    1.114   .     S
C435   H468    1.109   .     S
C435   H666    1.111   .     S
C436   C440    1.422   .     A
C436   N475    1.368   .     A
C436   O479    1.388   .     S
C437   O480    1.378   .     S
C437   N476    1.363   .     A
C438   O490    1.380   .     S
C439   O491    1.383   .     S
C440   O492    1.380   .     S
Cu441  Cu442   2.686   .     S
Cu441  O477    1.972   .     S
Cu441  O496    1.939   .     S
Cu441  O494    1.972   .     S
Cu441  N476    2.017   .     S
Cu441  O498    1.939   .     S
Cu442  O497    1.939   .     S
Cu442  N475    2.017   .     S
Cu442  O495    1.972   .     S
Cu442  O488    1.972   .     S
Cu442  O499    1.939   .     S
H451   O482    1.013   .     S
H452   O484    1.014   .     S
H453   O486    1.013   .     S
H455   O489    1.014   .     S
H456   C631    1.108   .     S
H458   C631    1.108   .     S
H459   C632    1.111   1_545 S
H462   C633    1.108   .     S
H464   C633    1.108   .     S
H466   C635    1.111   1_545 S
C501   O577    1.304   .     A
C501   O595    1.301   .     A
C501   C518    1.490   .     S
C502   O593    1.382   .     S
C502   C506    1.423   .     A
C502   C537    1.416   .     A
C503   C507    1.413   .     S
C503   O596    1.291   .     A
C503   O599    1.291   .     A
C504   O598    1.291   .     A
C504   C508    1.413   .     S
C504   O597    1.291   .     A
C505   C540    1.422   .     A
C505   C538    1.422   .     A
C505   C706    1.531   1_545 S
C506   C539    1.423   .     A
C506   C705    1.531   .     S
C508   C907    1.193   .     S
C509   H543    1.084   .     S
C509   C514    1.387   .     A
C509   C520    1.395   .     A
C510   C515    1.404   .     A
C510   C521    1.395   .     A
C510   H554    1.084   .     S
C511   C521    1.395   .     A
C511   C516    1.387   .     A
C511   H565    1.084   .     S
C512   O594    1.304   .     A
C512   O588    1.301   .     A
C512   C519    1.490   .     S
C513   C520    1.395   .     A
C513   C517    1.404   .     A
C513   H569    1.084   .     S
C514   C518    1.421   .     A
C514   C527    1.476   .     S
C515   C519    1.430   .     A
C515   C528    1.485   .     S
C516   C529    1.476   .     S
C516   C519    1.421   .     A
C517   C530    1.485   .     S
C517   C518    1.430   .     A
C521   C420    1.474   1_655 S
C522   H572    1.114   .     S
C522   O600    1.413   .     S
C522   H571    1.108   .     S
C522   H570    1.109   .     S
C523   O600    1.388   .     S
C523   N575    1.368   .     A
C523   C538    1.422   .     A
C524   H573    1.109   .     S
C524   O578    1.411   .     S
C524   H544    1.111   .     S
C524   H574    1.115   .     S
C525   H547    1.114   .     S
C525   H545    1.109   .     S
C525   O579    1.413   .     S
C525   H546    1.108   .     S
C526   H550    1.111   .     S
C526   H549    1.115   .     S
C526   O580    1.411   .     S
C526   H548    1.109   .     S
C527   O581    1.223   .     D
C527   O582    1.399   .     S
C528   O584    1.399   .     S
C528   O583    1.223   .     D
C529   O585    1.223   .     D
C529   O586    1.399   .     S
C530   O589    1.399   .     S
C530   O587    1.223   .     D
C531   O590    1.409   .     S
C531   H557    1.112   .     S
C531   H756    1.108   1_545 S
C531   H758    1.108   1_545 S
C532   H561    1.109   .     S
C532   H560    1.114   .     S
C532   O591    1.411   .     S
C532   H759    1.111   .     S
C533   H563    1.112   .     S
C533   O592    1.409   .     S
C533   H762    1.108   1_545 S
C533   H764    1.108   1_545 S
C534   C539    1.416   .     A
C534   O578    1.378   .     S
C534   N576    1.363   .     A
C535   O593    1.411   .     S
C535   H567    1.114   .     S
C535   H568    1.109   .     S
C535   H766    1.111   .     S
C536   C540    1.422   .     A
C536   N575    1.368   .     A
C536   O579    1.388   .     S
C537   O580    1.378   .     S
C537   N576    1.363   .     A
C538   O590    1.380   .     S
C539   O591    1.383   .     S
C540   O592    1.380   .     S
Cu541  Cu542   2.686   .     S
Cu541  O577    1.972   .     S
Cu541  O596    1.939   .     S
Cu541  O594    1.972   .     S
Cu541  N576    2.017   .     S
Cu541  O598    1.939   .     S
Cu542  O597    1.939   .     S
Cu542  N575    2.017   .     S
Cu542  O595    1.972   .     S
Cu542  O588    1.972   .     S
Cu542  O599    1.939   .     S
H551   O582    1.013   .     S
H552   O584    1.014   .     S
H553   O586    1.013   .     S
H555   O589    1.014   .     S
H556   C731    1.108   .     S
H558   C731    1.108   .     S
H559   C732    1.111   1_545 S
H562   C733    1.108   .     S
H564   C733    1.108   .     S
H566   C735    1.111   1_545 S
C601   O677    1.304   .     A
C601   O695    1.301   .     A
C601   C618    1.490   .     S
C602   O693    1.382   .     S
C602   C606    1.423   .     A
C602   C637    1.416   .     A
C603   C607    1.413   .     S
C603   O696    1.291   .     A
C603   O699    1.291   .     A
C604   O698    1.291   .     A
C604   C608    1.413   .     S
C604   O697    1.291   .     A
C605   C640    1.422   .     A
C605   C638    1.422   .     A
C606   C639    1.423   .     A
C606   C405    1.531   1_565 S
C608   C1007   1.193   .     S
C609   H643    1.084   .     S
C609   C614    1.387   .     A
C609   C620    1.395   .     A
C610   C615    1.404   .     A
C610   C621    1.395   .     A
C610   H654    1.084   .     S
C611   C621    1.395   .     A
C611   C616    1.387   .     A
C611   H665    1.084   .     S
C612   O694    1.304   .     A
C612   O688    1.301   .     A
C612   C619    1.490   .     S
C613   C620    1.395   .     A
C613   C617    1.404   .     A
C613   H669    1.084   .     S
C614   C618    1.421   .     A
C614   C627    1.476   .     S
C615   C619    1.430   .     A
C615   C628    1.485   .     S
C616   C629    1.476   .     S
C616   C619    1.421   .     A
C617   C630    1.485   .     S
C617   C618    1.430   .     A
C620   C721    1.474   1_455 S
C621   C720    1.474   .     S
C622   H672    1.114   .     S
C622   O700    1.413   .     S
C622   H671    1.108   .     S
C622   H670    1.109   .     S
C623   O700    1.388   .     S
C623   N675    1.368   .     A
C623   C638    1.422   .     A
C624   H673    1.109   .     S
C624   O678    1.411   .     S
C624   H644    1.111   .     S
C624   H674    1.115   .     S
C625   H647    1.114   .     S
C625   H645    1.109   .     S
C625   O679    1.413   .     S
C625   H646    1.108   .     S
C626   H650    1.111   .     S
C626   H649    1.115   .     S
C626   O680    1.411   .     S
C626   H648    1.109   .     S
C627   O681    1.223   .     D
C627   O682    1.399   .     S
C628   O684    1.399   .     S
C628   O683    1.223   .     D
C629   O685    1.223   .     D
C629   O686    1.399   .     S
C630   O689    1.399   .     S
C630   O687    1.223   .     D
C631   O690    1.409   .     S
C631   H657    1.112   .     S
C632   H661    1.109   .     S
C632   H660    1.114   .     S
C632   O691    1.411   .     S
C632   H459    1.111   1_565 S
C633   H663    1.112   .     S
C633   O692    1.409   .     S
C634   C639    1.416   .     A
C634   O678    1.378   .     S
C634   N676    1.363   .     A
C635   O693    1.411   .     S
C635   H667    1.114   .     S
C635   H668    1.109   .     S
C635   H466    1.111   1_565 S
C636   C640    1.422   .     A
C636   N675    1.368   .     A
C636   O679    1.388   .     S
C637   O680    1.378   .     S
C637   N676    1.363   .     A
C638   O690    1.380   .     S
C639   O691    1.383   .     S
C640   O692    1.380   .     S
Cu641  Cu642   2.686   .     S
Cu641  O677    1.972   .     S
Cu641  O696    1.939   .     S
Cu641  O694    1.972   .     S
Cu641  N676    2.017   .     S
Cu641  O698    1.939   .     S
Cu642  O697    1.939   .     S
Cu642  N675    2.017   .     S
Cu642  O695    1.972   .     S
Cu642  O688    1.972   .     S
Cu642  O699    1.939   .     S
H651   O682    1.013   .     S
H652   O684    1.014   .     S
H653   O686    1.013   .     S
H655   O689    1.014   .     S
H656   C431    1.108   1_565 S
H658   C431    1.108   1_565 S
H662   C433    1.108   1_565 S
H664   C433    1.108   1_565 S
C701   O777    1.304   .     A
C701   O795    1.301   .     A
C701   C718    1.490   .     S
C702   O793    1.382   .     S
C702   C706    1.423   .     A
C702   C737    1.416   .     A
C703   C707    1.413   .     S
C703   O796    1.291   .     A
C703   O799    1.291   .     A
C704   O798    1.291   .     A
C704   C708    1.413   .     S
C704   O797    1.291   .     A
C705   C740    1.422   .     A
C705   C738    1.422   .     A
C706   C739    1.423   .     A
C706   C505    1.531   1_565 S
C708   C1107   1.193   .     S
C709   H743    1.084   .     S
C709   C714    1.387   .     A
C709   C720    1.395   .     A
C710   C715    1.404   .     A
C710   C721    1.395   .     A
C710   H754    1.084   .     S
C711   C721    1.395   .     A
C711   C716    1.387   .     A
C711   H765    1.084   .     S
C712   O794    1.304   .     A
C712   O788    1.301   .     A
C712   C719    1.490   .     S
C713   C720    1.395   .     A
C713   C717    1.404   .     A
C713   H769    1.084   .     S
C714   C718    1.421   .     A
C714   C727    1.476   .     S
C715   C719    1.430   .     A
C715   C728    1.485   .     S
C716   C729    1.476   .     S
C716   C719    1.421   .     A
C717   C730    1.485   .     S
C717   C718    1.430   .     A
C721   C620    1.474   1_655 S
C722   H772    1.114   .     S
C722   O800    1.413   .     S
C722   H771    1.108   .     S
C722   H770    1.109   .     S
C723   O800    1.388   .     S
C723   N775    1.368   .     A
C723   C738    1.422   .     A
C724   H773    1.109   .     S
C724   O778    1.411   .     S
C724   H744    1.111   .     S
C724   H774    1.115   .     S
C725   H747    1.114   .     S
C725   H745    1.109   .     S
C725   O779    1.413   .     S
C725   H746    1.108   .     S
C726   H750    1.111   .     S
C726   H749    1.115   .     S
C726   O780    1.411   .     S
C726   H748    1.109   .     S
C727   O781    1.223   .     D
C727   O782    1.399   .     S
C728   O784    1.399   .     S
C728   O783    1.223   .     D
C729   O785    1.223   .     D
C729   O786    1.399   .     S
C730   O789    1.399   .     S
C730   O787    1.223   .     D
C731   O790    1.409   .     S
C731   H757    1.112   .     S
C732   H761    1.109   .     S
C732   H760    1.114   .     S
C732   O791    1.411   .     S
C732   H559    1.111   1_565 S
C733   H763    1.112   .     S
C733   O792    1.409   .     S
C734   C739    1.416   .     A
C734   O778    1.378   .     S
C734   N776    1.363   .     A
C735   O793    1.411   .     S
C735   H767    1.114   .     S
C735   H768    1.109   .     S
C735   H566    1.111   1_565 S
C736   C740    1.422   .     A
C736   N775    1.368   .     A
C736   O779    1.388   .     S
C737   O780    1.378   .     S
C737   N776    1.363   .     A
C738   O790    1.380   .     S
C739   O791    1.383   .     S
C740   O792    1.380   .     S
Cu741  Cu742   2.686   .     S
Cu741  O777    1.972   .     S
Cu741  O796    1.939   .     S
Cu741  O794    1.972   .     S
Cu741  N776    2.017   .     S
Cu741  O798    1.939   .     S
Cu742  O797    1.939   .     S
Cu742  N775    2.017   .     S
Cu742  O795    1.972   .     S
Cu742  O788    1.972   .     S
Cu742  O799    1.939   .     S
H751   O782    1.013   .     S
H752   O784    1.014   .     S
H753   O786    1.013   .     S
H755   O789    1.014   .     S
H756   C531    1.108   1_565 S
H758   C531    1.108   1_565 S
H762   C533    1.108   1_565 S
H764   C533    1.108   1_565 S
C801   O877    1.304   .     A
C801   O895    1.301   .     A
C801   C818    1.490   .     S
C802   O893    1.382   .     S
C802   C806    1.423   .     A
C802   C837    1.416   .     A
C803   C807    1.413   .     S
C803   O896    1.291   .     A
C803   O899    1.291   .     A
C804   O898    1.291   .     A
C804   C808    1.413   .     S
C804   O897    1.291   .     A
C805   C840    1.422   .     A
C805   C838    1.422   .     A
C805   C1006   1.531   1_545 S
C806   C839    1.423   .     A
C806   C1005   1.531   .     S
C808   C7      1.193   1_556 S
C809   H843    1.084   .     S
C809   C814    1.387   .     A
C809   C820    1.395   .     A
C810   C815    1.404   .     A
C810   C821    1.395   .     A
C810   H854    1.084   .     S
C811   C821    1.395   .     A
C811   C816    1.387   .     A
C811   H865    1.084   .     S
C812   O894    1.304   .     A
C812   O888    1.301   .     A
C812   C819    1.490   .     S
C813   C820    1.395   .     A
C813   C817    1.404   .     A
C813   H869    1.084   .     S
C814   C818    1.421   .     A
C814   C827    1.476   .     S
C815   C819    1.430   .     A
C815   C828    1.485   .     S
C816   C829    1.476   .     S
C816   C819    1.421   .     A
C817   C830    1.485   .     S
C817   C818    1.430   .     A
C820   C921    1.474   1_455 S
C821   C920    1.474   .     S
C822   H872    1.114   .     S
C822   O900    1.413   .     S
C822   H871    1.108   .     S
C822   H870    1.109   .     S
C823   O900    1.388   .     S
C823   N875    1.368   .     A
C823   C838    1.422   .     A
C824   H873    1.109   .     S
C824   O878    1.411   .     S
C824   H844    1.111   .     S
C824   H874    1.115   .     S
C825   H847    1.114   .     S
C825   H845    1.109   .     S
C825   O879    1.413   .     S
C825   H846    1.108   .     S
C826   H850    1.111   .     S
C826   H849    1.115   .     S
C826   O880    1.411   .     S
C826   H848    1.109   .     S
C827   O881    1.223   .     D
C827   O882    1.399   .     S
C828   O884    1.399   .     S
C828   O883    1.223   .     D
C829   O885    1.223   .     D
C829   O886    1.399   .     S
C830   O889    1.399   .     S
C830   O887    1.223   .     D
C831   O890    1.409   .     S
C831   H857    1.112   .     S
C831   H1056   1.108   1_545 S
C831   H1058   1.108   1_545 S
C832   H861    1.109   .     S
C832   H860    1.114   .     S
C832   O891    1.411   .     S
C832   H1059   1.111   .     S
C833   H863    1.112   .     S
C833   O892    1.409   .     S
C833   H1062   1.108   1_545 S
C833   H1064   1.108   1_545 S
C834   C839    1.416   .     A
C834   O878    1.378   .     S
C834   N876    1.363   .     A
C835   O893    1.411   .     S
C835   H867    1.114   .     S
C835   H868    1.109   .     S
C835   H1066   1.111   .     S
C836   C840    1.422   .     A
C836   N875    1.368   .     A
C836   O879    1.388   .     S
C837   O880    1.378   .     S
C837   N876    1.363   .     A
C838   O890    1.380   .     S
C839   O891    1.383   .     S
C840   O892    1.380   .     S
Cu841  Cu842   2.686   .     S
Cu841  O877    1.972   .     S
Cu841  O896    1.939   .     S
Cu841  O894    1.972   .     S
Cu841  N876    2.017   .     S
Cu841  O898    1.939   .     S
Cu842  O897    1.939   .     S
Cu842  N875    2.017   .     S
Cu842  O895    1.972   .     S
Cu842  O888    1.972   .     S
Cu842  O899    1.939   .     S
H851   O882    1.013   .     S
H852   O884    1.014   .     S
H853   O886    1.013   .     S
H855   O889    1.014   .     S
H856   C1031   1.108   .     S
H858   C1031   1.108   .     S
H859   C1032   1.111   1_545 S
H862   C1033   1.108   .     S
H864   C1033   1.108   .     S
H866   C1035   1.111   1_545 S
C901   O977    1.304   .     A
C901   O995    1.301   .     A
C901   C918    1.490   .     S
C902   O993    1.382   .     S
C902   C906    1.423   .     A
C902   C937    1.416   .     A
C903   C907    1.413   .     S
C903   O996    1.291   .     A
C903   O999    1.291   .     A
C904   O998    1.291   .     A
C904   C908    1.413   .     S
C904   O997    1.291   .     A
C905   C940    1.422   .     A
C905   C938    1.422   .     A
C905   C1106   1.531   1_545 S
C906   C939    1.423   .     A
C906   C1105   1.531   .     S
C908   C107    1.193   1_556 S
C909   H943    1.084   .     S
C909   C914    1.387   .     A
C909   C920    1.395   .     A
C910   C915    1.404   .     A
C910   C921    1.395   .     A
C910   H954    1.084   .     S
C911   C921    1.395   .     A
C911   C916    1.387   .     A
C911   H965    1.084   .     S
C912   O994    1.304   .     A
C912   O988    1.301   .     A
C912   C919    1.490   .     S
C913   C920    1.395   .     A
C913   C917    1.404   .     A
C913   H969    1.084   .     S
C914   C918    1.421   .     A
C914   C927    1.476   .     S
C915   C919    1.430   .     A
C915   C928    1.485   .     S
C916   C929    1.476   .     S
C916   C919    1.421   .     A
C917   C930    1.485   .     S
C917   C918    1.430   .     A
C921   C820    1.474   1_655 S
C922   H972    1.114   .     S
C922   O1000   1.413   .     S
C922   H971    1.108   .     S
C922   H970    1.109   .     S
C923   O1000   1.388   .     S
C923   N975    1.368   .     A
C923   C938    1.422   .     A
C924   H973    1.109   .     S
C924   O978    1.411   .     S
C924   H944    1.111   .     S
C924   H974    1.115   .     S
C925   H947    1.114   .     S
C925   H945    1.109   .     S
C925   O979    1.413   .     S
C925   H946    1.108   .     S
C926   H950    1.111   .     S
C926   H949    1.115   .     S
C926   O980    1.411   .     S
C926   H948    1.109   .     S
C927   O981    1.223   .     D
C927   O982    1.399   .     S
C928   O984    1.399   .     S
C928   O983    1.223   .     D
C929   O985    1.223   .     D
C929   O986    1.399   .     S
C930   O989    1.399   .     S
C930   O987    1.223   .     D
C931   O990    1.409   .     S
C931   H957    1.112   .     S
C931   H1156   1.108   1_545 S
C931   H1158   1.108   1_545 S
C932   H961    1.109   .     S
C932   H960    1.114   .     S
C932   O991    1.411   .     S
C932   H1159   1.111   .     S
C933   H963    1.112   .     S
C933   O992    1.409   .     S
C933   H1162   1.108   1_545 S
C933   H1164   1.108   1_545 S
C934   C939    1.416   .     A
C934   O978    1.378   .     S
C934   N976    1.363   .     A
C935   O993    1.411   .     S
C935   H967    1.114   .     S
C935   H968    1.109   .     S
C935   H1166   1.111   .     S
C936   C940    1.422   .     A
C936   N975    1.368   .     A
C936   O979    1.388   .     S
C937   O980    1.378   .     S
C937   N976    1.363   .     A
C938   O990    1.380   .     S
C939   O991    1.383   .     S
C940   O992    1.380   .     S
Cu941  Cu942   2.686   .     S
Cu941  O977    1.972   .     S
Cu941  O996    1.939   .     S
Cu941  O994    1.972   .     S
Cu941  N976    2.017   .     S
Cu941  O998    1.939   .     S
Cu942  O997    1.939   .     S
Cu942  N975    2.017   .     S
Cu942  O995    1.972   .     S
Cu942  O988    1.972   .     S
Cu942  O999    1.939   .     S
H951   O982    1.013   .     S
H952   O984    1.014   .     S
H953   O986    1.013   .     S
H955   O989    1.014   .     S
H956   C1131   1.108   .     S
H958   C1131   1.108   .     S
H959   C1132   1.111   1_545 S
H962   C1133   1.108   .     S
H964   C1133   1.108   .     S
H966   C1135   1.111   1_545 S
C1001  O1077   1.304   .     A
C1001  O1095   1.301   .     A
C1001  C1018   1.490   .     S
C1002  O1093   1.382   .     S
C1002  C1006   1.423   .     A
C1002  C1037   1.416   .     A
C1003  C1007   1.413   .     S
C1003  O1096   1.291   .     A
C1003  O1099   1.291   .     A
C1004  O1098   1.291   .     A
C1004  C1008   1.413   .     S
C1004  O1097   1.291   .     A
C1005  C1040   1.422   .     A
C1005  C1038   1.422   .     A
C1006  C1039   1.423   .     A
C1006  C805    1.531   1_565 S
C1008  C207    1.193   1_556 S
C1009  H1043   1.084   .     S
C1009  C1014   1.387   .     A
C1009  C1020   1.395   .     A
C1010  C1015   1.404   .     A
C1010  C1021   1.395   .     A
C1010  H1054   1.084   .     S
C1011  C1021   1.395   .     A
C1011  C1016   1.387   .     A
C1011  H1065   1.084   .     S
C1012  O1094   1.304   .     A
C1012  O1088   1.301   .     A
C1012  C1019   1.490   .     S
C1013  C1020   1.395   .     A
C1013  C1017   1.404   .     A
C1013  H1069   1.084   .     S
C1014  C1018   1.421   .     A
C1014  C1027   1.476   .     S
C1015  C1019   1.430   .     A
C1015  C1028   1.485   .     S
C1016  C1029   1.476   .     S
C1016  C1019   1.421   .     A
C1017  C1030   1.485   .     S
C1017  C1018   1.430   .     A
C1020  C1121   1.474   1_455 S
C1021  C1120   1.474   .     S
C1022  H1072   1.114   .     S
C1022  O1100   1.413   .     S
C1022  H1071   1.108   .     S
C1022  H1070   1.109   .     S
C1023  O1100   1.388   .     S
C1023  N1075   1.368   .     A
C1023  C1038   1.422   .     A
C1024  H1073   1.109   .     S
C1024  O1078   1.411   .     S
C1024  H1044   1.111   .     S
C1024  H1074   1.115   .     S
C1025  H1047   1.114   .     S
C1025  H1045   1.109   .     S
C1025  O1079   1.413   .     S
C1025  H1046   1.108   .     S
C1026  H1050   1.111   .     S
C1026  H1049   1.115   .     S
C1026  O1080   1.411   .     S
C1026  H1048   1.109   .     S
C1027  O1081   1.223   .     D
C1027  O1082   1.399   .     S
C1028  O1084   1.399   .     S
C1028  O1083   1.223   .     D
C1029  O1085   1.223   .     D
C1029  O1086   1.399   .     S
C1030  O1089   1.399   .     S
C1030  O1087   1.223   .     D
C1031  O1090   1.409   .     S
C1031  H1057   1.112   .     S
C1032  H1061   1.109   .     S
C1032  H1060   1.114   .     S
C1032  O1091   1.411   .     S
C1032  H859    1.111   1_565 S
C1033  H1063   1.112   .     S
C1033  O1092   1.409   .     S
C1034  C1039   1.416   .     A
C1034  O1078   1.378   .     S
C1034  N1076   1.363   .     A
C1035  O1093   1.411   .     S
C1035  H1067   1.114   .     S
C1035  H1068   1.109   .     S
C1035  H866    1.111   1_565 S
C1036  C1040   1.422   .     A
C1036  N1075   1.368   .     A
C1036  O1079   1.388   .     S
C1037  O1080   1.378   .     S
C1037  N1076   1.363   .     A
C1038  O1090   1.380   .     S
C1039  O1091   1.383   .     S
C1040  O1092   1.380   .     S
Cu1041 Cu1042  2.686   .     S
Cu1041 O1077   1.972   .     S
Cu1041 O1096   1.939   .     S
Cu1041 O1094   1.972   .     S
Cu1041 N1076   2.017   .     S
Cu1041 O1098   1.939   .     S
Cu1042 O1097   1.939   .     S
Cu1042 N1075   2.017   .     S
Cu1042 O1095   1.972   .     S
Cu1042 O1088   1.972   .     S
Cu1042 O1099   1.939   .     S
H1051  O1082   1.013   .     S
H1052  O1084   1.014   .     S
H1053  O1086   1.013   .     S
H1055  O1089   1.014   .     S
H1056  C831    1.108   1_565 S
H1058  C831    1.108   1_565 S
H1062  C833    1.108   1_565 S
H1064  C833    1.108   1_565 S
C1101  O1177   1.304   .     A
C1101  O1195   1.301   .     A
C1101  C1118   1.490   .     S
C1102  O1193   1.382   .     S
C1102  C1106   1.423   .     A
C1102  C1137   1.416   .     A
C1103  C1107   1.413   .     S
C1103  O1196   1.291   .     A
C1103  O1199   1.291   .     A
C1104  O1198   1.291   .     A
C1104  C1108   1.413   .     S
C1104  O1197   1.291   .     A
C1105  C1140   1.422   .     A
C1105  C1138   1.422   .     A
C1106  C1139   1.423   .     A
C1106  C905    1.531   1_565 S
C1108  C307    1.193   1_556 S
C1109  H1143   1.084   .     S
C1109  C1114   1.387   .     A
C1109  C1120   1.395   .     A
C1110  C1115   1.404   .     A
C1110  C1121   1.395   .     A
C1110  H1154   1.084   .     S
C1111  C1121   1.395   .     A
C1111  C1116   1.387   .     A
C1111  H1165   1.084   .     S
C1112  O1194   1.304   .     A
C1112  O1188   1.301   .     A
C1112  C1119   1.490   .     S
C1113  C1120   1.395   .     A
C1113  C1117   1.404   .     A
C1113  H1169   1.084   .     S
C1114  C1118   1.421   .     A
C1114  C1127   1.476   .     S
C1115  C1119   1.430   .     A
C1115  C1128   1.485   .     S
C1116  C1129   1.476   .     S
C1116  C1119   1.421   .     A
C1117  C1130   1.485   .     S
C1117  C1118   1.430   .     A
C1121  C1020   1.474   1_655 S
C1122  H1172   1.114   .     S
C1122  O1200   1.413   .     S
C1122  H1171   1.108   .     S
C1122  H1170   1.109   .     S
C1123  O1200   1.388   .     S
C1123  N1175   1.368   .     A
C1123  C1138   1.422   .     A
C1124  H1173   1.109   .     S
C1124  O1178   1.411   .     S
C1124  H1144   1.111   .     S
C1124  H1174   1.115   .     S
C1125  H1147   1.114   .     S
C1125  H1145   1.109   .     S
C1125  O1179   1.413   .     S
C1125  H1146   1.108   .     S
C1126  H1150   1.111   .     S
C1126  H1149   1.115   .     S
C1126  O1180   1.411   .     S
C1126  H1148   1.109   .     S
C1127  O1181   1.223   .     D
C1127  O1182   1.399   .     S
C1128  O1184   1.399   .     S
C1128  O1183   1.223   .     D
C1129  O1185   1.223   .     D
C1129  O1186   1.399   .     S
C1130  O1189   1.399   .     S
C1130  O1187   1.223   .     D
C1131  O1190   1.409   .     S
C1131  H1157   1.112   .     S
C1132  H1161   1.109   .     S
C1132  H1160   1.114   .     S
C1132  O1191   1.411   .     S
C1132  H959    1.111   1_565 S
C1133  H1163   1.112   .     S
C1133  O1192   1.409   .     S
C1134  C1139   1.416   .     A
C1134  O1178   1.378   .     S
C1134  N1176   1.363   .     A
C1135  O1193   1.411   .     S
C1135  H1167   1.114   .     S
C1135  H1168   1.109   .     S
C1135  H966    1.111   1_565 S
C1136  C1140   1.422   .     A
C1136  N1175   1.368   .     A
C1136  O1179   1.388   .     S
C1137  O1180   1.378   .     S
C1137  N1176   1.363   .     A
C1138  O1190   1.380   .     S
C1139  O1191   1.383   .     S
C1140  O1192   1.380   .     S
Cu1141 Cu1142  2.686   .     S
Cu1141 O1177   1.972   .     S
Cu1141 O1196   1.939   .     S
Cu1141 O1194   1.972   .     S
Cu1141 N1176   2.017   .     S
Cu1141 O1198   1.939   .     S
Cu1142 O1197   1.939   .     S
Cu1142 N1175   2.017   .     S
Cu1142 O1195   1.972   .     S
Cu1142 O1188   1.972   .     S
Cu1142 O1199   1.939   .     S
H1151  O1182   1.013   .     S
H1152  O1184   1.014   .     S
H1153  O1186   1.013   .     S
H1155  O1189   1.014   .     S
H1156  C931    1.108   1_565 S
H1158  C931    1.108   1_565 S
H1162  C933    1.108   1_565 S
H1164  C933    1.108   1_565 S
