data_str_m2_o1_o16_pcu_sym.39
_audit_creation_date              2020-01-03
_audit_creation_method            'Materials Studio'
_symmetry_space_group_name_H-M    'P1'
_symmetry_Int_Tables_number       1
_symmetry_cell_setting            triclinic
loop_
_symmetry_equiv_pos_as_xyz
  x,y,z
_cell_length_a                    28.5272
_cell_length_b                    32.3501
_cell_length_c                    26.9646
_cell_angle_alpha                 89.8408
_cell_angle_beta                  72.4570
_cell_angle_gamma                 90.0711
loop_
_atom_site_label
_atom_site_type_symbol
_atom_site_fract_x
_atom_site_fract_y
_atom_site_fract_z
_atom_site_U_iso_or_equiv
_atom_site_adp_type
_atom_site_occupancy
C1     C     0.16643   0.24593   0.25087   0.00000  Uiso   1.00
C2     C     0.12510   0.16830   0.40719   0.00000  Uiso   1.00
C3     C     0.19387   0.31218   0.27928   0.00000  Uiso   1.00
C4     C     0.14047   0.16542   0.35010   0.00000  Uiso   1.00
C5     C     0.19516   0.02173   0.27685   0.00000  Uiso   1.00
C6     C     0.16604   0.04283   0.25164   0.00000  Uiso   1.00
C7     C     0.13590   0.02127   0.22823   0.00000  Uiso   1.00
C8     C     0.13604   0.31188   0.22846   0.00000  Uiso   1.00
C9     C     0.16565   0.29055   0.25291   0.00000  Uiso   1.00
C10    C     0.29872   0.19014   0.28473   0.00000  Uiso   1.00
C11    C     0.01499   0.19012   0.28474   0.00000  Uiso   1.00
C12    C     0.14767   0.17300   0.48802   0.00000  Uiso   1.00
C13    C     0.03464   0.14318   0.21524   0.00000  Uiso   1.00
C14    C     0.31836   0.14326   0.21518   0.00000  Uiso   1.00
C15    C     0.16652   0.08739   0.25040   0.00000  Uiso   1.00
C16    C     0.19291   0.16642   0.15003   0.00000  Uiso   1.00
C17    C     0.26715   0.14475   0.01171   0.00000  Uiso   1.00
C18    C     0.20796   0.16400   0.09331   0.00000  Uiso   1.00
C19    C     0.08059   0.18796   0.43151   0.00000  Uiso   1.00
C20    C     0.07035   0.20217   0.48193   0.00000  Uiso   1.00
C21    C     0.10381   0.19651   0.01039   0.00000  Uiso   1.00
C22    C     0.32350   0.09272   0.49593   0.00000  Uiso   1.00
C23    C     0.15767   0.15845   0.43616   0.00000  Uiso   1.00
C24    C     0.04282   0.08115   0.46525   0.00000  Uiso   1.00
C25    C     0.05402   0.03621   0.47461   0.00000  Uiso   1.00
C26    C     0.05195   0.21544   0.09204   0.00000  Uiso   1.00
C27    C     0.02543   0.25709   0.10229   0.00000  Uiso   1.00
C28    C     0.30839   0.25307   0.14287   0.00000  Uiso   1.00
C29    C     0.19059   0.27823   0.35511   0.00000  Uiso   1.00
C30    C     0.19133   0.30938   0.39748   0.00000  Uiso   1.00
C31    C     0.16305   0.29300   0.45137   0.00000  Uiso   1.00
C32    C     0.18313   0.16455   0.01449   0.00000  Uiso   1.00
C33    C     0.23013   0.14850   0.48704   0.00000  Uiso   1.00
C34    C     0.23792   0.13328   0.43700   0.00000  Uiso   1.00
C35    C     0.20077   0.13520   0.41388   0.00000  Uiso   1.00
C36    C     0.17205   0.16853   0.06825   0.00000  Uiso   1.00
C37    C     0.25621   0.15445   0.06452   0.00000  Uiso   1.00
Cu38   Cu    0.11978   0.16666   0.25000   0.00000  Uiso   1.00
Cu39   Cu    0.21355   0.16667   0.25000   0.00000  Uiso   1.00
H40    H     0.28460   0.15189   0.08346   0.00000  Uiso   1.00
H41    H     0.13456   0.17203   0.09180   0.00000  Uiso   1.00
H42    H     0.05520   0.19565   0.41004   0.00000  Uiso   1.00
H43    H     0.03759   0.22056   0.49739   0.00000  Uiso   1.00
H44    H     0.20683   0.11845   0.37790   0.00000  Uiso   1.00
H45    H     0.29761   0.07117   0.48520   0.00000  Uiso   1.00
H46    H     0.31939   0.08930   0.03818   0.00000  Uiso   1.00
H47    H     0.04841   0.08597   0.42300   0.00000  Uiso   1.00
H48    H     0.06884   0.10147   0.47733   0.00000  Uiso   1.00
H49    H     0.04953   0.03082   0.01650   0.00000  Uiso   1.00
H50    H     0.09255   0.02916   0.45192   0.00000  Uiso   1.00
H51    H     0.21776   0.03849   0.29593   0.00000  Uiso   1.00
H52    H     0.02917   0.01511   0.46185   0.00000  Uiso   1.00
H53    H     0.05796   0.20491   0.12889   0.00000  Uiso   1.00
H54    H     0.02804   0.19156   0.08204   0.00000  Uiso   1.00
H55    H     0.04807   0.27948   0.11644   0.00000  Uiso   1.00
H56    H     0.02069   0.26948   0.06566   0.00000  Uiso   1.00
H57    H     0.28455   0.23199   0.12862   0.00000  Uiso   1.00
H58    H     0.29053   0.28387   0.15024   0.00000  Uiso   1.00
H59    H     0.31218   0.24090   0.18003   0.00000  Uiso   1.00
H60    H     0.20528   0.24839   0.36432   0.00000  Uiso   1.00
H61    H     0.15185   0.27193   0.35591   0.00000  Uiso   1.00
H62    H     0.11321   0.03745   0.20871   0.00000  Uiso   1.00
H63    H     0.22999   0.31566   0.39621   0.00000  Uiso   1.00
H64    H     0.17450   0.00555   0.39034   0.00000  Uiso   1.00
H65    H     0.12428   0.28630   0.45353   0.00000  Uiso   1.00
H66    H     0.16335   0.31652   0.48118   0.00000  Uiso   1.00
H67    H     0.18048   0.26431   0.46008   0.00000  Uiso   1.00
H68    H     0.11369   0.29551   0.20874   0.00000  Uiso   1.00
H69    H     0.27224   0.20894   0.31253   0.00000  Uiso   1.00
H70    H     0.02584   0.20893   0.31256   0.00000  Uiso   1.00
H71    H     0.06121   0.12432   0.18742   0.00000  Uiso   1.00
H72    H     0.30753   0.12453   0.18728   0.00000  Uiso   1.00
H73    H     0.27181   0.11769   0.41657   0.00000  Uiso   1.00
N74    N     0.04931   0.16666   0.24999   0.00000  Uiso   1.00
N75    N     0.28402   0.16669   0.24999   0.00000  Uiso   1.00
O76    O     0.12708   0.22678   0.25001   0.00000  Uiso   1.00
O77    O     0.09872   0.22051   0.05443   0.00000  Uiso   1.00
O78    O     0.22150   0.29187   0.30610   0.00000  Uiso   1.00
O79    O     0.20627   0.22679   0.25001   0.00000  Uiso   1.00
O80    O     0.10775   0.16665   0.32549   0.00000  Uiso   1.00
O81    O     0.18694   0.16666   0.32549   0.00000  Uiso   1.00
O82    O     0.12706   0.10654   0.25000   0.00000  Uiso   1.00
O83    O     0.20625   0.10655   0.24999   0.00000  Uiso   1.00
O84    O     0.14640   0.16667   0.17451   0.00000  Uiso   1.00
O85    O     0.22559   0.16668   0.17451   0.00000  Uiso   1.00
O86    O     0.31457   0.13382   0.48352   0.00000  Uiso   1.00
C87    C     0.49977   0.24593   0.25087   0.00000  Uiso   1.00
C88    C     0.45844   0.16830   0.40719   0.00000  Uiso   1.00
C89    C     0.52720   0.31218   0.27928   0.00000  Uiso   1.00
C90    C     0.47380   0.16542   0.35010   0.00000  Uiso   1.00
C91    C     0.52850   0.02173   0.27685   0.00000  Uiso   1.00
C92    C     0.49938   0.04283   0.25164   0.00000  Uiso   1.00
C93    C     0.46923   0.02127   0.22823   0.00000  Uiso   1.00
C94    C     0.46937   0.31188   0.22846   0.00000  Uiso   1.00
C95    C     0.49898   0.29055   0.25291   0.00000  Uiso   1.00
C96    C     0.63206   0.19014   0.28473   0.00000  Uiso   1.00
C97    C     0.34833   0.19012   0.28474   0.00000  Uiso   1.00
C98    C     0.48101   0.17300   0.48802   0.00000  Uiso   1.00
C99    C     0.36797   0.14318   0.21524   0.00000  Uiso   1.00
C100   C     0.65169   0.14326   0.21518   0.00000  Uiso   1.00
C101   C     0.49985   0.08739   0.25040   0.00000  Uiso   1.00
C102   C     0.52624   0.16642   0.15003   0.00000  Uiso   1.00
C103   C     0.60048   0.14475   0.01171   0.00000  Uiso   1.00
C104   C     0.54130   0.16400   0.09331   0.00000  Uiso   1.00
C105   C     0.41392   0.18796   0.43151   0.00000  Uiso   1.00
C106   C     0.40369   0.20217   0.48193   0.00000  Uiso   1.00
C107   C     0.43714   0.19651   0.01039   0.00000  Uiso   1.00
C108   C     0.65683   0.09272   0.49593   0.00000  Uiso   1.00
C109   C     0.49100   0.15845   0.43616   0.00000  Uiso   1.00
C110   C     0.37615   0.08115   0.46525   0.00000  Uiso   1.00
C111   C     0.38735   0.03621   0.47461   0.00000  Uiso   1.00
C112   C     0.38528   0.21544   0.09204   0.00000  Uiso   1.00
C113   C     0.35877   0.25709   0.10229   0.00000  Uiso   1.00
C114   C     0.64172   0.25307   0.14287   0.00000  Uiso   1.00
C115   C     0.52392   0.27823   0.35511   0.00000  Uiso   1.00
C116   C     0.52466   0.30938   0.39748   0.00000  Uiso   1.00
C117   C     0.49638   0.29300   0.45137   0.00000  Uiso   1.00
C118   C     0.51646   0.16455   0.01449   0.00000  Uiso   1.00
C119   C     0.56346   0.14850   0.48704   0.00000  Uiso   1.00
C120   C     0.57126   0.13328   0.43700   0.00000  Uiso   1.00
C121   C     0.53410   0.13520   0.41388   0.00000  Uiso   1.00
C122   C     0.50539   0.16853   0.06825   0.00000  Uiso   1.00
C123   C     0.58955   0.15445   0.06452   0.00000  Uiso   1.00
Cu124  Cu    0.45311   0.16666   0.25000   0.00000  Uiso   1.00
Cu125  Cu    0.54689   0.16667   0.25000   0.00000  Uiso   1.00
H126   H     0.61794   0.15189   0.08346   0.00000  Uiso   1.00
H127   H     0.46790   0.17203   0.09180   0.00000  Uiso   1.00
H128   H     0.38853   0.19565   0.41004   0.00000  Uiso   1.00
H129   H     0.37092   0.22056   0.49739   0.00000  Uiso   1.00
H130   H     0.54016   0.11845   0.37790   0.00000  Uiso   1.00
H131   H     0.63095   0.07117   0.48520   0.00000  Uiso   1.00
H132   H     0.65272   0.08930   0.03818   0.00000  Uiso   1.00
H133   H     0.38175   0.08597   0.42300   0.00000  Uiso   1.00
H134   H     0.40217   0.10147   0.47733   0.00000  Uiso   1.00
H135   H     0.38287   0.03082   0.01650   0.00000  Uiso   1.00
H136   H     0.42588   0.02916   0.45192   0.00000  Uiso   1.00
H137   H     0.55110   0.03849   0.29593   0.00000  Uiso   1.00
H138   H     0.36250   0.01511   0.46185   0.00000  Uiso   1.00
H139   H     0.39129   0.20491   0.12889   0.00000  Uiso   1.00
H140   H     0.36138   0.19156   0.08204   0.00000  Uiso   1.00
H141   H     0.38141   0.27948   0.11644   0.00000  Uiso   1.00
H142   H     0.35403   0.26948   0.06566   0.00000  Uiso   1.00
H143   H     0.61789   0.23199   0.12862   0.00000  Uiso   1.00
H144   H     0.62386   0.28387   0.15024   0.00000  Uiso   1.00
H145   H     0.64551   0.24090   0.18003   0.00000  Uiso   1.00
H146   H     0.53861   0.24839   0.36432   0.00000  Uiso   1.00
H147   H     0.48518   0.27193   0.35591   0.00000  Uiso   1.00
H148   H     0.44655   0.03745   0.20871   0.00000  Uiso   1.00
H149   H     0.56333   0.31566   0.39621   0.00000  Uiso   1.00
H150   H     0.50783   0.00555   0.39034   0.00000  Uiso   1.00
H151   H     0.45761   0.28630   0.45353   0.00000  Uiso   1.00
H152   H     0.49668   0.31652   0.48118   0.00000  Uiso   1.00
H153   H     0.51382   0.26431   0.46008   0.00000  Uiso   1.00
H154   H     0.44703   0.29551   0.20874   0.00000  Uiso   1.00
H155   H     0.60558   0.20894   0.31253   0.00000  Uiso   1.00
H156   H     0.35918   0.20893   0.31256   0.00000  Uiso   1.00
H157   H     0.39454   0.12432   0.18742   0.00000  Uiso   1.00
H158   H     0.64086   0.12453   0.18728   0.00000  Uiso   1.00
H159   H     0.60515   0.11769   0.41657   0.00000  Uiso   1.00
N160   N     0.38265   0.16666   0.24999   0.00000  Uiso   1.00
N161   N     0.61735   0.16669   0.24999   0.00000  Uiso   1.00
O162   O     0.46042   0.22678   0.25001   0.00000  Uiso   1.00
O163   O     0.43206   0.22051   0.05443   0.00000  Uiso   1.00
O164   O     0.55483   0.29187   0.30610   0.00000  Uiso   1.00
O165   O     0.53961   0.22679   0.25001   0.00000  Uiso   1.00
O166   O     0.44108   0.16665   0.32549   0.00000  Uiso   1.00
O167   O     0.52027   0.16666   0.32549   0.00000  Uiso   1.00
O168   O     0.46039   0.10654   0.25000   0.00000  Uiso   1.00
O169   O     0.53958   0.10655   0.24999   0.00000  Uiso   1.00
O170   O     0.47973   0.16667   0.17451   0.00000  Uiso   1.00
O171   O     0.55892   0.16668   0.17451   0.00000  Uiso   1.00
O172   O     0.64790   0.13382   0.48352   0.00000  Uiso   1.00
C173   C     0.83310   0.24593   0.25087   0.00000  Uiso   1.00
C174   C     0.79177   0.16830   0.40719   0.00000  Uiso   1.00
C175   C     0.86053   0.31218   0.27928   0.00000  Uiso   1.00
C176   C     0.80713   0.16542   0.35010   0.00000  Uiso   1.00
C177   C     0.86183   0.02173   0.27685   0.00000  Uiso   1.00
C178   C     0.83271   0.04283   0.25164   0.00000  Uiso   1.00
C179   C     0.80257   0.02127   0.22823   0.00000  Uiso   1.00
C180   C     0.80271   0.31188   0.22846   0.00000  Uiso   1.00
C181   C     0.83231   0.29055   0.25291   0.00000  Uiso   1.00
C182   C     0.96539   0.19014   0.28473   0.00000  Uiso   1.00
C183   C     0.68166   0.19012   0.28474   0.00000  Uiso   1.00
C184   C     0.81434   0.17300   0.48802   0.00000  Uiso   1.00
C185   C     0.70131   0.14318   0.21524   0.00000  Uiso   1.00
C186   C     0.98503   0.14326   0.21518   0.00000  Uiso   1.00
C187   C     0.83319   0.08739   0.25040   0.00000  Uiso   1.00
C188   C     0.85958   0.16642   0.15003   0.00000  Uiso   1.00
C189   C     0.93382   0.14475   0.01171   0.00000  Uiso   1.00
C190   C     0.87463   0.16400   0.09331   0.00000  Uiso   1.00
C191   C     0.74725   0.18796   0.43151   0.00000  Uiso   1.00
C192   C     0.73702   0.20217   0.48193   0.00000  Uiso   1.00
C193   C     0.77047   0.19651   0.01039   0.00000  Uiso   1.00
C194   C     0.99016   0.09272   0.49593   0.00000  Uiso   1.00
C195   C     0.82433   0.15845   0.43616   0.00000  Uiso   1.00
C196   C     0.70948   0.08115   0.46525   0.00000  Uiso   1.00
C197   C     0.72069   0.03621   0.47461   0.00000  Uiso   1.00
C198   C     0.71862   0.21544   0.09204   0.00000  Uiso   1.00
C199   C     0.69210   0.25709   0.10229   0.00000  Uiso   1.00
C200   C     0.97505   0.25307   0.14287   0.00000  Uiso   1.00
C201   C     0.85725   0.27823   0.35511   0.00000  Uiso   1.00
C202   C     0.85800   0.30938   0.39748   0.00000  Uiso   1.00
C203   C     0.82972   0.29300   0.45137   0.00000  Uiso   1.00
C204   C     0.84980   0.16455   0.01449   0.00000  Uiso   1.00
C205   C     0.89680   0.14850   0.48704   0.00000  Uiso   1.00
C206   C     0.90459   0.13328   0.43700   0.00000  Uiso   1.00
C207   C     0.86744   0.13520   0.41388   0.00000  Uiso   1.00
C208   C     0.83872   0.16853   0.06825   0.00000  Uiso   1.00
C209   C     0.92288   0.15445   0.06452   0.00000  Uiso   1.00
Cu210  Cu    0.78645   0.16666   0.25000   0.00000  Uiso   1.00
Cu211  Cu    0.88022   0.16667   0.25000   0.00000  Uiso   1.00
H212   H     0.95127   0.15189   0.08346   0.00000  Uiso   1.00
H213   H     0.80123   0.17203   0.09180   0.00000  Uiso   1.00
H214   H     0.72186   0.19565   0.41004   0.00000  Uiso   1.00
H215   H     0.70426   0.22056   0.49739   0.00000  Uiso   1.00
H216   H     0.87350   0.11845   0.37790   0.00000  Uiso   1.00
H217   H     0.96428   0.07117   0.48520   0.00000  Uiso   1.00
H218   H     0.98606   0.08930   0.03818   0.00000  Uiso   1.00
H219   H     0.71508   0.08597   0.42300   0.00000  Uiso   1.00
H220   H     0.73551   0.10147   0.47733   0.00000  Uiso   1.00
H221   H     0.71620   0.03082   0.01650   0.00000  Uiso   1.00
H222   H     0.75922   0.02916   0.45192   0.00000  Uiso   1.00
H223   H     0.88443   0.03849   0.29593   0.00000  Uiso   1.00
H224   H     0.69584   0.01511   0.46185   0.00000  Uiso   1.00
H225   H     0.72463   0.20491   0.12889   0.00000  Uiso   1.00
H226   H     0.69471   0.19156   0.08204   0.00000  Uiso   1.00
H227   H     0.71474   0.27948   0.11644   0.00000  Uiso   1.00
H228   H     0.68736   0.26948   0.06566   0.00000  Uiso   1.00
H229   H     0.95122   0.23199   0.12862   0.00000  Uiso   1.00
H230   H     0.95719   0.28387   0.15024   0.00000  Uiso   1.00
H231   H     0.97885   0.24090   0.18003   0.00000  Uiso   1.00
H232   H     0.87195   0.24839   0.36432   0.00000  Uiso   1.00
H233   H     0.81852   0.27193   0.35591   0.00000  Uiso   1.00
H234   H     0.77988   0.03745   0.20871   0.00000  Uiso   1.00
H235   H     0.89666   0.31566   0.39621   0.00000  Uiso   1.00
H236   H     0.84116   0.00555   0.39034   0.00000  Uiso   1.00
H237   H     0.79094   0.28630   0.45353   0.00000  Uiso   1.00
H238   H     0.83002   0.31652   0.48118   0.00000  Uiso   1.00
H239   H     0.84715   0.26431   0.46008   0.00000  Uiso   1.00
H240   H     0.78036   0.29551   0.20874   0.00000  Uiso   1.00
H241   H     0.93891   0.20894   0.31253   0.00000  Uiso   1.00
H242   H     0.69251   0.20893   0.31256   0.00000  Uiso   1.00
H243   H     0.72787   0.12432   0.18742   0.00000  Uiso   1.00
H244   H     0.97419   0.12453   0.18728   0.00000  Uiso   1.00
H245   H     0.93848   0.11769   0.41657   0.00000  Uiso   1.00
N246   N     0.71598   0.16666   0.24999   0.00000  Uiso   1.00
N247   N     0.95069   0.16669   0.24999   0.00000  Uiso   1.00
O248   O     0.79375   0.22678   0.25001   0.00000  Uiso   1.00
O249   O     0.76539   0.22051   0.05443   0.00000  Uiso   1.00
O250   O     0.88816   0.29187   0.30610   0.00000  Uiso   1.00
O251   O     0.87294   0.22679   0.25001   0.00000  Uiso   1.00
O252   O     0.77441   0.16665   0.32549   0.00000  Uiso   1.00
O253   O     0.85360   0.16666   0.32549   0.00000  Uiso   1.00
O254   O     0.79373   0.10654   0.25000   0.00000  Uiso   1.00
O255   O     0.87292   0.10655   0.24999   0.00000  Uiso   1.00
O256   O     0.81306   0.16667   0.17451   0.00000  Uiso   1.00
O257   O     0.89225   0.16668   0.17451   0.00000  Uiso   1.00
O258   O     0.98124   0.13382   0.48352   0.00000  Uiso   1.00
C259   C     0.16643   0.57927   0.25087   0.00000  Uiso   1.00
C260   C     0.12510   0.50164   0.40719   0.00000  Uiso   1.00
C261   C     0.19387   0.64551   0.27928   0.00000  Uiso   1.00
C262   C     0.14047   0.49876   0.35010   0.00000  Uiso   1.00
C263   C     0.19516   0.35506   0.27685   0.00000  Uiso   1.00
C264   C     0.16604   0.37616   0.25164   0.00000  Uiso   1.00
C265   C     0.13590   0.35460   0.22823   0.00000  Uiso   1.00
C266   C     0.13604   0.64521   0.22846   0.00000  Uiso   1.00
C267   C     0.16565   0.62388   0.25291   0.00000  Uiso   1.00
C268   C     0.29872   0.52347   0.28473   0.00000  Uiso   1.00
C269   C     0.01499   0.52346   0.28474   0.00000  Uiso   1.00
C270   C     0.14767   0.50634   0.48802   0.00000  Uiso   1.00
C271   C     0.03464   0.47651   0.21524   0.00000  Uiso   1.00
C272   C     0.31836   0.47659   0.21518   0.00000  Uiso   1.00
C273   C     0.16652   0.42072   0.25040   0.00000  Uiso   1.00
C274   C     0.19291   0.49975   0.15003   0.00000  Uiso   1.00
C275   C     0.26715   0.47808   0.01171   0.00000  Uiso   1.00
C276   C     0.20796   0.49733   0.09331   0.00000  Uiso   1.00
C277   C     0.08059   0.52129   0.43151   0.00000  Uiso   1.00
C278   C     0.07035   0.53550   0.48193   0.00000  Uiso   1.00
C279   C     0.10381   0.52985   0.01039   0.00000  Uiso   1.00
C280   C     0.32350   0.42605   0.49593   0.00000  Uiso   1.00
C281   C     0.15767   0.49178   0.43616   0.00000  Uiso   1.00
C282   C     0.04282   0.41448   0.46525   0.00000  Uiso   1.00
C283   C     0.05402   0.36955   0.47461   0.00000  Uiso   1.00
C284   C     0.05195   0.54877   0.09204   0.00000  Uiso   1.00
C285   C     0.02543   0.59043   0.10229   0.00000  Uiso   1.00
C286   C     0.30839   0.58640   0.14287   0.00000  Uiso   1.00
C287   C     0.19059   0.61156   0.35511   0.00000  Uiso   1.00
C288   C     0.19133   0.64272   0.39748   0.00000  Uiso   1.00
C289   C     0.16305   0.62633   0.45137   0.00000  Uiso   1.00
C290   C     0.18313   0.49789   0.01449   0.00000  Uiso   1.00
C291   C     0.23013   0.48184   0.48704   0.00000  Uiso   1.00
C292   C     0.23792   0.46661   0.43700   0.00000  Uiso   1.00
C293   C     0.20077   0.46853   0.41388   0.00000  Uiso   1.00
C294   C     0.17205   0.50186   0.06825   0.00000  Uiso   1.00
C295   C     0.25621   0.48778   0.06452   0.00000  Uiso   1.00
Cu296  Cu    0.11978   0.49999   0.25000   0.00000  Uiso   1.00
Cu297  Cu    0.21355   0.50001   0.25000   0.00000  Uiso   1.00
H298   H     0.28460   0.48522   0.08346   0.00000  Uiso   1.00
H299   H     0.13456   0.50536   0.09180   0.00000  Uiso   1.00
H300   H     0.05520   0.52898   0.41004   0.00000  Uiso   1.00
H301   H     0.03759   0.55390   0.49739   0.00000  Uiso   1.00
H302   H     0.20683   0.45178   0.37790   0.00000  Uiso   1.00
H303   H     0.29761   0.40450   0.48520   0.00000  Uiso   1.00
H304   H     0.31939   0.42263   0.03818   0.00000  Uiso   1.00
H305   H     0.04841   0.41931   0.42300   0.00000  Uiso   1.00
H306   H     0.06884   0.43480   0.47733   0.00000  Uiso   1.00
H307   H     0.04953   0.36416   0.01650   0.00000  Uiso   1.00
H308   H     0.09255   0.36249   0.45192   0.00000  Uiso   1.00
H309   H     0.21776   0.37183   0.29593   0.00000  Uiso   1.00
H310   H     0.02917   0.34845   0.46185   0.00000  Uiso   1.00
H311   H     0.05796   0.53825   0.12889   0.00000  Uiso   1.00
H312   H     0.02804   0.52489   0.08204   0.00000  Uiso   1.00
H313   H     0.04807   0.61281   0.11644   0.00000  Uiso   1.00
H314   H     0.02069   0.60281   0.06566   0.00000  Uiso   1.00
H315   H     0.28455   0.56532   0.12862   0.00000  Uiso   1.00
H316   H     0.29053   0.61720   0.15024   0.00000  Uiso   1.00
H317   H     0.31218   0.57424   0.18003   0.00000  Uiso   1.00
H318   H     0.20528   0.58172   0.36432   0.00000  Uiso   1.00
H319   H     0.15185   0.60527   0.35591   0.00000  Uiso   1.00
H320   H     0.11321   0.37078   0.20871   0.00000  Uiso   1.00
H321   H     0.22999   0.64899   0.39621   0.00000  Uiso   1.00
H322   H     0.17450   0.33888   0.39034   0.00000  Uiso   1.00
H323   H     0.12428   0.61964   0.45353   0.00000  Uiso   1.00
H324   H     0.16335   0.64985   0.48118   0.00000  Uiso   1.00
H325   H     0.18048   0.59764   0.46008   0.00000  Uiso   1.00
H326   H     0.11369   0.62884   0.20874   0.00000  Uiso   1.00
H327   H     0.27224   0.54228   0.31253   0.00000  Uiso   1.00
H328   H     0.02584   0.54226   0.31256   0.00000  Uiso   1.00
H329   H     0.06121   0.45766   0.18742   0.00000  Uiso   1.00
H330   H     0.30753   0.45787   0.18728   0.00000  Uiso   1.00
H331   H     0.27181   0.45102   0.41657   0.00000  Uiso   1.00
N332   N     0.04931   0.49999   0.24999   0.00000  Uiso   1.00
N333   N     0.28402   0.50002   0.24999   0.00000  Uiso   1.00
O334   O     0.12708   0.56011   0.25001   0.00000  Uiso   1.00
O335   O     0.09872   0.55384   0.05443   0.00000  Uiso   1.00
O336   O     0.22150   0.62520   0.30610   0.00000  Uiso   1.00
O337   O     0.20627   0.56012   0.25001   0.00000  Uiso   1.00
O338   O     0.10775   0.49998   0.32549   0.00000  Uiso   1.00
O339   O     0.18694   0.49999   0.32549   0.00000  Uiso   1.00
O340   O     0.12706   0.43988   0.25000   0.00000  Uiso   1.00
O341   O     0.20625   0.43989   0.24999   0.00000  Uiso   1.00
O342   O     0.14640   0.50001   0.17451   0.00000  Uiso   1.00
O343   O     0.22559   0.50002   0.17451   0.00000  Uiso   1.00
O344   O     0.31457   0.46715   0.48352   0.00000  Uiso   1.00
C345   C     0.49977   0.57927   0.25087   0.00000  Uiso   1.00
C346   C     0.45844   0.50164   0.40719   0.00000  Uiso   1.00
C347   C     0.52720   0.64551   0.27928   0.00000  Uiso   1.00
C348   C     0.47380   0.49876   0.35010   0.00000  Uiso   1.00
C349   C     0.52850   0.35506   0.27685   0.00000  Uiso   1.00
C350   C     0.49938   0.37616   0.25164   0.00000  Uiso   1.00
C351   C     0.46923   0.35460   0.22823   0.00000  Uiso   1.00
C352   C     0.46937   0.64521   0.22846   0.00000  Uiso   1.00
C353   C     0.49898   0.62388   0.25291   0.00000  Uiso   1.00
C354   C     0.63206   0.52347   0.28473   0.00000  Uiso   1.00
C355   C     0.34833   0.52346   0.28474   0.00000  Uiso   1.00
C356   C     0.48101   0.50634   0.48802   0.00000  Uiso   1.00
C357   C     0.36797   0.47651   0.21524   0.00000  Uiso   1.00
C358   C     0.65169   0.47659   0.21518   0.00000  Uiso   1.00
C359   C     0.49985   0.42072   0.25040   0.00000  Uiso   1.00
C360   C     0.52624   0.49975   0.15003   0.00000  Uiso   1.00
C361   C     0.60048   0.47808   0.01171   0.00000  Uiso   1.00
C362   C     0.54130   0.49733   0.09331   0.00000  Uiso   1.00
C363   C     0.41392   0.52129   0.43151   0.00000  Uiso   1.00
C364   C     0.40369   0.53550   0.48193   0.00000  Uiso   1.00
C365   C     0.43714   0.52985   0.01039   0.00000  Uiso   1.00
C366   C     0.65683   0.42605   0.49593   0.00000  Uiso   1.00
C367   C     0.49100   0.49178   0.43616   0.00000  Uiso   1.00
C368   C     0.37615   0.41448   0.46525   0.00000  Uiso   1.00
C369   C     0.38735   0.36955   0.47461   0.00000  Uiso   1.00
C370   C     0.38528   0.54877   0.09204   0.00000  Uiso   1.00
C371   C     0.35877   0.59043   0.10229   0.00000  Uiso   1.00
C372   C     0.64172   0.58640   0.14287   0.00000  Uiso   1.00
C373   C     0.52392   0.61156   0.35511   0.00000  Uiso   1.00
C374   C     0.52466   0.64272   0.39748   0.00000  Uiso   1.00
C375   C     0.49638   0.62633   0.45137   0.00000  Uiso   1.00
C376   C     0.51646   0.49789   0.01449   0.00000  Uiso   1.00
C377   C     0.56346   0.48184   0.48704   0.00000  Uiso   1.00
C378   C     0.57126   0.46661   0.43700   0.00000  Uiso   1.00
C379   C     0.53410   0.46853   0.41388   0.00000  Uiso   1.00
C380   C     0.50539   0.50186   0.06825   0.00000  Uiso   1.00
C381   C     0.58955   0.48778   0.06452   0.00000  Uiso   1.00
Cu382  Cu    0.45311   0.49999   0.25000   0.00000  Uiso   1.00
Cu383  Cu    0.54689   0.50001   0.25000   0.00000  Uiso   1.00
H384   H     0.61794   0.48522   0.08346   0.00000  Uiso   1.00
H385   H     0.46790   0.50536   0.09180   0.00000  Uiso   1.00
H386   H     0.38853   0.52898   0.41004   0.00000  Uiso   1.00
H387   H     0.37092   0.55390   0.49739   0.00000  Uiso   1.00
H388   H     0.54016   0.45178   0.37790   0.00000  Uiso   1.00
H389   H     0.63095   0.40450   0.48520   0.00000  Uiso   1.00
H390   H     0.65272   0.42263   0.03818   0.00000  Uiso   1.00
H391   H     0.38175   0.41931   0.42300   0.00000  Uiso   1.00
H392   H     0.40217   0.43480   0.47733   0.00000  Uiso   1.00
H393   H     0.38287   0.36416   0.01650   0.00000  Uiso   1.00
H394   H     0.42588   0.36249   0.45192   0.00000  Uiso   1.00
H395   H     0.55110   0.37183   0.29593   0.00000  Uiso   1.00
H396   H     0.36250   0.34845   0.46185   0.00000  Uiso   1.00
H397   H     0.39129   0.53825   0.12889   0.00000  Uiso   1.00
H398   H     0.36138   0.52489   0.08204   0.00000  Uiso   1.00
H399   H     0.38141   0.61281   0.11644   0.00000  Uiso   1.00
H400   H     0.35403   0.60281   0.06566   0.00000  Uiso   1.00
H401   H     0.61789   0.56532   0.12862   0.00000  Uiso   1.00
H402   H     0.62386   0.61720   0.15024   0.00000  Uiso   1.00
H403   H     0.64551   0.57424   0.18003   0.00000  Uiso   1.00
H404   H     0.53861   0.58172   0.36432   0.00000  Uiso   1.00
H405   H     0.48518   0.60527   0.35591   0.00000  Uiso   1.00
H406   H     0.44655   0.37078   0.20871   0.00000  Uiso   1.00
H407   H     0.56333   0.64899   0.39621   0.00000  Uiso   1.00
H408   H     0.50783   0.33888   0.39034   0.00000  Uiso   1.00
H409   H     0.45761   0.61964   0.45353   0.00000  Uiso   1.00
H410   H     0.49668   0.64985   0.48118   0.00000  Uiso   1.00
H411   H     0.51382   0.59764   0.46008   0.00000  Uiso   1.00
H412   H     0.44703   0.62884   0.20874   0.00000  Uiso   1.00
H413   H     0.60558   0.54228   0.31253   0.00000  Uiso   1.00
H414   H     0.35918   0.54226   0.31256   0.00000  Uiso   1.00
H415   H     0.39454   0.45766   0.18742   0.00000  Uiso   1.00
H416   H     0.64086   0.45787   0.18728   0.00000  Uiso   1.00
H417   H     0.60515   0.45102   0.41657   0.00000  Uiso   1.00
N418   N     0.38265   0.49999   0.24999   0.00000  Uiso   1.00
N419   N     0.61735   0.50002   0.24999   0.00000  Uiso   1.00
O420   O     0.46042   0.56011   0.25001   0.00000  Uiso   1.00
O421   O     0.43206   0.55384   0.05443   0.00000  Uiso   1.00
O422   O     0.55483   0.62520   0.30610   0.00000  Uiso   1.00
O423   O     0.53961   0.56012   0.25001   0.00000  Uiso   1.00
O424   O     0.44108   0.49998   0.32549   0.00000  Uiso   1.00
O425   O     0.52027   0.49999   0.32549   0.00000  Uiso   1.00
O426   O     0.46039   0.43988   0.25000   0.00000  Uiso   1.00
O427   O     0.53958   0.43989   0.24999   0.00000  Uiso   1.00
O428   O     0.47973   0.50001   0.17451   0.00000  Uiso   1.00
O429   O     0.55892   0.50002   0.17451   0.00000  Uiso   1.00
O430   O     0.64790   0.46715   0.48352   0.00000  Uiso   1.00
C431   C     0.83310   0.57927   0.25087   0.00000  Uiso   1.00
C432   C     0.79177   0.50164   0.40719   0.00000  Uiso   1.00
C433   C     0.86053   0.64551   0.27928   0.00000  Uiso   1.00
C434   C     0.80713   0.49876   0.35010   0.00000  Uiso   1.00
C435   C     0.86183   0.35506   0.27685   0.00000  Uiso   1.00
C436   C     0.83271   0.37616   0.25164   0.00000  Uiso   1.00
C437   C     0.80257   0.35460   0.22823   0.00000  Uiso   1.00
C438   C     0.80271   0.64521   0.22846   0.00000  Uiso   1.00
C439   C     0.83231   0.62388   0.25291   0.00000  Uiso   1.00
C440   C     0.96539   0.52347   0.28473   0.00000  Uiso   1.00
C441   C     0.68166   0.52346   0.28474   0.00000  Uiso   1.00
C442   C     0.81434   0.50634   0.48802   0.00000  Uiso   1.00
C443   C     0.70131   0.47651   0.21524   0.00000  Uiso   1.00
C444   C     0.98503   0.47659   0.21518   0.00000  Uiso   1.00
C445   C     0.83319   0.42072   0.25040   0.00000  Uiso   1.00
C446   C     0.85958   0.49975   0.15003   0.00000  Uiso   1.00
C447   C     0.93382   0.47808   0.01171   0.00000  Uiso   1.00
C448   C     0.87463   0.49733   0.09331   0.00000  Uiso   1.00
C449   C     0.74725   0.52129   0.43151   0.00000  Uiso   1.00
C450   C     0.73702   0.53550   0.48193   0.00000  Uiso   1.00
C451   C     0.77047   0.52985   0.01039   0.00000  Uiso   1.00
C452   C     0.99016   0.42605   0.49593   0.00000  Uiso   1.00
C453   C     0.82433   0.49178   0.43616   0.00000  Uiso   1.00
C454   C     0.70948   0.41448   0.46525   0.00000  Uiso   1.00
C455   C     0.72069   0.36955   0.47461   0.00000  Uiso   1.00
C456   C     0.71862   0.54877   0.09204   0.00000  Uiso   1.00
C457   C     0.69210   0.59043   0.10229   0.00000  Uiso   1.00
C458   C     0.97505   0.58640   0.14287   0.00000  Uiso   1.00
C459   C     0.85725   0.61156   0.35511   0.00000  Uiso   1.00
C460   C     0.85800   0.64272   0.39748   0.00000  Uiso   1.00
C461   C     0.82972   0.62633   0.45137   0.00000  Uiso   1.00
C462   C     0.84980   0.49789   0.01449   0.00000  Uiso   1.00
C463   C     0.89680   0.48184   0.48704   0.00000  Uiso   1.00
C464   C     0.90459   0.46661   0.43700   0.00000  Uiso   1.00
C465   C     0.86744   0.46853   0.41388   0.00000  Uiso   1.00
C466   C     0.83872   0.50186   0.06825   0.00000  Uiso   1.00
C467   C     0.92288   0.48778   0.06452   0.00000  Uiso   1.00
Cu468  Cu    0.78645   0.49999   0.25000   0.00000  Uiso   1.00
Cu469  Cu    0.88022   0.50001   0.25000   0.00000  Uiso   1.00
H470   H     0.95127   0.48522   0.08346   0.00000  Uiso   1.00
H471   H     0.80123   0.50536   0.09180   0.00000  Uiso   1.00
H472   H     0.72186   0.52898   0.41004   0.00000  Uiso   1.00
H473   H     0.70426   0.55390   0.49739   0.00000  Uiso   1.00
H474   H     0.87350   0.45178   0.37790   0.00000  Uiso   1.00
H475   H     0.96428   0.40450   0.48520   0.00000  Uiso   1.00
H476   H     0.98606   0.42263   0.03818   0.00000  Uiso   1.00
H477   H     0.71508   0.41931   0.42300   0.00000  Uiso   1.00
H478   H     0.73551   0.43480   0.47733   0.00000  Uiso   1.00
H479   H     0.71620   0.36416   0.01650   0.00000  Uiso   1.00
H480   H     0.75922   0.36249   0.45192   0.00000  Uiso   1.00
H481   H     0.88443   0.37183   0.29593   0.00000  Uiso   1.00
H482   H     0.69584   0.34845   0.46185   0.00000  Uiso   1.00
H483   H     0.72463   0.53825   0.12889   0.00000  Uiso   1.00
H484   H     0.69471   0.52489   0.08204   0.00000  Uiso   1.00
H485   H     0.71474   0.61281   0.11644   0.00000  Uiso   1.00
H486   H     0.68736   0.60281   0.06566   0.00000  Uiso   1.00
H487   H     0.95122   0.56532   0.12862   0.00000  Uiso   1.00
H488   H     0.95719   0.61720   0.15024   0.00000  Uiso   1.00
H489   H     0.97885   0.57424   0.18003   0.00000  Uiso   1.00
H490   H     0.87195   0.58172   0.36432   0.00000  Uiso   1.00
H491   H     0.81852   0.60527   0.35591   0.00000  Uiso   1.00
H492   H     0.77988   0.37078   0.20871   0.00000  Uiso   1.00
H493   H     0.89666   0.64899   0.39621   0.00000  Uiso   1.00
H494   H     0.84116   0.33888   0.39034   0.00000  Uiso   1.00
H495   H     0.79094   0.61964   0.45353   0.00000  Uiso   1.00
H496   H     0.83002   0.64985   0.48118   0.00000  Uiso   1.00
H497   H     0.84715   0.59764   0.46008   0.00000  Uiso   1.00
H498   H     0.78036   0.62884   0.20874   0.00000  Uiso   1.00
H499   H     0.93891   0.54228   0.31253   0.00000  Uiso   1.00
H500   H     0.69251   0.54226   0.31256   0.00000  Uiso   1.00
H501   H     0.72787   0.45766   0.18742   0.00000  Uiso   1.00
H502   H     0.97419   0.45787   0.18728   0.00000  Uiso   1.00
H503   H     0.93848   0.45102   0.41657   0.00000  Uiso   1.00
N504   N     0.71598   0.49999   0.24999   0.00000  Uiso   1.00
N505   N     0.95069   0.50002   0.24999   0.00000  Uiso   1.00
O506   O     0.79375   0.56011   0.25001   0.00000  Uiso   1.00
O507   O     0.76539   0.55384   0.05443   0.00000  Uiso   1.00
O508   O     0.88816   0.62520   0.30610   0.00000  Uiso   1.00
O509   O     0.87294   0.56012   0.25001   0.00000  Uiso   1.00
O510   O     0.77441   0.49998   0.32549   0.00000  Uiso   1.00
O511   O     0.85360   0.49999   0.32549   0.00000  Uiso   1.00
O512   O     0.79373   0.43988   0.25000   0.00000  Uiso   1.00
O513   O     0.87292   0.43989   0.24999   0.00000  Uiso   1.00
O514   O     0.81306   0.50001   0.17451   0.00000  Uiso   1.00
O515   O     0.89225   0.50002   0.17451   0.00000  Uiso   1.00
O516   O     0.98124   0.46715   0.48352   0.00000  Uiso   1.00
C517   C     0.16643   0.91260   0.25087   0.00000  Uiso   1.00
C518   C     0.12510   0.83497   0.40719   0.00000  Uiso   1.00
C519   C     0.19387   0.97884   0.27928   0.00000  Uiso   1.00
C520   C     0.14047   0.83209   0.35010   0.00000  Uiso   1.00
C521   C     0.19516   0.68839   0.27685   0.00000  Uiso   1.00
C522   C     0.16604   0.70949   0.25164   0.00000  Uiso   1.00
C523   C     0.13590   0.68794   0.22823   0.00000  Uiso   1.00
C524   C     0.13604   0.97855   0.22846   0.00000  Uiso   1.00
C525   C     0.16565   0.95722   0.25291   0.00000  Uiso   1.00
C526   C     0.29872   0.85680   0.28473   0.00000  Uiso   1.00
C527   C     0.01499   0.85679   0.28474   0.00000  Uiso   1.00
C528   C     0.14767   0.83967   0.48802   0.00000  Uiso   1.00
C529   C     0.03464   0.80984   0.21524   0.00000  Uiso   1.00
C530   C     0.31836   0.80992   0.21518   0.00000  Uiso   1.00
C531   C     0.16652   0.75406   0.25040   0.00000  Uiso   1.00
C532   C     0.19291   0.83309   0.15003   0.00000  Uiso   1.00
C533   C     0.26715   0.81141   0.01171   0.00000  Uiso   1.00
C534   C     0.20796   0.83067   0.09331   0.00000  Uiso   1.00
C535   C     0.08059   0.85462   0.43151   0.00000  Uiso   1.00
C536   C     0.07035   0.86884   0.48193   0.00000  Uiso   1.00
C537   C     0.10381   0.86318   0.01039   0.00000  Uiso   1.00
C538   C     0.32350   0.75939   0.49593   0.00000  Uiso   1.00
C539   C     0.15767   0.82512   0.43616   0.00000  Uiso   1.00
C540   C     0.04282   0.74782   0.46525   0.00000  Uiso   1.00
C541   C     0.05402   0.70288   0.47461   0.00000  Uiso   1.00
C542   C     0.05195   0.88211   0.09204   0.00000  Uiso   1.00
C543   C     0.02543   0.92376   0.10229   0.00000  Uiso   1.00
C544   C     0.30839   0.91974   0.14287   0.00000  Uiso   1.00
C545   C     0.19059   0.94490   0.35511   0.00000  Uiso   1.00
C546   C     0.19133   0.97605   0.39748   0.00000  Uiso   1.00
C547   C     0.16305   0.95967   0.45137   0.00000  Uiso   1.00
C548   C     0.18313   0.83122   0.01449   0.00000  Uiso   1.00
C549   C     0.23013   0.81517   0.48704   0.00000  Uiso   1.00
C550   C     0.23792   0.79994   0.43700   0.00000  Uiso   1.00
C551   C     0.20077   0.80187   0.41388   0.00000  Uiso   1.00
C552   C     0.17205   0.83520   0.06825   0.00000  Uiso   1.00
C553   C     0.25621   0.82111   0.06452   0.00000  Uiso   1.00
Cu554  Cu    0.11978   0.83333   0.25000   0.00000  Uiso   1.00
Cu555  Cu    0.21355   0.83334   0.25000   0.00000  Uiso   1.00
H556   H     0.28460   0.81855   0.08346   0.00000  Uiso   1.00
H557   H     0.13456   0.83870   0.09180   0.00000  Uiso   1.00
H558   H     0.05520   0.86232   0.41004   0.00000  Uiso   1.00
H559   H     0.03759   0.88723   0.49739   0.00000  Uiso   1.00
H560   H     0.20683   0.78512   0.37790   0.00000  Uiso   1.00
H561   H     0.29761   0.73784   0.48520   0.00000  Uiso   1.00
H562   H     0.31939   0.75597   0.03818   0.00000  Uiso   1.00
H563   H     0.04841   0.75264   0.42300   0.00000  Uiso   1.00
H564   H     0.06884   0.76813   0.47733   0.00000  Uiso   1.00
H565   H     0.04953   0.69749   0.01650   0.00000  Uiso   1.00
H566   H     0.09255   0.69582   0.45192   0.00000  Uiso   1.00
H567   H     0.21776   0.70516   0.29593   0.00000  Uiso   1.00
H568   H     0.02917   0.68178   0.46185   0.00000  Uiso   1.00
H569   H     0.05796   0.87158   0.12889   0.00000  Uiso   1.00
H570   H     0.02804   0.85822   0.08204   0.00000  Uiso   1.00
H571   H     0.04807   0.94615   0.11644   0.00000  Uiso   1.00
H572   H     0.02069   0.93615   0.06566   0.00000  Uiso   1.00
H573   H     0.28455   0.89866   0.12862   0.00000  Uiso   1.00
H574   H     0.29053   0.95053   0.15024   0.00000  Uiso   1.00
H575   H     0.31218   0.90757   0.18003   0.00000  Uiso   1.00
H576   H     0.20528   0.91505   0.36432   0.00000  Uiso   1.00
H577   H     0.15185   0.93860   0.35591   0.00000  Uiso   1.00
H578   H     0.11321   0.70412   0.20871   0.00000  Uiso   1.00
H579   H     0.22999   0.98233   0.39621   0.00000  Uiso   1.00
H580   H     0.17450   0.67221   0.39034   0.00000  Uiso   1.00
H581   H     0.12428   0.95297   0.45353   0.00000  Uiso   1.00
H582   H     0.16335   0.98318   0.48118   0.00000  Uiso   1.00
H583   H     0.18048   0.93098   0.46008   0.00000  Uiso   1.00
H584   H     0.11369   0.96217   0.20874   0.00000  Uiso   1.00
H585   H     0.27224   0.87561   0.31253   0.00000  Uiso   1.00
H586   H     0.02584   0.87559   0.31256   0.00000  Uiso   1.00
H587   H     0.06121   0.79099   0.18742   0.00000  Uiso   1.00
H588   H     0.30753   0.79120   0.18728   0.00000  Uiso   1.00
H589   H     0.27181   0.78436   0.41657   0.00000  Uiso   1.00
N590   N     0.04931   0.83332   0.24999   0.00000  Uiso   1.00
N591   N     0.28402   0.83335   0.24999   0.00000  Uiso   1.00
O592   O     0.12708   0.89345   0.25001   0.00000  Uiso   1.00
O593   O     0.09872   0.88717   0.05443   0.00000  Uiso   1.00
O594   O     0.22150   0.95853   0.30610   0.00000  Uiso   1.00
O595   O     0.20627   0.89346   0.25001   0.00000  Uiso   1.00
O596   O     0.10775   0.83332   0.32549   0.00000  Uiso   1.00
O597   O     0.18694   0.83333   0.32549   0.00000  Uiso   1.00
O598   O     0.12706   0.77321   0.25000   0.00000  Uiso   1.00
O599   O     0.20625   0.77322   0.24999   0.00000  Uiso   1.00
O600   O     0.14640   0.83334   0.17451   0.00000  Uiso   1.00
O601   O     0.22559   0.83335   0.17451   0.00000  Uiso   1.00
O602   O     0.31457   0.80049   0.48352   0.00000  Uiso   1.00
C603   C     0.49977   0.91260   0.25087   0.00000  Uiso   1.00
C604   C     0.45844   0.83497   0.40719   0.00000  Uiso   1.00
C605   C     0.52720   0.97884   0.27928   0.00000  Uiso   1.00
C606   C     0.47380   0.83209   0.35010   0.00000  Uiso   1.00
C607   C     0.52850   0.68839   0.27685   0.00000  Uiso   1.00
C608   C     0.49938   0.70949   0.25164   0.00000  Uiso   1.00
C609   C     0.46923   0.68794   0.22823   0.00000  Uiso   1.00
C610   C     0.46937   0.97855   0.22846   0.00000  Uiso   1.00
C611   C     0.49898   0.95722   0.25291   0.00000  Uiso   1.00
C612   C     0.63206   0.85680   0.28473   0.00000  Uiso   1.00
C613   C     0.34833   0.85679   0.28474   0.00000  Uiso   1.00
C614   C     0.48101   0.83967   0.48802   0.00000  Uiso   1.00
C615   C     0.36797   0.80984   0.21524   0.00000  Uiso   1.00
C616   C     0.65169   0.80992   0.21518   0.00000  Uiso   1.00
C617   C     0.49985   0.75406   0.25040   0.00000  Uiso   1.00
C618   C     0.52624   0.83309   0.15003   0.00000  Uiso   1.00
C619   C     0.60048   0.81141   0.01171   0.00000  Uiso   1.00
C620   C     0.54130   0.83067   0.09331   0.00000  Uiso   1.00
C621   C     0.41392   0.85462   0.43151   0.00000  Uiso   1.00
C622   C     0.40369   0.86884   0.48193   0.00000  Uiso   1.00
C623   C     0.43714   0.86318   0.01039   0.00000  Uiso   1.00
C624   C     0.65683   0.75939   0.49593   0.00000  Uiso   1.00
C625   C     0.49100   0.82512   0.43616   0.00000  Uiso   1.00
C626   C     0.37615   0.74782   0.46525   0.00000  Uiso   1.00
C627   C     0.38735   0.70288   0.47461   0.00000  Uiso   1.00
C628   C     0.38528   0.88211   0.09204   0.00000  Uiso   1.00
C629   C     0.35877   0.92376   0.10229   0.00000  Uiso   1.00
C630   C     0.64172   0.91974   0.14287   0.00000  Uiso   1.00
C631   C     0.52392   0.94490   0.35511   0.00000  Uiso   1.00
C632   C     0.52466   0.97605   0.39748   0.00000  Uiso   1.00
C633   C     0.49638   0.95967   0.45137   0.00000  Uiso   1.00
C634   C     0.51646   0.83122   0.01449   0.00000  Uiso   1.00
C635   C     0.56346   0.81517   0.48704   0.00000  Uiso   1.00
C636   C     0.57126   0.79994   0.43700   0.00000  Uiso   1.00
C637   C     0.53410   0.80187   0.41388   0.00000  Uiso   1.00
C638   C     0.50539   0.83520   0.06825   0.00000  Uiso   1.00
C639   C     0.58955   0.82111   0.06452   0.00000  Uiso   1.00
Cu640  Cu    0.45311   0.83333   0.25000   0.00000  Uiso   1.00
Cu641  Cu    0.54689   0.83334   0.25000   0.00000  Uiso   1.00
H642   H     0.61794   0.81855   0.08346   0.00000  Uiso   1.00
H643   H     0.46790   0.83870   0.09180   0.00000  Uiso   1.00
H644   H     0.38853   0.86232   0.41004   0.00000  Uiso   1.00
H645   H     0.37092   0.88723   0.49739   0.00000  Uiso   1.00
H646   H     0.54016   0.78512   0.37790   0.00000  Uiso   1.00
H647   H     0.63095   0.73784   0.48520   0.00000  Uiso   1.00
H648   H     0.65272   0.75597   0.03818   0.00000  Uiso   1.00
H649   H     0.38175   0.75264   0.42300   0.00000  Uiso   1.00
H650   H     0.40217   0.76813   0.47733   0.00000  Uiso   1.00
H651   H     0.38287   0.69749   0.01650   0.00000  Uiso   1.00
H652   H     0.42588   0.69582   0.45192   0.00000  Uiso   1.00
H653   H     0.55110   0.70516   0.29593   0.00000  Uiso   1.00
H654   H     0.36250   0.68178   0.46185   0.00000  Uiso   1.00
H655   H     0.39129   0.87158   0.12889   0.00000  Uiso   1.00
H656   H     0.36138   0.85822   0.08204   0.00000  Uiso   1.00
H657   H     0.38141   0.94615   0.11644   0.00000  Uiso   1.00
H658   H     0.35403   0.93615   0.06566   0.00000  Uiso   1.00
H659   H     0.61789   0.89866   0.12862   0.00000  Uiso   1.00
H660   H     0.62386   0.95053   0.15024   0.00000  Uiso   1.00
H661   H     0.64551   0.90757   0.18003   0.00000  Uiso   1.00
H662   H     0.53861   0.91505   0.36432   0.00000  Uiso   1.00
H663   H     0.48518   0.93860   0.35591   0.00000  Uiso   1.00
H664   H     0.44655   0.70412   0.20871   0.00000  Uiso   1.00
H665   H     0.56333   0.98233   0.39621   0.00000  Uiso   1.00
H666   H     0.50783   0.67221   0.39034   0.00000  Uiso   1.00
H667   H     0.45761   0.95297   0.45353   0.00000  Uiso   1.00
H668   H     0.49668   0.98318   0.48118   0.00000  Uiso   1.00
H669   H     0.51382   0.93098   0.46008   0.00000  Uiso   1.00
H670   H     0.44703   0.96217   0.20874   0.00000  Uiso   1.00
H671   H     0.60558   0.87561   0.31253   0.00000  Uiso   1.00
H672   H     0.35918   0.87559   0.31256   0.00000  Uiso   1.00
H673   H     0.39454   0.79099   0.18742   0.00000  Uiso   1.00
H674   H     0.64086   0.79120   0.18728   0.00000  Uiso   1.00
H675   H     0.60515   0.78436   0.41657   0.00000  Uiso   1.00
N676   N     0.38265   0.83332   0.24999   0.00000  Uiso   1.00
N677   N     0.61735   0.83335   0.24999   0.00000  Uiso   1.00
O678   O     0.46042   0.89345   0.25001   0.00000  Uiso   1.00
O679   O     0.43206   0.88717   0.05443   0.00000  Uiso   1.00
O680   O     0.55483   0.95853   0.30610   0.00000  Uiso   1.00
O681   O     0.53961   0.89346   0.25001   0.00000  Uiso   1.00
O682   O     0.44108   0.83332   0.32549   0.00000  Uiso   1.00
O683   O     0.52027   0.83333   0.32549   0.00000  Uiso   1.00
O684   O     0.46039   0.77321   0.25000   0.00000  Uiso   1.00
O685   O     0.53958   0.77322   0.24999   0.00000  Uiso   1.00
O686   O     0.47973   0.83334   0.17451   0.00000  Uiso   1.00
O687   O     0.55892   0.83335   0.17451   0.00000  Uiso   1.00
O688   O     0.64790   0.80049   0.48352   0.00000  Uiso   1.00
C689   C     0.83310   0.91260   0.25087   0.00000  Uiso   1.00
C690   C     0.79177   0.83497   0.40719   0.00000  Uiso   1.00
C691   C     0.86053   0.97884   0.27928   0.00000  Uiso   1.00
C692   C     0.80713   0.83209   0.35010   0.00000  Uiso   1.00
C693   C     0.86183   0.68839   0.27685   0.00000  Uiso   1.00
C694   C     0.83271   0.70949   0.25164   0.00000  Uiso   1.00
C695   C     0.80257   0.68794   0.22823   0.00000  Uiso   1.00
C696   C     0.80271   0.97855   0.22846   0.00000  Uiso   1.00
C697   C     0.83231   0.95722   0.25291   0.00000  Uiso   1.00
C698   C     0.96539   0.85680   0.28473   0.00000  Uiso   1.00
C699   C     0.68166   0.85679   0.28474   0.00000  Uiso   1.00
C700   C     0.81434   0.83967   0.48802   0.00000  Uiso   1.00
C701   C     0.70131   0.80984   0.21524   0.00000  Uiso   1.00
C702   C     0.98503   0.80992   0.21518   0.00000  Uiso   1.00
C703   C     0.83319   0.75406   0.25040   0.00000  Uiso   1.00
C704   C     0.85958   0.83309   0.15003   0.00000  Uiso   1.00
C705   C     0.93382   0.81141   0.01171   0.00000  Uiso   1.00
C706   C     0.87463   0.83067   0.09331   0.00000  Uiso   1.00
C707   C     0.74725   0.85462   0.43151   0.00000  Uiso   1.00
C708   C     0.73702   0.86884   0.48193   0.00000  Uiso   1.00
C709   C     0.77047   0.86318   0.01039   0.00000  Uiso   1.00
C710   C     0.99016   0.75939   0.49593   0.00000  Uiso   1.00
C711   C     0.82433   0.82512   0.43616   0.00000  Uiso   1.00
C712   C     0.70948   0.74782   0.46525   0.00000  Uiso   1.00
C713   C     0.72069   0.70288   0.47461   0.00000  Uiso   1.00
C714   C     0.71862   0.88211   0.09204   0.00000  Uiso   1.00
C715   C     0.69210   0.92376   0.10229   0.00000  Uiso   1.00
C716   C     0.97505   0.91974   0.14287   0.00000  Uiso   1.00
C717   C     0.85725   0.94490   0.35511   0.00000  Uiso   1.00
C718   C     0.85800   0.97605   0.39748   0.00000  Uiso   1.00
C719   C     0.82972   0.95967   0.45137   0.00000  Uiso   1.00
C720   C     0.84980   0.83122   0.01449   0.00000  Uiso   1.00
C721   C     0.89680   0.81517   0.48704   0.00000  Uiso   1.00
C722   C     0.90459   0.79994   0.43700   0.00000  Uiso   1.00
C723   C     0.86744   0.80187   0.41388   0.00000  Uiso   1.00
C724   C     0.83872   0.83520   0.06825   0.00000  Uiso   1.00
C725   C     0.92288   0.82111   0.06452   0.00000  Uiso   1.00
Cu726  Cu    0.78645   0.83333   0.25000   0.00000  Uiso   1.00
Cu727  Cu    0.88022   0.83334   0.25000   0.00000  Uiso   1.00
H728   H     0.95127   0.81855   0.08346   0.00000  Uiso   1.00
H729   H     0.80123   0.83870   0.09180   0.00000  Uiso   1.00
H730   H     0.72186   0.86232   0.41004   0.00000  Uiso   1.00
H731   H     0.70426   0.88723   0.49739   0.00000  Uiso   1.00
H732   H     0.87350   0.78512   0.37790   0.00000  Uiso   1.00
H733   H     0.96428   0.73784   0.48520   0.00000  Uiso   1.00
H734   H     0.98606   0.75597   0.03818   0.00000  Uiso   1.00
H735   H     0.71508   0.75264   0.42300   0.00000  Uiso   1.00
H736   H     0.73551   0.76813   0.47733   0.00000  Uiso   1.00
H737   H     0.71620   0.69749   0.01650   0.00000  Uiso   1.00
H738   H     0.75922   0.69582   0.45192   0.00000  Uiso   1.00
H739   H     0.88443   0.70516   0.29593   0.00000  Uiso   1.00
H740   H     0.69584   0.68178   0.46185   0.00000  Uiso   1.00
H741   H     0.72463   0.87158   0.12889   0.00000  Uiso   1.00
H742   H     0.69471   0.85822   0.08204   0.00000  Uiso   1.00
H743   H     0.71474   0.94615   0.11644   0.00000  Uiso   1.00
H744   H     0.68736   0.93615   0.06566   0.00000  Uiso   1.00
H745   H     0.95122   0.89866   0.12862   0.00000  Uiso   1.00
H746   H     0.95719   0.95053   0.15024   0.00000  Uiso   1.00
H747   H     0.97885   0.90757   0.18003   0.00000  Uiso   1.00
H748   H     0.87195   0.91505   0.36432   0.00000  Uiso   1.00
H749   H     0.81852   0.93860   0.35591   0.00000  Uiso   1.00
H750   H     0.77988   0.70412   0.20871   0.00000  Uiso   1.00
H751   H     0.89666   0.98233   0.39621   0.00000  Uiso   1.00
H752   H     0.84116   0.67221   0.39034   0.00000  Uiso   1.00
H753   H     0.79094   0.95297   0.45353   0.00000  Uiso   1.00
H754   H     0.83002   0.98318   0.48118   0.00000  Uiso   1.00
H755   H     0.84715   0.93098   0.46008   0.00000  Uiso   1.00
H756   H     0.78036   0.96217   0.20874   0.00000  Uiso   1.00
H757   H     0.93891   0.87561   0.31253   0.00000  Uiso   1.00
H758   H     0.69251   0.87559   0.31256   0.00000  Uiso   1.00
H759   H     0.72787   0.79099   0.18742   0.00000  Uiso   1.00
H760   H     0.97419   0.79120   0.18728   0.00000  Uiso   1.00
H761   H     0.93848   0.78436   0.41657   0.00000  Uiso   1.00
N762   N     0.71598   0.83332   0.24999   0.00000  Uiso   1.00
N763   N     0.95069   0.83335   0.24999   0.00000  Uiso   1.00
O764   O     0.79375   0.89345   0.25001   0.00000  Uiso   1.00
O765   O     0.76539   0.88717   0.05443   0.00000  Uiso   1.00
O766   O     0.88816   0.95853   0.30610   0.00000  Uiso   1.00
O767   O     0.87294   0.89346   0.25001   0.00000  Uiso   1.00
O768   O     0.77441   0.83332   0.32549   0.00000  Uiso   1.00
O769   O     0.85360   0.83333   0.32549   0.00000  Uiso   1.00
O770   O     0.79373   0.77321   0.25000   0.00000  Uiso   1.00
O771   O     0.87292   0.77322   0.24999   0.00000  Uiso   1.00
O772   O     0.81306   0.83334   0.17451   0.00000  Uiso   1.00
O773   O     0.89225   0.83335   0.17451   0.00000  Uiso   1.00
O774   O     0.98124   0.80049   0.48352   0.00000  Uiso   1.00
C775   C     0.16643   0.24593   0.75087   0.00000  Uiso   1.00
C776   C     0.12510   0.16830   0.90719   0.00000  Uiso   1.00
C777   C     0.19387   0.31218   0.77928   0.00000  Uiso   1.00
C778   C     0.14047   0.16542   0.85010   0.00000  Uiso   1.00
C779   C     0.19516   0.02173   0.77685   0.00000  Uiso   1.00
C780   C     0.16604   0.04283   0.75164   0.00000  Uiso   1.00
C781   C     0.13590   0.02127   0.72823   0.00000  Uiso   1.00
C782   C     0.13604   0.31188   0.72846   0.00000  Uiso   1.00
C783   C     0.16565   0.29055   0.75291   0.00000  Uiso   1.00
C784   C     0.29872   0.19014   0.78473   0.00000  Uiso   1.00
C785   C     0.01499   0.19012   0.78474   0.00000  Uiso   1.00
C786   C     0.14767   0.17300   0.98802   0.00000  Uiso   1.00
C787   C     0.03464   0.14318   0.71524   0.00000  Uiso   1.00
C788   C     0.31836   0.14326   0.71518   0.00000  Uiso   1.00
C789   C     0.16652   0.08739   0.75040   0.00000  Uiso   1.00
C790   C     0.19291   0.16642   0.65003   0.00000  Uiso   1.00
C791   C     0.26715   0.14475   0.51171   0.00000  Uiso   1.00
C792   C     0.20796   0.16400   0.59331   0.00000  Uiso   1.00
C793   C     0.08059   0.18796   0.93151   0.00000  Uiso   1.00
C794   C     0.07035   0.20217   0.98193   0.00000  Uiso   1.00
C795   C     0.10381   0.19651   0.51039   0.00000  Uiso   1.00
C796   C     0.32350   0.09272   0.99593   0.00000  Uiso   1.00
C797   C     0.15767   0.15845   0.93616   0.00000  Uiso   1.00
C798   C     0.04282   0.08115   0.96525   0.00000  Uiso   1.00
C799   C     0.05402   0.03621   0.97461   0.00000  Uiso   1.00
C800   C     0.05195   0.21544   0.59204   0.00000  Uiso   1.00
C801   C     0.02543   0.25709   0.60229   0.00000  Uiso   1.00
C802   C     0.30839   0.25307   0.64287   0.00000  Uiso   1.00
C803   C     0.19059   0.27823   0.85511   0.00000  Uiso   1.00
C804   C     0.19133   0.30938   0.89748   0.00000  Uiso   1.00
C805   C     0.16305   0.29300   0.95137   0.00000  Uiso   1.00
C806   C     0.18313   0.16455   0.51449   0.00000  Uiso   1.00
C807   C     0.23013   0.14850   0.98704   0.00000  Uiso   1.00
C808   C     0.23792   0.13328   0.93700   0.00000  Uiso   1.00
C809   C     0.20077   0.13520   0.91388   0.00000  Uiso   1.00
C810   C     0.17205   0.16853   0.56825   0.00000  Uiso   1.00
C811   C     0.25621   0.15445   0.56452   0.00000  Uiso   1.00
Cu812  Cu    0.11978   0.16666   0.75000   0.00000  Uiso   1.00
Cu813  Cu    0.21355   0.16667   0.75000   0.00000  Uiso   1.00
H814   H     0.28460   0.15189   0.58346   0.00000  Uiso   1.00
H815   H     0.13456   0.17203   0.59180   0.00000  Uiso   1.00
H816   H     0.05520   0.19565   0.91004   0.00000  Uiso   1.00
H817   H     0.03759   0.22056   0.99739   0.00000  Uiso   1.00
H818   H     0.20683   0.11845   0.87790   0.00000  Uiso   1.00
H819   H     0.29761   0.07117   0.98520   0.00000  Uiso   1.00
H820   H     0.31939   0.08930   0.53818   0.00000  Uiso   1.00
H821   H     0.04841   0.08597   0.92300   0.00000  Uiso   1.00
H822   H     0.06884   0.10147   0.97733   0.00000  Uiso   1.00
H823   H     0.04953   0.03082   0.51650   0.00000  Uiso   1.00
H824   H     0.09255   0.02916   0.95192   0.00000  Uiso   1.00
H825   H     0.21776   0.03849   0.79593   0.00000  Uiso   1.00
H826   H     0.02917   0.01511   0.96185   0.00000  Uiso   1.00
H827   H     0.05796   0.20491   0.62889   0.00000  Uiso   1.00
H828   H     0.02804   0.19156   0.58204   0.00000  Uiso   1.00
H829   H     0.04807   0.27948   0.61644   0.00000  Uiso   1.00
H830   H     0.02069   0.26948   0.56566   0.00000  Uiso   1.00
H831   H     0.28455   0.23199   0.62862   0.00000  Uiso   1.00
H832   H     0.29053   0.28387   0.65024   0.00000  Uiso   1.00
H833   H     0.31218   0.24090   0.68003   0.00000  Uiso   1.00
H834   H     0.20528   0.24839   0.86432   0.00000  Uiso   1.00
H835   H     0.15185   0.27193   0.85591   0.00000  Uiso   1.00
H836   H     0.11321   0.03745   0.70871   0.00000  Uiso   1.00
H837   H     0.22999   0.31566   0.89621   0.00000  Uiso   1.00
H838   H     0.17450   0.00555   0.89034   0.00000  Uiso   1.00
H839   H     0.12428   0.28630   0.95353   0.00000  Uiso   1.00
H840   H     0.16335   0.31652   0.98118   0.00000  Uiso   1.00
H841   H     0.18048   0.26431   0.96008   0.00000  Uiso   1.00
H842   H     0.11369   0.29551   0.70874   0.00000  Uiso   1.00
H843   H     0.27224   0.20894   0.81253   0.00000  Uiso   1.00
H844   H     0.02584   0.20893   0.81256   0.00000  Uiso   1.00
H845   H     0.06121   0.12432   0.68742   0.00000  Uiso   1.00
H846   H     0.30753   0.12453   0.68728   0.00000  Uiso   1.00
H847   H     0.27181   0.11769   0.91657   0.00000  Uiso   1.00
N848   N     0.04931   0.16666   0.74999   0.00000  Uiso   1.00
N849   N     0.28402   0.16669   0.74999   0.00000  Uiso   1.00
O850   O     0.12708   0.22678   0.75001   0.00000  Uiso   1.00
O851   O     0.09872   0.22051   0.55443   0.00000  Uiso   1.00
O852   O     0.22150   0.29187   0.80610   0.00000  Uiso   1.00
O853   O     0.20627   0.22679   0.75001   0.00000  Uiso   1.00
O854   O     0.10775   0.16665   0.82549   0.00000  Uiso   1.00
O855   O     0.18694   0.16666   0.82549   0.00000  Uiso   1.00
O856   O     0.12706   0.10654   0.75000   0.00000  Uiso   1.00
O857   O     0.20625   0.10655   0.74999   0.00000  Uiso   1.00
O858   O     0.14640   0.16667   0.67451   0.00000  Uiso   1.00
O859   O     0.22559   0.16668   0.67451   0.00000  Uiso   1.00
O860   O     0.31457   0.13382   0.98352   0.00000  Uiso   1.00
C861   C     0.49977   0.24593   0.75087   0.00000  Uiso   1.00
C862   C     0.45844   0.16830   0.90719   0.00000  Uiso   1.00
C863   C     0.52720   0.31218   0.77928   0.00000  Uiso   1.00
C864   C     0.47380   0.16542   0.85010   0.00000  Uiso   1.00
C865   C     0.52850   0.02173   0.77685   0.00000  Uiso   1.00
C866   C     0.49938   0.04283   0.75164   0.00000  Uiso   1.00
C867   C     0.46923   0.02127   0.72823   0.00000  Uiso   1.00
C868   C     0.46937   0.31188   0.72846   0.00000  Uiso   1.00
C869   C     0.49898   0.29055   0.75291   0.00000  Uiso   1.00
C870   C     0.63206   0.19014   0.78473   0.00000  Uiso   1.00
C871   C     0.34833   0.19012   0.78474   0.00000  Uiso   1.00
C872   C     0.48101   0.17300   0.98802   0.00000  Uiso   1.00
C873   C     0.36797   0.14318   0.71524   0.00000  Uiso   1.00
C874   C     0.65169   0.14326   0.71518   0.00000  Uiso   1.00
C875   C     0.49985   0.08739   0.75040   0.00000  Uiso   1.00
C876   C     0.52624   0.16642   0.65003   0.00000  Uiso   1.00
C877   C     0.60048   0.14475   0.51171   0.00000  Uiso   1.00
C878   C     0.54130   0.16400   0.59331   0.00000  Uiso   1.00
C879   C     0.41392   0.18796   0.93151   0.00000  Uiso   1.00
C880   C     0.40369   0.20217   0.98193   0.00000  Uiso   1.00
C881   C     0.43714   0.19651   0.51039   0.00000  Uiso   1.00
C882   C     0.65683   0.09272   0.99593   0.00000  Uiso   1.00
C883   C     0.49100   0.15845   0.93616   0.00000  Uiso   1.00
C884   C     0.37615   0.08115   0.96525   0.00000  Uiso   1.00
C885   C     0.38735   0.03621   0.97461   0.00000  Uiso   1.00
C886   C     0.38528   0.21544   0.59204   0.00000  Uiso   1.00
C887   C     0.35877   0.25709   0.60229   0.00000  Uiso   1.00
C888   C     0.64172   0.25307   0.64287   0.00000  Uiso   1.00
C889   C     0.52392   0.27823   0.85511   0.00000  Uiso   1.00
C890   C     0.52466   0.30938   0.89748   0.00000  Uiso   1.00
C891   C     0.49638   0.29300   0.95137   0.00000  Uiso   1.00
C892   C     0.51646   0.16455   0.51449   0.00000  Uiso   1.00
C893   C     0.56346   0.14850   0.98704   0.00000  Uiso   1.00
C894   C     0.57126   0.13328   0.93700   0.00000  Uiso   1.00
C895   C     0.53410   0.13520   0.91388   0.00000  Uiso   1.00
C896   C     0.50539   0.16853   0.56825   0.00000  Uiso   1.00
C897   C     0.58955   0.15445   0.56452   0.00000  Uiso   1.00
Cu898  Cu    0.45311   0.16666   0.75000   0.00000  Uiso   1.00
Cu899  Cu    0.54689   0.16667   0.75000   0.00000  Uiso   1.00
H900   H     0.61794   0.15189   0.58346   0.00000  Uiso   1.00
H901   H     0.46790   0.17203   0.59180   0.00000  Uiso   1.00
H902   H     0.38853   0.19565   0.91004   0.00000  Uiso   1.00
H903   H     0.37092   0.22056   0.99739   0.00000  Uiso   1.00
H904   H     0.54016   0.11845   0.87790   0.00000  Uiso   1.00
H905   H     0.63095   0.07117   0.98520   0.00000  Uiso   1.00
H906   H     0.65272   0.08930   0.53818   0.00000  Uiso   1.00
H907   H     0.38175   0.08597   0.92300   0.00000  Uiso   1.00
H908   H     0.40217   0.10147   0.97733   0.00000  Uiso   1.00
H909   H     0.38287   0.03082   0.51650   0.00000  Uiso   1.00
H910   H     0.42588   0.02916   0.95192   0.00000  Uiso   1.00
H911   H     0.55110   0.03849   0.79593   0.00000  Uiso   1.00
H912   H     0.36250   0.01511   0.96185   0.00000  Uiso   1.00
H913   H     0.39129   0.20491   0.62889   0.00000  Uiso   1.00
H914   H     0.36138   0.19156   0.58204   0.00000  Uiso   1.00
H915   H     0.38141   0.27948   0.61644   0.00000  Uiso   1.00
H916   H     0.35403   0.26948   0.56566   0.00000  Uiso   1.00
H917   H     0.61789   0.23199   0.62862   0.00000  Uiso   1.00
H918   H     0.62386   0.28387   0.65024   0.00000  Uiso   1.00
H919   H     0.64551   0.24090   0.68003   0.00000  Uiso   1.00
H920   H     0.53861   0.24839   0.86432   0.00000  Uiso   1.00
H921   H     0.48518   0.27193   0.85591   0.00000  Uiso   1.00
H922   H     0.44655   0.03745   0.70871   0.00000  Uiso   1.00
H923   H     0.56333   0.31566   0.89621   0.00000  Uiso   1.00
H924   H     0.50783   0.00555   0.89034   0.00000  Uiso   1.00
H925   H     0.45761   0.28630   0.95353   0.00000  Uiso   1.00
H926   H     0.49668   0.31652   0.98118   0.00000  Uiso   1.00
H927   H     0.51382   0.26431   0.96008   0.00000  Uiso   1.00
H928   H     0.44703   0.29551   0.70874   0.00000  Uiso   1.00
H929   H     0.60558   0.20894   0.81253   0.00000  Uiso   1.00
H930   H     0.35918   0.20893   0.81256   0.00000  Uiso   1.00
H931   H     0.39454   0.12432   0.68742   0.00000  Uiso   1.00
H932   H     0.64086   0.12453   0.68728   0.00000  Uiso   1.00
H933   H     0.60515   0.11769   0.91657   0.00000  Uiso   1.00
N934   N     0.38265   0.16666   0.74999   0.00000  Uiso   1.00
N935   N     0.61735   0.16669   0.74999   0.00000  Uiso   1.00
O936   O     0.46042   0.22678   0.75001   0.00000  Uiso   1.00
O937   O     0.43206   0.22051   0.55443   0.00000  Uiso   1.00
O938   O     0.55483   0.29187   0.80610   0.00000  Uiso   1.00
O939   O     0.53961   0.22679   0.75001   0.00000  Uiso   1.00
O940   O     0.44108   0.16665   0.82549   0.00000  Uiso   1.00
O941   O     0.52027   0.16666   0.82549   0.00000  Uiso   1.00
O942   O     0.46039   0.10654   0.75000   0.00000  Uiso   1.00
O943   O     0.53958   0.10655   0.74999   0.00000  Uiso   1.00
O944   O     0.47973   0.16667   0.67451   0.00000  Uiso   1.00
O945   O     0.55892   0.16668   0.67451   0.00000  Uiso   1.00
O946   O     0.64790   0.13382   0.98352   0.00000  Uiso   1.00
C947   C     0.83310   0.24593   0.75087   0.00000  Uiso   1.00
C948   C     0.79177   0.16830   0.90719   0.00000  Uiso   1.00
C949   C     0.86053   0.31218   0.77928   0.00000  Uiso   1.00
C950   C     0.80713   0.16542   0.85010   0.00000  Uiso   1.00
C951   C     0.86183   0.02173   0.77685   0.00000  Uiso   1.00
C952   C     0.83271   0.04283   0.75164   0.00000  Uiso   1.00
C953   C     0.80257   0.02127   0.72823   0.00000  Uiso   1.00
C954   C     0.80271   0.31188   0.72846   0.00000  Uiso   1.00
C955   C     0.83231   0.29055   0.75291   0.00000  Uiso   1.00
C956   C     0.96539   0.19014   0.78473   0.00000  Uiso   1.00
C957   C     0.68166   0.19012   0.78474   0.00000  Uiso   1.00
C958   C     0.81434   0.17300   0.98802   0.00000  Uiso   1.00
C959   C     0.70131   0.14318   0.71524   0.00000  Uiso   1.00
C960   C     0.98503   0.14326   0.71518   0.00000  Uiso   1.00
C961   C     0.83319   0.08739   0.75040   0.00000  Uiso   1.00
C962   C     0.85958   0.16642   0.65003   0.00000  Uiso   1.00
C963   C     0.93382   0.14475   0.51171   0.00000  Uiso   1.00
C964   C     0.87463   0.16400   0.59331   0.00000  Uiso   1.00
C965   C     0.74725   0.18796   0.93151   0.00000  Uiso   1.00
C966   C     0.73702   0.20217   0.98193   0.00000  Uiso   1.00
C967   C     0.77047   0.19651   0.51039   0.00000  Uiso   1.00
C968   C     0.99016   0.09272   0.99593   0.00000  Uiso   1.00
C969   C     0.82433   0.15845   0.93616   0.00000  Uiso   1.00
C970   C     0.70948   0.08115   0.96525   0.00000  Uiso   1.00
C971   C     0.72069   0.03621   0.97461   0.00000  Uiso   1.00
C972   C     0.71862   0.21544   0.59204   0.00000  Uiso   1.00
C973   C     0.69210   0.25709   0.60229   0.00000  Uiso   1.00
C974   C     0.97505   0.25307   0.64287   0.00000  Uiso   1.00
C975   C     0.85725   0.27823   0.85511   0.00000  Uiso   1.00
C976   C     0.85800   0.30938   0.89748   0.00000  Uiso   1.00
C977   C     0.82972   0.29300   0.95137   0.00000  Uiso   1.00
C978   C     0.84980   0.16455   0.51449   0.00000  Uiso   1.00
C979   C     0.89680   0.14850   0.98704   0.00000  Uiso   1.00
C980   C     0.90459   0.13328   0.93700   0.00000  Uiso   1.00
C981   C     0.86744   0.13520   0.91388   0.00000  Uiso   1.00
C982   C     0.83872   0.16853   0.56825   0.00000  Uiso   1.00
C983   C     0.92288   0.15445   0.56452   0.00000  Uiso   1.00
Cu984  Cu    0.78645   0.16666   0.75000   0.00000  Uiso   1.00
Cu985  Cu    0.88022   0.16667   0.75000   0.00000  Uiso   1.00
H986   H     0.95127   0.15189   0.58346   0.00000  Uiso   1.00
H987   H     0.80123   0.17203   0.59180   0.00000  Uiso   1.00
H988   H     0.72186   0.19565   0.91004   0.00000  Uiso   1.00
H989   H     0.70426   0.22056   0.99739   0.00000  Uiso   1.00
H990   H     0.87350   0.11845   0.87790   0.00000  Uiso   1.00
H991   H     0.96428   0.07117   0.98520   0.00000  Uiso   1.00
H992   H     0.98606   0.08930   0.53818   0.00000  Uiso   1.00
H993   H     0.71508   0.08597   0.92300   0.00000  Uiso   1.00
H994   H     0.73551   0.10147   0.97733   0.00000  Uiso   1.00
H995   H     0.71620   0.03082   0.51650   0.00000  Uiso   1.00
H996   H     0.75922   0.02916   0.95192   0.00000  Uiso   1.00
H997   H     0.88443   0.03849   0.79593   0.00000  Uiso   1.00
H998   H     0.69584   0.01511   0.96185   0.00000  Uiso   1.00
H999   H     0.72463   0.20491   0.62889   0.00000  Uiso   1.00
H1000  H     0.69471   0.19156   0.58204   0.00000  Uiso   1.00
H1001  H     0.71474   0.27948   0.61644   0.00000  Uiso   1.00
H1002  H     0.68736   0.26948   0.56566   0.00000  Uiso   1.00
H1003  H     0.95122   0.23199   0.62862   0.00000  Uiso   1.00
H1004  H     0.95719   0.28387   0.65024   0.00000  Uiso   1.00
H1005  H     0.97885   0.24090   0.68003   0.00000  Uiso   1.00
H1006  H     0.87195   0.24839   0.86432   0.00000  Uiso   1.00
H1007  H     0.81852   0.27193   0.85591   0.00000  Uiso   1.00
H1008  H     0.77988   0.03745   0.70871   0.00000  Uiso   1.00
H1009  H     0.89666   0.31566   0.89621   0.00000  Uiso   1.00
H1010  H     0.84116   0.00555   0.89034   0.00000  Uiso   1.00
H1011  H     0.79094   0.28630   0.95353   0.00000  Uiso   1.00
H1012  H     0.83002   0.31652   0.98118   0.00000  Uiso   1.00
H1013  H     0.84715   0.26431   0.96008   0.00000  Uiso   1.00
H1014  H     0.78036   0.29551   0.70874   0.00000  Uiso   1.00
H1015  H     0.93891   0.20894   0.81253   0.00000  Uiso   1.00
H1016  H     0.69251   0.20893   0.81256   0.00000  Uiso   1.00
H1017  H     0.72787   0.12432   0.68742   0.00000  Uiso   1.00
H1018  H     0.97419   0.12453   0.68728   0.00000  Uiso   1.00
H1019  H     0.93848   0.11769   0.91657   0.00000  Uiso   1.00
N1020  N     0.71598   0.16666   0.74999   0.00000  Uiso   1.00
N1021  N     0.95069   0.16669   0.74999   0.00000  Uiso   1.00
O1022  O     0.79375   0.22678   0.75001   0.00000  Uiso   1.00
O1023  O     0.76539   0.22051   0.55443   0.00000  Uiso   1.00
O1024  O     0.88816   0.29187   0.80610   0.00000  Uiso   1.00
O1025  O     0.87294   0.22679   0.75001   0.00000  Uiso   1.00
O1026  O     0.77441   0.16665   0.82549   0.00000  Uiso   1.00
O1027  O     0.85360   0.16666   0.82549   0.00000  Uiso   1.00
O1028  O     0.79373   0.10654   0.75000   0.00000  Uiso   1.00
O1029  O     0.87292   0.10655   0.74999   0.00000  Uiso   1.00
O1030  O     0.81306   0.16667   0.67451   0.00000  Uiso   1.00
O1031  O     0.89225   0.16668   0.67451   0.00000  Uiso   1.00
O1032  O     0.98124   0.13382   0.98352   0.00000  Uiso   1.00
C1033  C     0.16643   0.57927   0.75087   0.00000  Uiso   1.00
C1034  C     0.12510   0.50164   0.90719   0.00000  Uiso   1.00
C1035  C     0.19387   0.64551   0.77928   0.00000  Uiso   1.00
C1036  C     0.14047   0.49876   0.85010   0.00000  Uiso   1.00
C1037  C     0.19516   0.35506   0.77685   0.00000  Uiso   1.00
C1038  C     0.16604   0.37616   0.75164   0.00000  Uiso   1.00
C1039  C     0.13590   0.35460   0.72823   0.00000  Uiso   1.00
C1040  C     0.13604   0.64521   0.72846   0.00000  Uiso   1.00
C1041  C     0.16565   0.62388   0.75291   0.00000  Uiso   1.00
C1042  C     0.29872   0.52347   0.78473   0.00000  Uiso   1.00
C1043  C     0.01499   0.52346   0.78474   0.00000  Uiso   1.00
C1044  C     0.14767   0.50634   0.98802   0.00000  Uiso   1.00
C1045  C     0.03464   0.47651   0.71524   0.00000  Uiso   1.00
C1046  C     0.31836   0.47659   0.71518   0.00000  Uiso   1.00
C1047  C     0.16652   0.42072   0.75040   0.00000  Uiso   1.00
C1048  C     0.19291   0.49975   0.65003   0.00000  Uiso   1.00
C1049  C     0.26715   0.47808   0.51171   0.00000  Uiso   1.00
C1050  C     0.20796   0.49733   0.59331   0.00000  Uiso   1.00
C1051  C     0.08059   0.52129   0.93151   0.00000  Uiso   1.00
C1052  C     0.07035   0.53550   0.98193   0.00000  Uiso   1.00
C1053  C     0.10381   0.52985   0.51039   0.00000  Uiso   1.00
C1054  C     0.32350   0.42605   0.99593   0.00000  Uiso   1.00
C1055  C     0.15767   0.49178   0.93616   0.00000  Uiso   1.00
C1056  C     0.04282   0.41448   0.96525   0.00000  Uiso   1.00
C1057  C     0.05402   0.36955   0.97461   0.00000  Uiso   1.00
C1058  C     0.05195   0.54877   0.59204   0.00000  Uiso   1.00
C1059  C     0.02543   0.59043   0.60229   0.00000  Uiso   1.00
C1060  C     0.30839   0.58640   0.64287   0.00000  Uiso   1.00
C1061  C     0.19059   0.61156   0.85511   0.00000  Uiso   1.00
C1062  C     0.19133   0.64272   0.89748   0.00000  Uiso   1.00
C1063  C     0.16305   0.62633   0.95137   0.00000  Uiso   1.00
C1064  C     0.18313   0.49789   0.51449   0.00000  Uiso   1.00
C1065  C     0.23013   0.48184   0.98704   0.00000  Uiso   1.00
C1066  C     0.23792   0.46661   0.93700   0.00000  Uiso   1.00
C1067  C     0.20077   0.46853   0.91388   0.00000  Uiso   1.00
C1068  C     0.17205   0.50186   0.56825   0.00000  Uiso   1.00
C1069  C     0.25621   0.48778   0.56452   0.00000  Uiso   1.00
Cu1070 Cu    0.11978   0.49999   0.75000   0.00000  Uiso   1.00
Cu1071 Cu    0.21355   0.50001   0.75000   0.00000  Uiso   1.00
H1072  H     0.28460   0.48522   0.58346   0.00000  Uiso   1.00
H1073  H     0.13456   0.50536   0.59180   0.00000  Uiso   1.00
H1074  H     0.05520   0.52898   0.91004   0.00000  Uiso   1.00
H1075  H     0.03759   0.55390   0.99739   0.00000  Uiso   1.00
H1076  H     0.20683   0.45178   0.87790   0.00000  Uiso   1.00
H1077  H     0.29761   0.40450   0.98520   0.00000  Uiso   1.00
H1078  H     0.31939   0.42263   0.53818   0.00000  Uiso   1.00
H1079  H     0.04841   0.41931   0.92300   0.00000  Uiso   1.00
H1080  H     0.06884   0.43480   0.97733   0.00000  Uiso   1.00
H1081  H     0.04953   0.36416   0.51650   0.00000  Uiso   1.00
H1082  H     0.09255   0.36249   0.95192   0.00000  Uiso   1.00
H1083  H     0.21776   0.37183   0.79593   0.00000  Uiso   1.00
H1084  H     0.02917   0.34845   0.96185   0.00000  Uiso   1.00
H1085  H     0.05796   0.53825   0.62889   0.00000  Uiso   1.00
H1086  H     0.02804   0.52489   0.58204   0.00000  Uiso   1.00
H1087  H     0.04807   0.61281   0.61644   0.00000  Uiso   1.00
H1088  H     0.02069   0.60281   0.56566   0.00000  Uiso   1.00
H1089  H     0.28455   0.56532   0.62862   0.00000  Uiso   1.00
H1090  H     0.29053   0.61720   0.65024   0.00000  Uiso   1.00
H1091  H     0.31218   0.57424   0.68003   0.00000  Uiso   1.00
H1092  H     0.20528   0.58172   0.86432   0.00000  Uiso   1.00
H1093  H     0.15185   0.60527   0.85591   0.00000  Uiso   1.00
H1094  H     0.11321   0.37078   0.70871   0.00000  Uiso   1.00
H1095  H     0.22999   0.64899   0.89621   0.00000  Uiso   1.00
H1096  H     0.17450   0.33888   0.89034   0.00000  Uiso   1.00
H1097  H     0.12428   0.61964   0.95353   0.00000  Uiso   1.00
H1098  H     0.16335   0.64985   0.98118   0.00000  Uiso   1.00
H1099  H     0.18048   0.59764   0.96008   0.00000  Uiso   1.00
H1100  H     0.11369   0.62884   0.70874   0.00000  Uiso   1.00
H1101  H     0.27224   0.54228   0.81253   0.00000  Uiso   1.00
H1102  H     0.02584   0.54226   0.81256   0.00000  Uiso   1.00
H1103  H     0.06121   0.45766   0.68742   0.00000  Uiso   1.00
H1104  H     0.30753   0.45787   0.68728   0.00000  Uiso   1.00
H1105  H     0.27181   0.45102   0.91657   0.00000  Uiso   1.00
N1106  N     0.04931   0.49999   0.74999   0.00000  Uiso   1.00
N1107  N     0.28402   0.50002   0.74999   0.00000  Uiso   1.00
O1108  O     0.12708   0.56011   0.75001   0.00000  Uiso   1.00
O1109  O     0.09872   0.55384   0.55443   0.00000  Uiso   1.00
O1110  O     0.22150   0.62520   0.80610   0.00000  Uiso   1.00
O1111  O     0.20627   0.56012   0.75001   0.00000  Uiso   1.00
O1112  O     0.10775   0.49998   0.82549   0.00000  Uiso   1.00
O1113  O     0.18694   0.49999   0.82549   0.00000  Uiso   1.00
O1114  O     0.12706   0.43988   0.75000   0.00000  Uiso   1.00
O1115  O     0.20625   0.43989   0.74999   0.00000  Uiso   1.00
O1116  O     0.14640   0.50001   0.67451   0.00000  Uiso   1.00
O1117  O     0.22559   0.50002   0.67451   0.00000  Uiso   1.00
O1118  O     0.31457   0.46715   0.98352   0.00000  Uiso   1.00
C1119  C     0.49977   0.57927   0.75087   0.00000  Uiso   1.00
C1120  C     0.45844   0.50164   0.90719   0.00000  Uiso   1.00
C1121  C     0.52720   0.64551   0.77928   0.00000  Uiso   1.00
C1122  C     0.47380   0.49876   0.85010   0.00000  Uiso   1.00
C1123  C     0.52850   0.35506   0.77685   0.00000  Uiso   1.00
C1124  C     0.49938   0.37616   0.75164   0.00000  Uiso   1.00
C1125  C     0.46923   0.35460   0.72823   0.00000  Uiso   1.00
C1126  C     0.46937   0.64521   0.72846   0.00000  Uiso   1.00
C1127  C     0.49898   0.62388   0.75291   0.00000  Uiso   1.00
C1128  C     0.63206   0.52347   0.78473   0.00000  Uiso   1.00
C1129  C     0.34833   0.52346   0.78474   0.00000  Uiso   1.00
C1130  C     0.48101   0.50634   0.98802   0.00000  Uiso   1.00
C1131  C     0.36797   0.47651   0.71524   0.00000  Uiso   1.00
C1132  C     0.65169   0.47659   0.71518   0.00000  Uiso   1.00
C1133  C     0.49985   0.42072   0.75040   0.00000  Uiso   1.00
C1134  C     0.52624   0.49975   0.65003   0.00000  Uiso   1.00
C1135  C     0.60048   0.47808   0.51171   0.00000  Uiso   1.00
C1136  C     0.54130   0.49733   0.59331   0.00000  Uiso   1.00
C1137  C     0.41392   0.52129   0.93151   0.00000  Uiso   1.00
C1138  C     0.40369   0.53550   0.98193   0.00000  Uiso   1.00
C1139  C     0.43714   0.52985   0.51039   0.00000  Uiso   1.00
C1140  C     0.65683   0.42605   0.99593   0.00000  Uiso   1.00
C1141  C     0.49100   0.49178   0.93616   0.00000  Uiso   1.00
C1142  C     0.37615   0.41448   0.96525   0.00000  Uiso   1.00
C1143  C     0.38735   0.36955   0.97461   0.00000  Uiso   1.00
C1144  C     0.38528   0.54877   0.59204   0.00000  Uiso   1.00
C1145  C     0.35877   0.59043   0.60229   0.00000  Uiso   1.00
C1146  C     0.64172   0.58640   0.64287   0.00000  Uiso   1.00
C1147  C     0.52392   0.61156   0.85511   0.00000  Uiso   1.00
C1148  C     0.52466   0.64272   0.89748   0.00000  Uiso   1.00
C1149  C     0.49638   0.62633   0.95137   0.00000  Uiso   1.00
C1150  C     0.51646   0.49789   0.51449   0.00000  Uiso   1.00
C1151  C     0.56346   0.48184   0.98704   0.00000  Uiso   1.00
C1152  C     0.57126   0.46661   0.93700   0.00000  Uiso   1.00
C1153  C     0.53410   0.46853   0.91388   0.00000  Uiso   1.00
C1154  C     0.50539   0.50186   0.56825   0.00000  Uiso   1.00
C1155  C     0.58955   0.48778   0.56452   0.00000  Uiso   1.00
Cu1156 Cu    0.45311   0.49999   0.75000   0.00000  Uiso   1.00
Cu1157 Cu    0.54689   0.50001   0.75000   0.00000  Uiso   1.00
H1158  H     0.61794   0.48522   0.58346   0.00000  Uiso   1.00
H1159  H     0.46790   0.50536   0.59180   0.00000  Uiso   1.00
H1160  H     0.38853   0.52898   0.91004   0.00000  Uiso   1.00
H1161  H     0.37092   0.55390   0.99739   0.00000  Uiso   1.00
H1162  H     0.54016   0.45178   0.87790   0.00000  Uiso   1.00
H1163  H     0.63095   0.40450   0.98520   0.00000  Uiso   1.00
H1164  H     0.65272   0.42263   0.53818   0.00000  Uiso   1.00
H1165  H     0.38175   0.41931   0.92300   0.00000  Uiso   1.00
H1166  H     0.40217   0.43480   0.97733   0.00000  Uiso   1.00
H1167  H     0.38287   0.36416   0.51650   0.00000  Uiso   1.00
H1168  H     0.42588   0.36249   0.95192   0.00000  Uiso   1.00
H1169  H     0.55110   0.37183   0.79593   0.00000  Uiso   1.00
H1170  H     0.36250   0.34845   0.96185   0.00000  Uiso   1.00
H1171  H     0.39129   0.53825   0.62889   0.00000  Uiso   1.00
H1172  H     0.36138   0.52489   0.58204   0.00000  Uiso   1.00
H1173  H     0.38141   0.61281   0.61644   0.00000  Uiso   1.00
H1174  H     0.35403   0.60281   0.56566   0.00000  Uiso   1.00
H1175  H     0.61789   0.56532   0.62862   0.00000  Uiso   1.00
H1176  H     0.62386   0.61720   0.65024   0.00000  Uiso   1.00
H1177  H     0.64551   0.57424   0.68003   0.00000  Uiso   1.00
H1178  H     0.53861   0.58172   0.86432   0.00000  Uiso   1.00
H1179  H     0.48518   0.60527   0.85591   0.00000  Uiso   1.00
H1180  H     0.44655   0.37078   0.70871   0.00000  Uiso   1.00
H1181  H     0.56333   0.64899   0.89621   0.00000  Uiso   1.00
H1182  H     0.50783   0.33888   0.89034   0.00000  Uiso   1.00
H1183  H     0.45761   0.61964   0.95353   0.00000  Uiso   1.00
H1184  H     0.49668   0.64985   0.98118   0.00000  Uiso   1.00
H1185  H     0.51382   0.59764   0.96008   0.00000  Uiso   1.00
H1186  H     0.44703   0.62884   0.70874   0.00000  Uiso   1.00
H1187  H     0.60558   0.54228   0.81253   0.00000  Uiso   1.00
H1188  H     0.35918   0.54226   0.81256   0.00000  Uiso   1.00
H1189  H     0.39454   0.45766   0.68742   0.00000  Uiso   1.00
H1190  H     0.64086   0.45787   0.68728   0.00000  Uiso   1.00
H1191  H     0.60515   0.45102   0.91657   0.00000  Uiso   1.00
N1192  N     0.38265   0.49999   0.74999   0.00000  Uiso   1.00
N1193  N     0.61735   0.50002   0.74999   0.00000  Uiso   1.00
O1194  O     0.46042   0.56011   0.75001   0.00000  Uiso   1.00
O1195  O     0.43206   0.55384   0.55443   0.00000  Uiso   1.00
O1196  O     0.55483   0.62520   0.80610   0.00000  Uiso   1.00
O1197  O     0.53961   0.56012   0.75001   0.00000  Uiso   1.00
O1198  O     0.44108   0.49998   0.82549   0.00000  Uiso   1.00
O1199  O     0.52027   0.49999   0.82549   0.00000  Uiso   1.00
O1200  O     0.46039   0.43988   0.75000   0.00000  Uiso   1.00
O1201  O     0.53958   0.43989   0.74999   0.00000  Uiso   1.00
O1202  O     0.47973   0.50001   0.67451   0.00000  Uiso   1.00
O1203  O     0.55892   0.50002   0.67451   0.00000  Uiso   1.00
O1204  O     0.64790   0.46715   0.98352   0.00000  Uiso   1.00
C1205  C     0.83310   0.57927   0.75087   0.00000  Uiso   1.00
C1206  C     0.79177   0.50164   0.90719   0.00000  Uiso   1.00
C1207  C     0.86053   0.64551   0.77928   0.00000  Uiso   1.00
C1208  C     0.80713   0.49876   0.85010   0.00000  Uiso   1.00
C1209  C     0.86183   0.35506   0.77685   0.00000  Uiso   1.00
C1210  C     0.83271   0.37616   0.75164   0.00000  Uiso   1.00
C1211  C     0.80257   0.35460   0.72823   0.00000  Uiso   1.00
C1212  C     0.80271   0.64521   0.72846   0.00000  Uiso   1.00
C1213  C     0.83231   0.62388   0.75291   0.00000  Uiso   1.00
C1214  C     0.96539   0.52347   0.78473   0.00000  Uiso   1.00
C1215  C     0.68166   0.52346   0.78474   0.00000  Uiso   1.00
C1216  C     0.81434   0.50634   0.98802   0.00000  Uiso   1.00
C1217  C     0.70131   0.47651   0.71524   0.00000  Uiso   1.00
C1218  C     0.98503   0.47659   0.71518   0.00000  Uiso   1.00
C1219  C     0.83319   0.42072   0.75040   0.00000  Uiso   1.00
C1220  C     0.85958   0.49975   0.65003   0.00000  Uiso   1.00
C1221  C     0.93382   0.47808   0.51171   0.00000  Uiso   1.00
C1222  C     0.87463   0.49733   0.59331   0.00000  Uiso   1.00
C1223  C     0.74725   0.52129   0.93151   0.00000  Uiso   1.00
C1224  C     0.73702   0.53550   0.98193   0.00000  Uiso   1.00
C1225  C     0.77047   0.52985   0.51039   0.00000  Uiso   1.00
C1226  C     0.99016   0.42605   0.99593   0.00000  Uiso   1.00
C1227  C     0.82433   0.49178   0.93616   0.00000  Uiso   1.00
C1228  C     0.70948   0.41448   0.96525   0.00000  Uiso   1.00
C1229  C     0.72069   0.36955   0.97461   0.00000  Uiso   1.00
C1230  C     0.71862   0.54877   0.59204   0.00000  Uiso   1.00
C1231  C     0.69210   0.59043   0.60229   0.00000  Uiso   1.00
C1232  C     0.97505   0.58640   0.64287   0.00000  Uiso   1.00
C1233  C     0.85725   0.61156   0.85511   0.00000  Uiso   1.00
C1234  C     0.85800   0.64272   0.89748   0.00000  Uiso   1.00
C1235  C     0.82972   0.62633   0.95137   0.00000  Uiso   1.00
C1236  C     0.84980   0.49789   0.51449   0.00000  Uiso   1.00
C1237  C     0.89680   0.48184   0.98704   0.00000  Uiso   1.00
C1238  C     0.90459   0.46661   0.93700   0.00000  Uiso   1.00
C1239  C     0.86744   0.46853   0.91388   0.00000  Uiso   1.00
C1240  C     0.83872   0.50186   0.56825   0.00000  Uiso   1.00
C1241  C     0.92288   0.48778   0.56452   0.00000  Uiso   1.00
Cu1242 Cu    0.78645   0.49999   0.75000   0.00000  Uiso   1.00
Cu1243 Cu    0.88022   0.50001   0.75000   0.00000  Uiso   1.00
H1244  H     0.95127   0.48522   0.58346   0.00000  Uiso   1.00
H1245  H     0.80123   0.50536   0.59180   0.00000  Uiso   1.00
H1246  H     0.72186   0.52898   0.91004   0.00000  Uiso   1.00
H1247  H     0.70426   0.55390   0.99739   0.00000  Uiso   1.00
H1248  H     0.87350   0.45178   0.87790   0.00000  Uiso   1.00
H1249  H     0.96428   0.40450   0.98520   0.00000  Uiso   1.00
H1250  H     0.98606   0.42263   0.53818   0.00000  Uiso   1.00
H1251  H     0.71508   0.41931   0.92300   0.00000  Uiso   1.00
H1252  H     0.73551   0.43480   0.97733   0.00000  Uiso   1.00
H1253  H     0.71620   0.36416   0.51650   0.00000  Uiso   1.00
H1254  H     0.75922   0.36249   0.95192   0.00000  Uiso   1.00
H1255  H     0.88443   0.37183   0.79593   0.00000  Uiso   1.00
H1256  H     0.69584   0.34845   0.96185   0.00000  Uiso   1.00
H1257  H     0.72463   0.53825   0.62889   0.00000  Uiso   1.00
H1258  H     0.69471   0.52489   0.58204   0.00000  Uiso   1.00
H1259  H     0.71474   0.61281   0.61644   0.00000  Uiso   1.00
H1260  H     0.68736   0.60281   0.56566   0.00000  Uiso   1.00
H1261  H     0.95122   0.56532   0.62862   0.00000  Uiso   1.00
H1262  H     0.95719   0.61720   0.65024   0.00000  Uiso   1.00
H1263  H     0.97885   0.57424   0.68003   0.00000  Uiso   1.00
H1264  H     0.87195   0.58172   0.86432   0.00000  Uiso   1.00
H1265  H     0.81852   0.60527   0.85591   0.00000  Uiso   1.00
H1266  H     0.77988   0.37078   0.70871   0.00000  Uiso   1.00
H1267  H     0.89666   0.64899   0.89621   0.00000  Uiso   1.00
H1268  H     0.84116   0.33888   0.89034   0.00000  Uiso   1.00
H1269  H     0.79094   0.61964   0.95353   0.00000  Uiso   1.00
H1270  H     0.83002   0.64985   0.98118   0.00000  Uiso   1.00
H1271  H     0.84715   0.59764   0.96008   0.00000  Uiso   1.00
H1272  H     0.78036   0.62884   0.70874   0.00000  Uiso   1.00
H1273  H     0.93891   0.54228   0.81253   0.00000  Uiso   1.00
H1274  H     0.69251   0.54226   0.81256   0.00000  Uiso   1.00
H1275  H     0.72787   0.45766   0.68742   0.00000  Uiso   1.00
H1276  H     0.97419   0.45787   0.68728   0.00000  Uiso   1.00
H1277  H     0.93848   0.45102   0.91657   0.00000  Uiso   1.00
N1278  N     0.71598   0.49999   0.74999   0.00000  Uiso   1.00
N1279  N     0.95069   0.50002   0.74999   0.00000  Uiso   1.00
O1280  O     0.79375   0.56011   0.75001   0.00000  Uiso   1.00
O1281  O     0.76539   0.55384   0.55443   0.00000  Uiso   1.00
O1282  O     0.88816   0.62520   0.80610   0.00000  Uiso   1.00
O1283  O     0.87294   0.56012   0.75001   0.00000  Uiso   1.00
O1284  O     0.77441   0.49998   0.82549   0.00000  Uiso   1.00
O1285  O     0.85360   0.49999   0.82549   0.00000  Uiso   1.00
O1286  O     0.79373   0.43988   0.75000   0.00000  Uiso   1.00
O1287  O     0.87292   0.43989   0.74999   0.00000  Uiso   1.00
O1288  O     0.81306   0.50001   0.67451   0.00000  Uiso   1.00
O1289  O     0.89225   0.50002   0.67451   0.00000  Uiso   1.00
O1290  O     0.98124   0.46715   0.98352   0.00000  Uiso   1.00
C1291  C     0.16643   0.91260   0.75087   0.00000  Uiso   1.00
C1292  C     0.12510   0.83497   0.90719   0.00000  Uiso   1.00
C1293  C     0.19387   0.97884   0.77928   0.00000  Uiso   1.00
C1294  C     0.14047   0.83209   0.85010   0.00000  Uiso   1.00
C1295  C     0.19516   0.68839   0.77685   0.00000  Uiso   1.00
C1296  C     0.16604   0.70949   0.75164   0.00000  Uiso   1.00
C1297  C     0.13590   0.68794   0.72823   0.00000  Uiso   1.00
C1298  C     0.13604   0.97855   0.72846   0.00000  Uiso   1.00
C1299  C     0.16565   0.95722   0.75291   0.00000  Uiso   1.00
C1300  C     0.29872   0.85680   0.78473   0.00000  Uiso   1.00
C1301  C     0.01499   0.85679   0.78474   0.00000  Uiso   1.00
C1302  C     0.14767   0.83967   0.98802   0.00000  Uiso   1.00
C1303  C     0.03464   0.80984   0.71524   0.00000  Uiso   1.00
C1304  C     0.31836   0.80992   0.71518   0.00000  Uiso   1.00
C1305  C     0.16652   0.75406   0.75040   0.00000  Uiso   1.00
C1306  C     0.19291   0.83309   0.65003   0.00000  Uiso   1.00
C1307  C     0.26715   0.81141   0.51171   0.00000  Uiso   1.00
C1308  C     0.20796   0.83067   0.59331   0.00000  Uiso   1.00
C1309  C     0.08059   0.85462   0.93151   0.00000  Uiso   1.00
C1310  C     0.07035   0.86884   0.98193   0.00000  Uiso   1.00
C1311  C     0.10381   0.86318   0.51039   0.00000  Uiso   1.00
C1312  C     0.32350   0.75939   0.99593   0.00000  Uiso   1.00
C1313  C     0.15767   0.82512   0.93616   0.00000  Uiso   1.00
C1314  C     0.04282   0.74782   0.96525   0.00000  Uiso   1.00
C1315  C     0.05402   0.70288   0.97461   0.00000  Uiso   1.00
C1316  C     0.05195   0.88211   0.59204   0.00000  Uiso   1.00
C1317  C     0.02543   0.92376   0.60229   0.00000  Uiso   1.00
C1318  C     0.30839   0.91974   0.64287   0.00000  Uiso   1.00
C1319  C     0.19059   0.94490   0.85511   0.00000  Uiso   1.00
C1320  C     0.19133   0.97605   0.89748   0.00000  Uiso   1.00
C1321  C     0.16305   0.95967   0.95137   0.00000  Uiso   1.00
C1322  C     0.18313   0.83122   0.51449   0.00000  Uiso   1.00
C1323  C     0.23013   0.81517   0.98704   0.00000  Uiso   1.00
C1324  C     0.23792   0.79994   0.93700   0.00000  Uiso   1.00
C1325  C     0.20077   0.80187   0.91388   0.00000  Uiso   1.00
C1326  C     0.17205   0.83520   0.56825   0.00000  Uiso   1.00
C1327  C     0.25621   0.82111   0.56452   0.00000  Uiso   1.00
Cu1328 Cu    0.11978   0.83333   0.75000   0.00000  Uiso   1.00
Cu1329 Cu    0.21355   0.83334   0.75000   0.00000  Uiso   1.00
H1330  H     0.28460   0.81855   0.58346   0.00000  Uiso   1.00
H1331  H     0.13456   0.83870   0.59180   0.00000  Uiso   1.00
H1332  H     0.05520   0.86232   0.91004   0.00000  Uiso   1.00
H1333  H     0.03759   0.88723   0.99739   0.00000  Uiso   1.00
H1334  H     0.20683   0.78512   0.87790   0.00000  Uiso   1.00
H1335  H     0.29761   0.73784   0.98520   0.00000  Uiso   1.00
H1336  H     0.31939   0.75597   0.53818   0.00000  Uiso   1.00
H1337  H     0.04841   0.75264   0.92300   0.00000  Uiso   1.00
H1338  H     0.06884   0.76813   0.97733   0.00000  Uiso   1.00
H1339  H     0.04953   0.69749   0.51650   0.00000  Uiso   1.00
H1340  H     0.09255   0.69582   0.95192   0.00000  Uiso   1.00
H1341  H     0.21776   0.70516   0.79593   0.00000  Uiso   1.00
H1342  H     0.02917   0.68178   0.96185   0.00000  Uiso   1.00
H1343  H     0.05796   0.87158   0.62889   0.00000  Uiso   1.00
H1344  H     0.02804   0.85822   0.58204   0.00000  Uiso   1.00
H1345  H     0.04807   0.94615   0.61644   0.00000  Uiso   1.00
H1346  H     0.02069   0.93615   0.56566   0.00000  Uiso   1.00
H1347  H     0.28455   0.89866   0.62862   0.00000  Uiso   1.00
H1348  H     0.29053   0.95053   0.65024   0.00000  Uiso   1.00
H1349  H     0.31218   0.90757   0.68003   0.00000  Uiso   1.00
H1350  H     0.20528   0.91505   0.86432   0.00000  Uiso   1.00
H1351  H     0.15185   0.93860   0.85591   0.00000  Uiso   1.00
H1352  H     0.11321   0.70412   0.70871   0.00000  Uiso   1.00
H1353  H     0.22999   0.98233   0.89621   0.00000  Uiso   1.00
H1354  H     0.17450   0.67221   0.89034   0.00000  Uiso   1.00
H1355  H     0.12428   0.95297   0.95353   0.00000  Uiso   1.00
H1356  H     0.16335   0.98318   0.98118   0.00000  Uiso   1.00
H1357  H     0.18048   0.93098   0.96008   0.00000  Uiso   1.00
H1358  H     0.11369   0.96217   0.70874   0.00000  Uiso   1.00
H1359  H     0.27224   0.87561   0.81253   0.00000  Uiso   1.00
H1360  H     0.02584   0.87559   0.81256   0.00000  Uiso   1.00
H1361  H     0.06121   0.79099   0.68742   0.00000  Uiso   1.00
H1362  H     0.30753   0.79120   0.68728   0.00000  Uiso   1.00
H1363  H     0.27181   0.78436   0.91657   0.00000  Uiso   1.00
N1364  N     0.04931   0.83332   0.74999   0.00000  Uiso   1.00
N1365  N     0.28402   0.83335   0.74999   0.00000  Uiso   1.00
O1366  O     0.12708   0.89345   0.75001   0.00000  Uiso   1.00
O1367  O     0.09872   0.88717   0.55443   0.00000  Uiso   1.00
O1368  O     0.22150   0.95853   0.80610   0.00000  Uiso   1.00
O1369  O     0.20627   0.89346   0.75001   0.00000  Uiso   1.00
O1370  O     0.10775   0.83332   0.82549   0.00000  Uiso   1.00
O1371  O     0.18694   0.83333   0.82549   0.00000  Uiso   1.00
O1372  O     0.12706   0.77321   0.75000   0.00000  Uiso   1.00
O1373  O     0.20625   0.77322   0.74999   0.00000  Uiso   1.00
O1374  O     0.14640   0.83334   0.67451   0.00000  Uiso   1.00
O1375  O     0.22559   0.83335   0.67451   0.00000  Uiso   1.00
O1376  O     0.31457   0.80049   0.98352   0.00000  Uiso   1.00
C1377  C     0.49977   0.91260   0.75087   0.00000  Uiso   1.00
C1378  C     0.45844   0.83497   0.90719   0.00000  Uiso   1.00
C1379  C     0.52720   0.97884   0.77928   0.00000  Uiso   1.00
C1380  C     0.47380   0.83209   0.85010   0.00000  Uiso   1.00
C1381  C     0.52850   0.68839   0.77685   0.00000  Uiso   1.00
C1382  C     0.49938   0.70949   0.75164   0.00000  Uiso   1.00
C1383  C     0.46923   0.68794   0.72823   0.00000  Uiso   1.00
C1384  C     0.46937   0.97855   0.72846   0.00000  Uiso   1.00
C1385  C     0.49898   0.95722   0.75291   0.00000  Uiso   1.00
C1386  C     0.63206   0.85680   0.78473   0.00000  Uiso   1.00
C1387  C     0.34833   0.85679   0.78474   0.00000  Uiso   1.00
C1388  C     0.48101   0.83967   0.98802   0.00000  Uiso   1.00
C1389  C     0.36797   0.80984   0.71524   0.00000  Uiso   1.00
C1390  C     0.65169   0.80992   0.71518   0.00000  Uiso   1.00
C1391  C     0.49985   0.75406   0.75040   0.00000  Uiso   1.00
C1392  C     0.52624   0.83309   0.65003   0.00000  Uiso   1.00
C1393  C     0.60048   0.81141   0.51171   0.00000  Uiso   1.00
C1394  C     0.54130   0.83067   0.59331   0.00000  Uiso   1.00
C1395  C     0.41392   0.85462   0.93151   0.00000  Uiso   1.00
C1396  C     0.40369   0.86884   0.98193   0.00000  Uiso   1.00
C1397  C     0.43714   0.86318   0.51039   0.00000  Uiso   1.00
C1398  C     0.65683   0.75939   0.99593   0.00000  Uiso   1.00
C1399  C     0.49100   0.82512   0.93616   0.00000  Uiso   1.00
C1400  C     0.37615   0.74782   0.96525   0.00000  Uiso   1.00
C1401  C     0.38735   0.70288   0.97461   0.00000  Uiso   1.00
C1402  C     0.38528   0.88211   0.59204   0.00000  Uiso   1.00
C1403  C     0.35877   0.92376   0.60229   0.00000  Uiso   1.00
C1404  C     0.64172   0.91974   0.64287   0.00000  Uiso   1.00
C1405  C     0.52392   0.94490   0.85511   0.00000  Uiso   1.00
C1406  C     0.52466   0.97605   0.89748   0.00000  Uiso   1.00
C1407  C     0.49638   0.95967   0.95137   0.00000  Uiso   1.00
C1408  C     0.51646   0.83122   0.51449   0.00000  Uiso   1.00
C1409  C     0.56346   0.81517   0.98704   0.00000  Uiso   1.00
C1410  C     0.57126   0.79994   0.93700   0.00000  Uiso   1.00
C1411  C     0.53410   0.80187   0.91388   0.00000  Uiso   1.00
C1412  C     0.50539   0.83520   0.56825   0.00000  Uiso   1.00
C1413  C     0.58955   0.82111   0.56452   0.00000  Uiso   1.00
Cu1414 Cu    0.45311   0.83333   0.75000   0.00000  Uiso   1.00
Cu1415 Cu    0.54689   0.83334   0.75000   0.00000  Uiso   1.00
H1416  H     0.61794   0.81855   0.58346   0.00000  Uiso   1.00
H1417  H     0.46790   0.83870   0.59180   0.00000  Uiso   1.00
H1418  H     0.38853   0.86232   0.91004   0.00000  Uiso   1.00
H1419  H     0.37092   0.88723   0.99739   0.00000  Uiso   1.00
H1420  H     0.54016   0.78512   0.87790   0.00000  Uiso   1.00
H1421  H     0.63095   0.73784   0.98520   0.00000  Uiso   1.00
H1422  H     0.65272   0.75597   0.53818   0.00000  Uiso   1.00
H1423  H     0.38175   0.75264   0.92300   0.00000  Uiso   1.00
H1424  H     0.40217   0.76813   0.97733   0.00000  Uiso   1.00
H1425  H     0.38287   0.69749   0.51650   0.00000  Uiso   1.00
H1426  H     0.42588   0.69582   0.95192   0.00000  Uiso   1.00
H1427  H     0.55110   0.70516   0.79593   0.00000  Uiso   1.00
H1428  H     0.36250   0.68178   0.96185   0.00000  Uiso   1.00
H1429  H     0.39129   0.87158   0.62889   0.00000  Uiso   1.00
H1430  H     0.36138   0.85822   0.58204   0.00000  Uiso   1.00
H1431  H     0.38141   0.94615   0.61644   0.00000  Uiso   1.00
H1432  H     0.35403   0.93615   0.56566   0.00000  Uiso   1.00
H1433  H     0.61789   0.89866   0.62862   0.00000  Uiso   1.00
H1434  H     0.62386   0.95053   0.65024   0.00000  Uiso   1.00
H1435  H     0.64551   0.90757   0.68003   0.00000  Uiso   1.00
H1436  H     0.53861   0.91505   0.86432   0.00000  Uiso   1.00
H1437  H     0.48518   0.93860   0.85591   0.00000  Uiso   1.00
H1438  H     0.44655   0.70412   0.70871   0.00000  Uiso   1.00
H1439  H     0.56333   0.98233   0.89621   0.00000  Uiso   1.00
H1440  H     0.50783   0.67221   0.89034   0.00000  Uiso   1.00
H1441  H     0.45761   0.95297   0.95353   0.00000  Uiso   1.00
H1442  H     0.49668   0.98318   0.98118   0.00000  Uiso   1.00
H1443  H     0.51382   0.93098   0.96008   0.00000  Uiso   1.00
H1444  H     0.44703   0.96217   0.70874   0.00000  Uiso   1.00
H1445  H     0.60558   0.87561   0.81253   0.00000  Uiso   1.00
H1446  H     0.35918   0.87559   0.81256   0.00000  Uiso   1.00
H1447  H     0.39454   0.79099   0.68742   0.00000  Uiso   1.00
H1448  H     0.64086   0.79120   0.68728   0.00000  Uiso   1.00
H1449  H     0.60515   0.78436   0.91657   0.00000  Uiso   1.00
N1450  N     0.38265   0.83332   0.74999   0.00000  Uiso   1.00
N1451  N     0.61735   0.83335   0.74999   0.00000  Uiso   1.00
O1452  O     0.46042   0.89345   0.75001   0.00000  Uiso   1.00
O1453  O     0.43206   0.88717   0.55443   0.00000  Uiso   1.00
O1454  O     0.55483   0.95853   0.80610   0.00000  Uiso   1.00
O1455  O     0.53961   0.89346   0.75001   0.00000  Uiso   1.00
O1456  O     0.44108   0.83332   0.82549   0.00000  Uiso   1.00
O1457  O     0.52027   0.83333   0.82549   0.00000  Uiso   1.00
O1458  O     0.46039   0.77321   0.75000   0.00000  Uiso   1.00
O1459  O     0.53958   0.77322   0.74999   0.00000  Uiso   1.00
O1460  O     0.47973   0.83334   0.67451   0.00000  Uiso   1.00
O1461  O     0.55892   0.83335   0.67451   0.00000  Uiso   1.00
O1462  O     0.64790   0.80049   0.98352   0.00000  Uiso   1.00
C1463  C     0.83310   0.91260   0.75087   0.00000  Uiso   1.00
C1464  C     0.79177   0.83497   0.90719   0.00000  Uiso   1.00
C1465  C     0.86053   0.97884   0.77928   0.00000  Uiso   1.00
C1466  C     0.80713   0.83209   0.85010   0.00000  Uiso   1.00
C1467  C     0.86183   0.68839   0.77685   0.00000  Uiso   1.00
C1468  C     0.83271   0.70949   0.75164   0.00000  Uiso   1.00
C1469  C     0.80257   0.68794   0.72823   0.00000  Uiso   1.00
C1470  C     0.80271   0.97855   0.72846   0.00000  Uiso   1.00
C1471  C     0.83231   0.95722   0.75291   0.00000  Uiso   1.00
C1472  C     0.96539   0.85680   0.78473   0.00000  Uiso   1.00
C1473  C     0.68166   0.85679   0.78474   0.00000  Uiso   1.00
C1474  C     0.81434   0.83967   0.98802   0.00000  Uiso   1.00
C1475  C     0.70131   0.80984   0.71524   0.00000  Uiso   1.00
C1476  C     0.98503   0.80992   0.71518   0.00000  Uiso   1.00
C1477  C     0.83319   0.75406   0.75040   0.00000  Uiso   1.00
C1478  C     0.85958   0.83309   0.65003   0.00000  Uiso   1.00
C1479  C     0.93382   0.81141   0.51171   0.00000  Uiso   1.00
C1480  C     0.87463   0.83067   0.59331   0.00000  Uiso   1.00
C1481  C     0.74725   0.85462   0.93151   0.00000  Uiso   1.00
C1482  C     0.73702   0.86884   0.98193   0.00000  Uiso   1.00
C1483  C     0.77047   0.86318   0.51039   0.00000  Uiso   1.00
C1484  C     0.99016   0.75939   0.99593   0.00000  Uiso   1.00
C1485  C     0.82433   0.82512   0.93616   0.00000  Uiso   1.00
C1486  C     0.70948   0.74782   0.96525   0.00000  Uiso   1.00
C1487  C     0.72069   0.70288   0.97461   0.00000  Uiso   1.00
C1488  C     0.71862   0.88211   0.59204   0.00000  Uiso   1.00
C1489  C     0.69210   0.92376   0.60229   0.00000  Uiso   1.00
C1490  C     0.97505   0.91974   0.64287   0.00000  Uiso   1.00
C1491  C     0.85725   0.94490   0.85511   0.00000  Uiso   1.00
C1492  C     0.85800   0.97605   0.89748   0.00000  Uiso   1.00
C1493  C     0.82972   0.95967   0.95137   0.00000  Uiso   1.00
C1494  C     0.84980   0.83122   0.51449   0.00000  Uiso   1.00
C1495  C     0.89680   0.81517   0.98704   0.00000  Uiso   1.00
C1496  C     0.90459   0.79994   0.93700   0.00000  Uiso   1.00
C1497  C     0.86744   0.80187   0.91388   0.00000  Uiso   1.00
C1498  C     0.83872   0.83520   0.56825   0.00000  Uiso   1.00
C1499  C     0.92288   0.82111   0.56452   0.00000  Uiso   1.00
Cu1500 Cu    0.78645   0.83333   0.75000   0.00000  Uiso   1.00
Cu1501 Cu    0.88022   0.83334   0.75000   0.00000  Uiso   1.00
H1502  H     0.95127   0.81855   0.58346   0.00000  Uiso   1.00
H1503  H     0.80123   0.83870   0.59180   0.00000  Uiso   1.00
H1504  H     0.72186   0.86232   0.91004   0.00000  Uiso   1.00
H1505  H     0.70426   0.88723   0.99739   0.00000  Uiso   1.00
H1506  H     0.87350   0.78512   0.87790   0.00000  Uiso   1.00
H1507  H     0.96428   0.73784   0.98520   0.00000  Uiso   1.00
H1508  H     0.98606   0.75597   0.53818   0.00000  Uiso   1.00
H1509  H     0.71508   0.75264   0.92300   0.00000  Uiso   1.00
H1510  H     0.73551   0.76813   0.97733   0.00000  Uiso   1.00
H1511  H     0.71620   0.69749   0.51650   0.00000  Uiso   1.00
H1512  H     0.75922   0.69582   0.95192   0.00000  Uiso   1.00
H1513  H     0.88443   0.70516   0.79593   0.00000  Uiso   1.00
H1514  H     0.69584   0.68178   0.96185   0.00000  Uiso   1.00
H1515  H     0.72463   0.87158   0.62889   0.00000  Uiso   1.00
H1516  H     0.69471   0.85822   0.58204   0.00000  Uiso   1.00
H1517  H     0.71474   0.94615   0.61644   0.00000  Uiso   1.00
H1518  H     0.68736   0.93615   0.56566   0.00000  Uiso   1.00
H1519  H     0.95122   0.89866   0.62862   0.00000  Uiso   1.00
H1520  H     0.95719   0.95053   0.65024   0.00000  Uiso   1.00
H1521  H     0.97885   0.90757   0.68003   0.00000  Uiso   1.00
H1522  H     0.87195   0.91505   0.86432   0.00000  Uiso   1.00
H1523  H     0.81852   0.93860   0.85591   0.00000  Uiso   1.00
H1524  H     0.77988   0.70412   0.70871   0.00000  Uiso   1.00
H1525  H     0.89666   0.98233   0.89621   0.00000  Uiso   1.00
H1526  H     0.84116   0.67221   0.89034   0.00000  Uiso   1.00
H1527  H     0.79094   0.95297   0.95353   0.00000  Uiso   1.00
H1528  H     0.83002   0.98318   0.98118   0.00000  Uiso   1.00
H1529  H     0.84715   0.93098   0.96008   0.00000  Uiso   1.00
H1530  H     0.78036   0.96217   0.70874   0.00000  Uiso   1.00
H1531  H     0.93891   0.87561   0.81253   0.00000  Uiso   1.00
H1532  H     0.69251   0.87559   0.81256   0.00000  Uiso   1.00
H1533  H     0.72787   0.79099   0.68742   0.00000  Uiso   1.00
H1534  H     0.97419   0.79120   0.68728   0.00000  Uiso   1.00
H1535  H     0.93848   0.78436   0.91657   0.00000  Uiso   1.00
N1536  N     0.71598   0.83332   0.74999   0.00000  Uiso   1.00
N1537  N     0.95069   0.83335   0.74999   0.00000  Uiso   1.00
O1538  O     0.79375   0.89345   0.75001   0.00000  Uiso   1.00
O1539  O     0.76539   0.88717   0.55443   0.00000  Uiso   1.00
O1540  O     0.88816   0.95853   0.80610   0.00000  Uiso   1.00
O1541  O     0.87294   0.89346   0.75001   0.00000  Uiso   1.00
O1542  O     0.77441   0.83332   0.82549   0.00000  Uiso   1.00
O1543  O     0.85360   0.83333   0.82549   0.00000  Uiso   1.00
O1544  O     0.79373   0.77321   0.75000   0.00000  Uiso   1.00
O1545  O     0.87292   0.77322   0.74999   0.00000  Uiso   1.00
O1546  O     0.81306   0.83334   0.67451   0.00000  Uiso   1.00
O1547  O     0.89225   0.83335   0.67451   0.00000  Uiso   1.00
O1548  O     0.98124   0.80049   0.98352   0.00000  Uiso   1.00
loop_
_geom_bond_atom_site_label_1
_geom_bond_atom_site_label_2
_geom_bond_distance
_geom_bond_site_symmetry_2
_ccdc_geom_bond_type
C1     O76     1.288   .     A
C1     C9      1.444   .     S
C1     O79     1.289   .     A
C2     C4      1.471   .     S
C2     C23     1.418   .     A
C2     C19     1.396   .     A
C3     C9      1.411   .     A
C3     O78     1.385   .     S
C3     C263    1.388   .     S
C4     O80     1.299   .     A
C4     O81     1.292   .     A
C5     C6      1.399   .     A
C5     H51     1.084   .     S
C5     C519    1.388   1_545 S
C6     C15     1.442   .     S
C6     C7      1.397   .     A
C7     H62     1.084   .     S
C7     C524    1.382   1_545 S
C8     C9      1.400   .     A
C8     H68     1.084   .     S
C8     C265    1.382   .     S
C10    N75     1.367   .     A
C10    H69     1.079   .     S
C10    C97     1.415   .     S
C11    H70     1.082   .     S
C11    N74     1.366   .     A
C11    C182    1.415   1_455 S
C12    C23     1.422   .     A
C12    C795    1.435   .     S
C12    C806    1.429   .     S
C13    H71     1.082   .     S
C13    N74     1.367   .     A
C13    C186    1.416   1_455 S
C14    H72     1.082   .     S
C14    N75     1.366   .     A
C14    C99     1.416   .     S
C15    O82     1.288   .     A
C15    O83     1.288   .     A
C16    O84     1.292   .     A
C16    O85     1.294   .     A
C16    C18     1.461   .     S
C17    C37     1.399   .     A
C17    C807    1.413   1_554 S
C17    O860    1.384   1_554 S
C18    C37     1.397   .     A
C18    C36     1.395   .     A
C19    C20     1.382   .     A
C19    H42     1.084   .     S
C20    H43     1.081   .     S
C20    C795    1.405   .     S
C21    O77     1.391   .     S
C21    C786    1.435   1_554 S
C21    C794    1.405   1_554 S
C22    O86     1.412   .     S
C22    H45     1.115   .     S
C22    C110    1.528   .     S
C22    H820    1.115   .     S
C23    C35     1.414   .     A
C24    H48     1.111   .     S
C24    C25     1.525   .     S
C24    H47     1.112   .     S
C24    C194    1.528   1_455 S
C25    H50     1.109   .     S
C25    H52     1.111   .     S
C25    H823    1.111   .     S
C26    C27     1.531   .     S
C26    H54     1.116   .     S
C26    O77     1.421   .     S
C26    H53     1.111   .     S
C27    H55     1.112   .     S
C27    H56     1.111   .     S
C27    C200    1.527   1_455 S
C28    H57     1.110   .     S
C28    H59     1.111   .     S
C28    H58     1.110   .     S
C28    C113    1.527   .     S
C29    O78     1.418   .     S
C29    H61     1.117   .     S
C29    C30     1.530   .     S
C29    H60     1.110   .     S
C30    H63     1.112   .     S
C30    C31     1.527   .     S
C30    H322    1.111   .     S
C31    H66     1.110   .     S
C31    H67     1.111   .     S
C31    H65     1.111   .     S
C32    C36     1.394   .     A
C32    C786    1.429   1_554 S
C32    C807    1.422   1_554 S
C33    C34     1.391   .     A
C33    C791    1.413   .     S
C33    C806    1.422   .     S
C34    C35     1.384   .     A
C34    H73     1.084   .     S
C35    H44     1.080   .     S
C36    H41     1.073   .     S
C37    H40     1.083   .     S
Cu38   O76     1.956   .     S
Cu38   Cu39    2.675   .     S
Cu38   N74     2.010   .     S
Cu38   O84     1.946   .     S
Cu38   O80     1.960   .     S
Cu38   O82     1.956   .     S
Cu39   N75     2.010   .     S
Cu39   O81     1.946   .     S
Cu39   O79     1.956   .     S
Cu39   O85     1.960   .     S
Cu39   O83     1.956   .     S
H46    C796    1.115   1_554 S
H49    C799    1.111   1_554 S
H64    C546    1.111   1_545 S
O86    C791    1.384   .     S
C87    O162    1.288   .     A
C87    C95     1.444   .     S
C87    O165    1.289   .     A
C88    C90     1.471   .     S
C88    C109    1.418   .     A
C88    C105    1.396   .     A
C89    C95     1.411   .     A
C89    O164    1.385   .     S
C89    C349    1.388   .     S
C90    O166    1.299   .     A
C90    O167    1.292   .     A
C91    C92     1.399   .     A
C91    H137    1.084   .     S
C91    C605    1.388   1_545 S
C92    C101    1.442   .     S
C92    C93     1.397   .     A
C93    H148    1.084   .     S
C93    C610    1.382   1_545 S
C94    C95     1.400   .     A
C94    H154    1.084   .     S
C94    C351    1.382   .     S
C96    N161    1.367   .     A
C96    H155    1.079   .     S
C96    C183    1.415   .     S
C97    H156    1.082   .     S
C97    N160    1.366   .     A
C98    C109    1.422   .     A
C98    C881    1.435   .     S
C98    C892    1.429   .     S
C99    H157    1.082   .     S
C99    N160    1.367   .     A
C100   H158    1.082   .     S
C100   N161    1.366   .     A
C100   C185    1.416   .     S
C101   O168    1.288   .     A
C101   O169    1.288   .     A
C102   O170    1.292   .     A
C102   O171    1.294   .     A
C102   C104    1.461   .     S
C103   C123    1.399   .     A
C103   C893    1.413   1_554 S
C103   O946    1.384   1_554 S
C104   C123    1.397   .     A
C104   C122    1.395   .     A
C105   C106    1.382   .     A
C105   H128    1.084   .     S
C106   H129    1.081   .     S
C106   C881    1.405   .     S
C107   O163    1.391   .     S
C107   C872    1.435   1_554 S
C107   C880    1.405   1_554 S
C108   O172    1.412   .     S
C108   H131    1.115   .     S
C108   C196    1.528   .     S
C108   H906    1.115   .     S
C109   C121    1.414   .     A
C110   H134    1.111   .     S
C110   C111    1.525   .     S
C110   H133    1.112   .     S
C111   H136    1.109   .     S
C111   H138    1.111   .     S
C111   H909    1.111   .     S
C112   C113    1.531   .     S
C112   H140    1.116   .     S
C112   O163    1.421   .     S
C112   H139    1.111   .     S
C113   H141    1.112   .     S
C113   H142    1.111   .     S
C114   H143    1.110   .     S
C114   H145    1.111   .     S
C114   H144    1.110   .     S
C114   C199    1.527   .     S
C115   O164    1.418   .     S
C115   H147    1.117   .     S
C115   C116    1.530   .     S
C115   H146    1.110   .     S
C116   H149    1.112   .     S
C116   C117    1.527   .     S
C116   H408    1.111   .     S
C117   H152    1.110   .     S
C117   H153    1.111   .     S
C117   H151    1.111   .     S
C118   C122    1.394   .     A
C118   C872    1.429   1_554 S
C118   C893    1.422   1_554 S
C119   C120    1.391   .     A
C119   C877    1.413   .     S
C119   C892    1.422   .     S
C120   C121    1.384   .     A
C120   H159    1.084   .     S
C121   H130    1.080   .     S
C122   H127    1.073   .     S
C123   H126    1.083   .     S
Cu124  O162    1.956   .     S
Cu124  Cu125   2.675   .     S
Cu124  N160    2.010   .     S
Cu124  O170    1.946   .     S
Cu124  O166    1.960   .     S
Cu124  O168    1.956   .     S
Cu125  N161    2.010   .     S
Cu125  O167    1.946   .     S
Cu125  O165    1.956   .     S
Cu125  O171    1.960   .     S
Cu125  O169    1.956   .     S
H132   C882    1.115   1_554 S
H135   C885    1.111   1_554 S
H150   C632    1.111   1_545 S
O172   C877    1.384   .     S
C173   O248    1.288   .     A
C173   C181    1.444   .     S
C173   O251    1.289   .     A
C174   C176    1.471   .     S
C174   C195    1.418   .     A
C174   C191    1.396   .     A
C175   C181    1.411   .     A
C175   O250    1.385   .     S
C175   C435    1.388   .     S
C176   O252    1.299   .     A
C176   O253    1.292   .     A
C177   C178    1.399   .     A
C177   H223    1.084   .     S
C177   C691    1.388   1_545 S
C178   C187    1.442   .     S
C178   C179    1.397   .     A
C179   H234    1.084   .     S
C179   C696    1.382   1_545 S
C180   C181    1.400   .     A
C180   H240    1.084   .     S
C180   C437    1.382   .     S
C182   N247    1.367   .     A
C182   H241    1.079   .     S
C182   C11     1.415   1_655 S
C183   H242    1.082   .     S
C183   N246    1.366   .     A
C184   C195    1.422   .     A
C184   C967    1.435   .     S
C184   C978    1.429   .     S
C185   H243    1.082   .     S
C185   N246    1.367   .     A
C186   H244    1.082   .     S
C186   N247    1.366   .     A
C186   C13     1.416   1_655 S
C187   O254    1.288   .     A
C187   O255    1.288   .     A
C188   O256    1.292   .     A
C188   O257    1.294   .     A
C188   C190    1.461   .     S
C189   C209    1.399   .     A
C189   C979    1.413   1_554 S
C189   O1032   1.384   1_554 S
C190   C209    1.397   .     A
C190   C208    1.395   .     A
C191   C192    1.382   .     A
C191   H214    1.084   .     S
C192   H215    1.081   .     S
C192   C967    1.405   .     S
C193   O249    1.391   .     S
C193   C958    1.435   1_554 S
C193   C966    1.405   1_554 S
C194   O258    1.412   .     S
C194   H217    1.115   .     S
C194   C24     1.528   1_655 S
C194   H992    1.115   .     S
C195   C207    1.414   .     A
C196   H220    1.111   .     S
C196   C197    1.525   .     S
C196   H219    1.112   .     S
C197   H222    1.109   .     S
C197   H224    1.111   .     S
C197   H995    1.111   .     S
C198   C199    1.531   .     S
C198   H226    1.116   .     S
C198   O249    1.421   .     S
C198   H225    1.111   .     S
C199   H227    1.112   .     S
C199   H228    1.111   .     S
C200   H229    1.110   .     S
C200   H231    1.111   .     S
C200   H230    1.110   .     S
C200   C27     1.527   1_655 S
C201   O250    1.418   .     S
C201   H233    1.117   .     S
C201   C202    1.530   .     S
C201   H232    1.110   .     S
C202   H235    1.112   .     S
C202   C203    1.527   .     S
C202   H494    1.111   .     S
C203   H238    1.110   .     S
C203   H239    1.111   .     S
C203   H237    1.111   .     S
C204   C208    1.394   .     A
C204   C958    1.429   1_554 S
C204   C979    1.422   1_554 S
C205   C206    1.391   .     A
C205   C963    1.413   .     S
C205   C978    1.422   .     S
C206   C207    1.384   .     A
C206   H245    1.084   .     S
C207   H216    1.080   .     S
C208   H213    1.073   .     S
C209   H212    1.083   .     S
Cu210  O248    1.956   .     S
Cu210  Cu211   2.675   .     S
Cu210  N246    2.010   .     S
Cu210  O256    1.946   .     S
Cu210  O252    1.960   .     S
Cu210  O254    1.956   .     S
Cu211  N247    2.010   .     S
Cu211  O253    1.946   .     S
Cu211  O251    1.956   .     S
Cu211  O257    1.960   .     S
Cu211  O255    1.956   .     S
H218   C968    1.115   1_554 S
H221   C971    1.111   1_554 S
H236   C718    1.111   1_545 S
O258   C963    1.384   .     S
C259   O334    1.288   .     A
C259   C267    1.444   .     S
C259   O337    1.289   .     A
C260   C262    1.471   .     S
C260   C281    1.418   .     A
C260   C277    1.396   .     A
C261   C267    1.411   .     A
C261   O336    1.385   .     S
C261   C521    1.388   .     S
C262   O338    1.299   .     A
C262   O339    1.292   .     A
C263   C264    1.399   .     A
C263   H309    1.084   .     S
C264   C273    1.442   .     S
C264   C265    1.397   .     A
C265   H320    1.084   .     S
C266   C267    1.400   .     A
C266   H326    1.084   .     S
C266   C523    1.382   .     S
C268   N333    1.367   .     A
C268   H327    1.079   .     S
C268   C355    1.415   .     S
C269   H328    1.082   .     S
C269   N332    1.366   .     A
C269   C440    1.415   1_455 S
C270   C281    1.422   .     A
C270   C1053   1.435   .     S
C270   C1064   1.429   .     S
C271   H329    1.082   .     S
C271   N332    1.367   .     A
C271   C444    1.416   1_455 S
C272   H330    1.082   .     S
C272   N333    1.366   .     A
C272   C357    1.416   .     S
C273   O340    1.288   .     A
C273   O341    1.288   .     A
C274   O342    1.292   .     A
C274   O343    1.294   .     A
C274   C276    1.461   .     S
C275   C295    1.399   .     A
C275   C1065   1.413   1_554 S
C275   O1118   1.384   1_554 S
C276   C295    1.397   .     A
C276   C294    1.395   .     A
C277   C278    1.382   .     A
C277   H300    1.084   .     S
C278   H301    1.081   .     S
C278   C1053   1.405   .     S
C279   O335    1.391   .     S
C279   C1044   1.435   1_554 S
C279   C1052   1.405   1_554 S
C280   O344    1.412   .     S
C280   H303    1.115   .     S
C280   C368    1.528   .     S
C280   H1078   1.115   .     S
C281   C293    1.414   .     A
C282   H306    1.111   .     S
C282   C283    1.525   .     S
C282   H305    1.112   .     S
C282   C452    1.528   1_455 S
C283   H308    1.109   .     S
C283   H310    1.111   .     S
C283   H1081   1.111   .     S
C284   C285    1.531   .     S
C284   H312    1.116   .     S
C284   O335    1.421   .     S
C284   H311    1.111   .     S
C285   H313    1.112   .     S
C285   H314    1.111   .     S
C285   C458    1.527   1_455 S
C286   H315    1.110   .     S
C286   H317    1.111   .     S
C286   H316    1.110   .     S
C286   C371    1.527   .     S
C287   O336    1.418   .     S
C287   H319    1.117   .     S
C287   C288    1.530   .     S
C287   H318    1.110   .     S
C288   H321    1.112   .     S
C288   C289    1.527   .     S
C288   H580    1.111   .     S
C289   H324    1.110   .     S
C289   H325    1.111   .     S
C289   H323    1.111   .     S
C290   C294    1.394   .     A
C290   C1044   1.429   1_554 S
C290   C1065   1.422   1_554 S
C291   C292    1.391   .     A
C291   C1049   1.413   .     S
C291   C1064   1.422   .     S
C292   C293    1.384   .     A
C292   H331    1.084   .     S
C293   H302    1.080   .     S
C294   H299    1.073   .     S
C295   H298    1.083   .     S
Cu296  O334    1.956   .     S
Cu296  Cu297   2.675   .     S
Cu296  N332    2.010   .     S
Cu296  O342    1.946   .     S
Cu296  O338    1.960   .     S
Cu296  O340    1.956   .     S
Cu297  N333    2.010   .     S
Cu297  O339    1.946   .     S
Cu297  O337    1.956   .     S
Cu297  O343    1.960   .     S
Cu297  O341    1.956   .     S
H304   C1054   1.115   1_554 S
H307   C1057   1.111   1_554 S
O344   C1049   1.384   .     S
C345   O420    1.288   .     A
C345   C353    1.444   .     S
C345   O423    1.289   .     A
C346   C348    1.471   .     S
C346   C367    1.418   .     A
C346   C363    1.396   .     A
C347   C353    1.411   .     A
C347   O422    1.385   .     S
C347   C607    1.388   .     S
C348   O424    1.299   .     A
C348   O425    1.292   .     A
C349   C350    1.399   .     A
C349   H395    1.084   .     S
C350   C359    1.442   .     S
C350   C351    1.397   .     A
C351   H406    1.084   .     S
C352   C353    1.400   .     A
C352   H412    1.084   .     S
C352   C609    1.382   .     S
C354   N419    1.367   .     A
C354   H413    1.079   .     S
C354   C441    1.415   .     S
C355   H414    1.082   .     S
C355   N418    1.366   .     A
C356   C367    1.422   .     A
C356   C1139   1.435   .     S
C356   C1150   1.429   .     S
C357   H415    1.082   .     S
C357   N418    1.367   .     A
C358   H416    1.082   .     S
C358   N419    1.366   .     A
C358   C443    1.416   .     S
C359   O426    1.288   .     A
C359   O427    1.288   .     A
C360   O428    1.292   .     A
C360   O429    1.294   .     A
C360   C362    1.461   .     S
C361   C381    1.399   .     A
C361   C1151   1.413   1_554 S
C361   O1204   1.384   1_554 S
C362   C381    1.397   .     A
C362   C380    1.395   .     A
C363   C364    1.382   .     A
C363   H386    1.084   .     S
C364   H387    1.081   .     S
C364   C1139   1.405   .     S
C365   O421    1.391   .     S
C365   C1130   1.435   1_554 S
C365   C1138   1.405   1_554 S
C366   O430    1.412   .     S
C366   H389    1.115   .     S
C366   C454    1.528   .     S
C366   H1164   1.115   .     S
C367   C379    1.414   .     A
C368   H392    1.111   .     S
C368   C369    1.525   .     S
C368   H391    1.112   .     S
C369   H394    1.109   .     S
C369   H396    1.111   .     S
C369   H1167   1.111   .     S
C370   C371    1.531   .     S
C370   H398    1.116   .     S
C370   O421    1.421   .     S
C370   H397    1.111   .     S
C371   H399    1.112   .     S
C371   H400    1.111   .     S
C372   H401    1.110   .     S
C372   H403    1.111   .     S
C372   H402    1.110   .     S
C372   C457    1.527   .     S
C373   O422    1.418   .     S
C373   H405    1.117   .     S
C373   C374    1.530   .     S
C373   H404    1.110   .     S
C374   H407    1.112   .     S
C374   C375    1.527   .     S
C374   H666    1.111   .     S
C375   H410    1.110   .     S
C375   H411    1.111   .     S
C375   H409    1.111   .     S
C376   C380    1.394   .     A
C376   C1130   1.429   1_554 S
C376   C1151   1.422   1_554 S
C377   C378    1.391   .     A
C377   C1135   1.413   .     S
C377   C1150   1.422   .     S
C378   C379    1.384   .     A
C378   H417    1.084   .     S
C379   H388    1.080   .     S
C380   H385    1.073   .     S
C381   H384    1.083   .     S
Cu382  O420    1.956   .     S
Cu382  Cu383   2.675   .     S
Cu382  N418    2.010   .     S
Cu382  O428    1.946   .     S
Cu382  O424    1.960   .     S
Cu382  O426    1.956   .     S
Cu383  N419    2.010   .     S
Cu383  O425    1.946   .     S
Cu383  O423    1.956   .     S
Cu383  O429    1.960   .     S
Cu383  O427    1.956   .     S
H390   C1140   1.115   1_554 S
H393   C1143   1.111   1_554 S
O430   C1135   1.384   .     S
C431   O506    1.288   .     A
C431   C439    1.444   .     S
C431   O509    1.289   .     A
C432   C434    1.471   .     S
C432   C453    1.418   .     A
C432   C449    1.396   .     A
C433   C439    1.411   .     A
C433   O508    1.385   .     S
C433   C693    1.388   .     S
C434   O510    1.299   .     A
C434   O511    1.292   .     A
C435   C436    1.399   .     A
C435   H481    1.084   .     S
C436   C445    1.442   .     S
C436   C437    1.397   .     A
C437   H492    1.084   .     S
C438   C439    1.400   .     A
C438   H498    1.084   .     S
C438   C695    1.382   .     S
C440   N505    1.367   .     A
C440   H499    1.079   .     S
C440   C269    1.415   1_655 S
C441   H500    1.082   .     S
C441   N504    1.366   .     A
C442   C453    1.422   .     A
C442   C1225   1.435   .     S
C442   C1236   1.429   .     S
C443   H501    1.082   .     S
C443   N504    1.367   .     A
C444   H502    1.082   .     S
C444   N505    1.366   .     A
C444   C271    1.416   1_655 S
C445   O512    1.288   .     A
C445   O513    1.288   .     A
C446   O514    1.292   .     A
C446   O515    1.294   .     A
C446   C448    1.461   .     S
C447   C467    1.399   .     A
C447   C1237   1.413   1_554 S
C447   O1290   1.384   1_554 S
C448   C467    1.397   .     A
C448   C466    1.395   .     A
C449   C450    1.382   .     A
C449   H472    1.084   .     S
C450   H473    1.081   .     S
C450   C1225   1.405   .     S
C451   O507    1.391   .     S
C451   C1216   1.435   1_554 S
C451   C1224   1.405   1_554 S
C452   O516    1.412   .     S
C452   H475    1.115   .     S
C452   C282    1.528   1_655 S
C452   H1250   1.115   .     S
C453   C465    1.414   .     A
C454   H478    1.111   .     S
C454   C455    1.525   .     S
C454   H477    1.112   .     S
C455   H480    1.109   .     S
C455   H482    1.111   .     S
C455   H1253   1.111   .     S
C456   C457    1.531   .     S
C456   H484    1.116   .     S
C456   O507    1.421   .     S
C456   H483    1.111   .     S
C457   H485    1.112   .     S
C457   H486    1.111   .     S
C458   H487    1.110   .     S
C458   H489    1.111   .     S
C458   H488    1.110   .     S
C458   C285    1.527   1_655 S
C459   O508    1.418   .     S
C459   H491    1.117   .     S
C459   C460    1.530   .     S
C459   H490    1.110   .     S
C460   H493    1.112   .     S
C460   C461    1.527   .     S
C460   H752    1.111   .     S
C461   H496    1.110   .     S
C461   H497    1.111   .     S
C461   H495    1.111   .     S
C462   C466    1.394   .     A
C462   C1216   1.429   1_554 S
C462   C1237   1.422   1_554 S
C463   C464    1.391   .     A
C463   C1221   1.413   .     S
C463   C1236   1.422   .     S
C464   C465    1.384   .     A
C464   H503    1.084   .     S
C465   H474    1.080   .     S
C466   H471    1.073   .     S
C467   H470    1.083   .     S
Cu468  O506    1.956   .     S
Cu468  Cu469   2.675   .     S
Cu468  N504    2.010   .     S
Cu468  O514    1.946   .     S
Cu468  O510    1.960   .     S
Cu468  O512    1.956   .     S
Cu469  N505    2.010   .     S
Cu469  O511    1.946   .     S
Cu469  O509    1.956   .     S
Cu469  O515    1.960   .     S
Cu469  O513    1.956   .     S
H476   C1226   1.115   1_554 S
H479   C1229   1.111   1_554 S
O516   C1221   1.384   .     S
C517   O592    1.288   .     A
C517   C525    1.444   .     S
C517   O595    1.289   .     A
C518   C520    1.471   .     S
C518   C539    1.418   .     A
C518   C535    1.396   .     A
C519   C525    1.411   .     A
C519   O594    1.385   .     S
C519   C5      1.388   1_565 S
C520   O596    1.299   .     A
C520   O597    1.292   .     A
C521   C522    1.399   .     A
C521   H567    1.084   .     S
C522   C531    1.442   .     S
C522   C523    1.397   .     A
C523   H578    1.084   .     S
C524   C525    1.400   .     A
C524   H584    1.084   .     S
C524   C7      1.382   1_565 S
C526   N591    1.367   .     A
C526   H585    1.079   .     S
C526   C613    1.415   .     S
C527   H586    1.082   .     S
C527   N590    1.366   .     A
C527   C698    1.415   1_455 S
C528   C539    1.422   .     A
C528   C1311   1.435   .     S
C528   C1322   1.429   .     S
C529   H587    1.082   .     S
C529   N590    1.367   .     A
C529   C702    1.416   1_455 S
C530   H588    1.082   .     S
C530   N591    1.366   .     A
C530   C615    1.416   .     S
C531   O598    1.288   .     A
C531   O599    1.288   .     A
C532   O600    1.292   .     A
C532   O601    1.294   .     A
C532   C534    1.461   .     S
C533   C553    1.399   .     A
C533   C1323   1.413   1_554 S
C533   O1376   1.384   1_554 S
C534   C553    1.397   .     A
C534   C552    1.395   .     A
C535   C536    1.382   .     A
C535   H558    1.084   .     S
C536   H559    1.081   .     S
C536   C1311   1.405   .     S
C537   O593    1.391   .     S
C537   C1302   1.435   1_554 S
C537   C1310   1.405   1_554 S
C538   O602    1.412   .     S
C538   H561    1.115   .     S
C538   C626    1.528   .     S
C538   H1336   1.115   .     S
C539   C551    1.414   .     A
C540   H564    1.111   .     S
C540   C541    1.525   .     S
C540   H563    1.112   .     S
C540   C710    1.528   1_455 S
C541   H566    1.109   .     S
C541   H568    1.111   .     S
C541   H1339   1.111   .     S
C542   C543    1.531   .     S
C542   H570    1.116   .     S
C542   O593    1.421   .     S
C542   H569    1.111   .     S
C543   H571    1.112   .     S
C543   H572    1.111   .     S
C543   C716    1.527   1_455 S
C544   H573    1.110   .     S
C544   H575    1.111   .     S
C544   H574    1.110   .     S
C544   C629    1.527   .     S
C545   O594    1.418   .     S
C545   H577    1.117   .     S
C545   C546    1.530   .     S
C545   H576    1.110   .     S
C546   H579    1.112   .     S
C546   C547    1.527   .     S
C546   H64     1.111   1_565 S
C547   H582    1.110   .     S
C547   H583    1.111   .     S
C547   H581    1.111   .     S
C548   C552    1.394   .     A
C548   C1302   1.429   1_554 S
C548   C1323   1.422   1_554 S
C549   C550    1.391   .     A
C549   C1307   1.413   .     S
C549   C1322   1.422   .     S
C550   C551    1.384   .     A
C550   H589    1.084   .     S
C551   H560    1.080   .     S
C552   H557    1.073   .     S
C553   H556    1.083   .     S
Cu554  O592    1.956   .     S
Cu554  Cu555   2.675   .     S
Cu554  N590    2.010   .     S
Cu554  O600    1.946   .     S
Cu554  O596    1.960   .     S
Cu554  O598    1.956   .     S
Cu555  N591    2.010   .     S
Cu555  O597    1.946   .     S
Cu555  O595    1.956   .     S
Cu555  O601    1.960   .     S
Cu555  O599    1.956   .     S
H562   C1312   1.115   1_554 S
H565   C1315   1.111   1_554 S
O602   C1307   1.384   .     S
C603   O678    1.288   .     A
C603   C611    1.444   .     S
C603   O681    1.289   .     A
C604   C606    1.471   .     S
C604   C625    1.418   .     A
C604   C621    1.396   .     A
C605   C611    1.411   .     A
C605   O680    1.385   .     S
C605   C91     1.388   1_565 S
C606   O682    1.299   .     A
C606   O683    1.292   .     A
C607   C608    1.399   .     A
C607   H653    1.084   .     S
C608   C617    1.442   .     S
C608   C609    1.397   .     A
C609   H664    1.084   .     S
C610   C611    1.400   .     A
C610   H670    1.084   .     S
C610   C93     1.382   1_565 S
C612   N677    1.367   .     A
C612   H671    1.079   .     S
C612   C699    1.415   .     S
C613   H672    1.082   .     S
C613   N676    1.366   .     A
C614   C625    1.422   .     A
C614   C1397   1.435   .     S
C614   C1408   1.429   .     S
C615   H673    1.082   .     S
C615   N676    1.367   .     A
C616   H674    1.082   .     S
C616   N677    1.366   .     A
C616   C701    1.416   .     S
C617   O684    1.288   .     A
C617   O685    1.288   .     A
C618   O686    1.292   .     A
C618   O687    1.294   .     A
C618   C620    1.461   .     S
C619   C639    1.399   .     A
C619   C1409   1.413   1_554 S
C619   O1462   1.384   1_554 S
C620   C639    1.397   .     A
C620   C638    1.395   .     A
C621   C622    1.382   .     A
C621   H644    1.084   .     S
C622   H645    1.081   .     S
C622   C1397   1.405   .     S
C623   O679    1.391   .     S
C623   C1388   1.435   1_554 S
C623   C1396   1.405   1_554 S
C624   O688    1.412   .     S
C624   H647    1.115   .     S
C624   C712    1.528   .     S
C624   H1422   1.115   .     S
C625   C637    1.414   .     A
C626   H650    1.111   .     S
C626   C627    1.525   .     S
C626   H649    1.112   .     S
C627   H652    1.109   .     S
C627   H654    1.111   .     S
C627   H1425   1.111   .     S
C628   C629    1.531   .     S
C628   H656    1.116   .     S
C628   O679    1.421   .     S
C628   H655    1.111   .     S
C629   H657    1.112   .     S
C629   H658    1.111   .     S
C630   H659    1.110   .     S
C630   H661    1.111   .     S
C630   H660    1.110   .     S
C630   C715    1.527   .     S
C631   O680    1.418   .     S
C631   H663    1.117   .     S
C631   C632    1.530   .     S
C631   H662    1.110   .     S
C632   H665    1.112   .     S
C632   C633    1.527   .     S
C632   H150    1.111   1_565 S
C633   H668    1.110   .     S
C633   H669    1.111   .     S
C633   H667    1.111   .     S
C634   C638    1.394   .     A
C634   C1388   1.429   1_554 S
C634   C1409   1.422   1_554 S
C635   C636    1.391   .     A
C635   C1393   1.413   .     S
C635   C1408   1.422   .     S
C636   C637    1.384   .     A
C636   H675    1.084   .     S
C637   H646    1.080   .     S
C638   H643    1.073   .     S
C639   H642    1.083   .     S
Cu640  O678    1.956   .     S
Cu640  Cu641   2.675   .     S
Cu640  N676    2.010   .     S
Cu640  O686    1.946   .     S
Cu640  O682    1.960   .     S
Cu640  O684    1.956   .     S
Cu641  N677    2.010   .     S
Cu641  O683    1.946   .     S
Cu641  O681    1.956   .     S
Cu641  O687    1.960   .     S
Cu641  O685    1.956   .     S
H648   C1398   1.115   1_554 S
H651   C1401   1.111   1_554 S
O688   C1393   1.384   .     S
C689   O764    1.288   .     A
C689   C697    1.444   .     S
C689   O767    1.289   .     A
C690   C692    1.471   .     S
C690   C711    1.418   .     A
C690   C707    1.396   .     A
C691   C697    1.411   .     A
C691   O766    1.385   .     S
C691   C177    1.388   1_565 S
C692   O768    1.299   .     A
C692   O769    1.292   .     A
C693   C694    1.399   .     A
C693   H739    1.084   .     S
C694   C703    1.442   .     S
C694   C695    1.397   .     A
C695   H750    1.084   .     S
C696   C697    1.400   .     A
C696   H756    1.084   .     S
C696   C179    1.382   1_565 S
C698   N763    1.367   .     A
C698   H757    1.079   .     S
C698   C527    1.415   1_655 S
C699   H758    1.082   .     S
C699   N762    1.366   .     A
C700   C711    1.422   .     A
C700   C1483   1.435   .     S
C700   C1494   1.429   .     S
C701   H759    1.082   .     S
C701   N762    1.367   .     A
C702   H760    1.082   .     S
C702   N763    1.366   .     A
C702   C529    1.416   1_655 S
C703   O770    1.288   .     A
C703   O771    1.288   .     A
C704   O772    1.292   .     A
C704   O773    1.294   .     A
C704   C706    1.461   .     S
C705   C725    1.399   .     A
C705   C1495   1.413   1_554 S
C705   O1548   1.384   1_554 S
C706   C725    1.397   .     A
C706   C724    1.395   .     A
C707   C708    1.382   .     A
C707   H730    1.084   .     S
C708   H731    1.081   .     S
C708   C1483   1.405   .     S
C709   O765    1.391   .     S
C709   C1474   1.435   1_554 S
C709   C1482   1.405   1_554 S
C710   O774    1.412   .     S
C710   H733    1.115   .     S
C710   C540    1.528   1_655 S
C710   H1508   1.115   .     S
C711   C723    1.414   .     A
C712   H736    1.111   .     S
C712   C713    1.525   .     S
C712   H735    1.112   .     S
C713   H738    1.109   .     S
C713   H740    1.111   .     S
C713   H1511   1.111   .     S
C714   C715    1.531   .     S
C714   H742    1.116   .     S
C714   O765    1.421   .     S
C714   H741    1.111   .     S
C715   H743    1.112   .     S
C715   H744    1.111   .     S
C716   H745    1.110   .     S
C716   H747    1.111   .     S
C716   H746    1.110   .     S
C716   C543    1.527   1_655 S
C717   O766    1.418   .     S
C717   H749    1.117   .     S
C717   C718    1.530   .     S
C717   H748    1.110   .     S
C718   H751    1.112   .     S
C718   C719    1.527   .     S
C718   H236    1.111   1_565 S
C719   H754    1.110   .     S
C719   H755    1.111   .     S
C719   H753    1.111   .     S
C720   C724    1.394   .     A
C720   C1474   1.429   1_554 S
C720   C1495   1.422   1_554 S
C721   C722    1.391   .     A
C721   C1479   1.413   .     S
C721   C1494   1.422   .     S
C722   C723    1.384   .     A
C722   H761    1.084   .     S
C723   H732    1.080   .     S
C724   H729    1.073   .     S
C725   H728    1.083   .     S
Cu726  O764    1.956   .     S
Cu726  Cu727   2.675   .     S
Cu726  N762    2.010   .     S
Cu726  O772    1.946   .     S
Cu726  O768    1.960   .     S
Cu726  O770    1.956   .     S
Cu727  N763    2.010   .     S
Cu727  O769    1.946   .     S
Cu727  O767    1.956   .     S
Cu727  O773    1.960   .     S
Cu727  O771    1.956   .     S
H734   C1484   1.115   1_554 S
H737   C1487   1.111   1_554 S
O774   C1479   1.384   .     S
C775   O850    1.288   .     A
C775   C783    1.444   .     S
C775   O853    1.289   .     A
C776   C778    1.471   .     S
C776   C797    1.418   .     A
C776   C793    1.396   .     A
C777   C783    1.411   .     A
C777   O852    1.385   .     S
C777   C1037   1.388   .     S
C778   O854    1.299   .     A
C778   O855    1.292   .     A
C779   C780    1.399   .     A
C779   H825    1.084   .     S
C779   C1293   1.388   1_545 S
C780   C789    1.442   .     S
C780   C781    1.397   .     A
C781   H836    1.084   .     S
C781   C1298   1.382   1_545 S
C782   C783    1.400   .     A
C782   H842    1.084   .     S
C782   C1039   1.382   .     S
C784   N849    1.367   .     A
C784   H843    1.079   .     S
C784   C871    1.415   .     S
C785   H844    1.082   .     S
C785   N848    1.366   .     A
C785   C956    1.415   1_455 S
C786   C797    1.422   .     A
C786   C21     1.435   1_556 S
C786   C32     1.429   1_556 S
C787   H845    1.082   .     S
C787   N848    1.367   .     A
C787   C960    1.416   1_455 S
C788   H846    1.082   .     S
C788   N849    1.366   .     A
C788   C873    1.416   .     S
C789   O856    1.288   .     A
C789   O857    1.288   .     A
C790   O858    1.292   .     A
C790   O859    1.294   .     A
C790   C792    1.461   .     S
C791   C811    1.399   .     A
C792   C811    1.397   .     A
C792   C810    1.395   .     A
C793   C794    1.382   .     A
C793   H816    1.084   .     S
C794   H817    1.081   .     S
C794   C21     1.405   1_556 S
C795   O851    1.391   .     S
C796   O860    1.412   .     S
C796   H819    1.115   .     S
C796   C884    1.528   .     S
C796   H46     1.115   1_556 S
C797   C809    1.414   .     A
C798   H822    1.111   .     S
C798   C799    1.525   .     S
C798   H821    1.112   .     S
C798   C968    1.528   1_455 S
C799   H824    1.109   .     S
C799   H826    1.111   .     S
C799   H49     1.111   1_556 S
C800   C801    1.531   .     S
C800   H828    1.116   .     S
C800   O851    1.421   .     S
C800   H827    1.111   .     S
C801   H829    1.112   .     S
C801   H830    1.111   .     S
C801   C974    1.527   1_455 S
C802   H831    1.110   .     S
C802   H833    1.111   .     S
C802   H832    1.110   .     S
C802   C887    1.527   .     S
C803   O852    1.418   .     S
C803   H835    1.117   .     S
C803   C804    1.530   .     S
C803   H834    1.110   .     S
C804   H837    1.112   .     S
C804   C805    1.527   .     S
C804   H1096   1.111   .     S
C805   H840    1.110   .     S
C805   H841    1.111   .     S
C805   H839    1.111   .     S
C806   C810    1.394   .     A
C807   C808    1.391   .     A
C807   C17     1.413   1_556 S
C807   C32     1.422   1_556 S
C808   C809    1.384   .     A
C808   H847    1.084   .     S
C809   H818    1.080   .     S
C810   H815    1.073   .     S
C811   H814    1.083   .     S
Cu812  O850    1.956   .     S
Cu812  Cu813   2.675   .     S
Cu812  N848    2.010   .     S
Cu812  O858    1.946   .     S
Cu812  O854    1.960   .     S
Cu812  O856    1.956   .     S
Cu813  N849    2.010   .     S
Cu813  O855    1.946   .     S
Cu813  O853    1.956   .     S
Cu813  O859    1.960   .     S
Cu813  O857    1.956   .     S
H838   C1320   1.111   1_545 S
O860   C17     1.384   1_556 S
C861   O936    1.288   .     A
C861   C869    1.444   .     S
C861   O939    1.289   .     A
C862   C864    1.471   .     S
C862   C883    1.418   .     A
C862   C879    1.396   .     A
C863   C869    1.411   .     A
C863   O938    1.385   .     S
C863   C1123   1.388   .     S
C864   O940    1.299   .     A
C864   O941    1.292   .     A
C865   C866    1.399   .     A
C865   H911    1.084   .     S
C865   C1379   1.388   1_545 S
C866   C875    1.442   .     S
C866   C867    1.397   .     A
C867   H922    1.084   .     S
C867   C1384   1.382   1_545 S
C868   C869    1.400   .     A
C868   H928    1.084   .     S
C868   C1125   1.382   .     S
C870   N935    1.367   .     A
C870   H929    1.079   .     S
C870   C957    1.415   .     S
C871   H930    1.082   .     S
C871   N934    1.366   .     A
C872   C883    1.422   .     A
C872   C107    1.435   1_556 S
C872   C118    1.429   1_556 S
C873   H931    1.082   .     S
C873   N934    1.367   .     A
C874   H932    1.082   .     S
C874   N935    1.366   .     A
C874   C959    1.416   .     S
C875   O942    1.288   .     A
C875   O943    1.288   .     A
C876   O944    1.292   .     A
C876   O945    1.294   .     A
C876   C878    1.461   .     S
C877   C897    1.399   .     A
C878   C897    1.397   .     A
C878   C896    1.395   .     A
C879   C880    1.382   .     A
C879   H902    1.084   .     S
C880   H903    1.081   .     S
C880   C107    1.405   1_556 S
C881   O937    1.391   .     S
C882   O946    1.412   .     S
C882   H905    1.115   .     S
C882   C970    1.528   .     S
C882   H132    1.115   1_556 S
C883   C895    1.414   .     A
C884   H908    1.111   .     S
C884   C885    1.525   .     S
C884   H907    1.112   .     S
C885   H910    1.109   .     S
C885   H912    1.111   .     S
C885   H135    1.111   1_556 S
C886   C887    1.531   .     S
C886   H914    1.116   .     S
C886   O937    1.421   .     S
C886   H913    1.111   .     S
C887   H915    1.112   .     S
C887   H916    1.111   .     S
C888   H917    1.110   .     S
C888   H919    1.111   .     S
C888   H918    1.110   .     S
C888   C973    1.527   .     S
C889   O938    1.418   .     S
C889   H921    1.117   .     S
C889   C890    1.530   .     S
C889   H920    1.110   .     S
C890   H923    1.112   .     S
C890   C891    1.527   .     S
C890   H1182   1.111   .     S
C891   H926    1.110   .     S
C891   H927    1.111   .     S
C891   H925    1.111   .     S
C892   C896    1.394   .     A
C893   C894    1.391   .     A
C893   C103    1.413   1_556 S
C893   C118    1.422   1_556 S
C894   C895    1.384   .     A
C894   H933    1.084   .     S
C895   H904    1.080   .     S
C896   H901    1.073   .     S
C897   H900    1.083   .     S
Cu898  O936    1.956   .     S
Cu898  Cu899   2.675   .     S
Cu898  N934    2.010   .     S
Cu898  O944    1.946   .     S
Cu898  O940    1.960   .     S
Cu898  O942    1.956   .     S
Cu899  N935    2.010   .     S
Cu899  O941    1.946   .     S
Cu899  O939    1.956   .     S
Cu899  O945    1.960   .     S
Cu899  O943    1.956   .     S
H924   C1406   1.111   1_545 S
O946   C103    1.384   1_556 S
C947   O1022   1.288   .     A
C947   C955    1.444   .     S
C947   O1025   1.289   .     A
C948   C950    1.471   .     S
C948   C969    1.418   .     A
C948   C965    1.396   .     A
C949   C955    1.411   .     A
C949   O1024   1.385   .     S
C949   C1209   1.388   .     S
C950   O1026   1.299   .     A
C950   O1027   1.292   .     A
C951   C952    1.399   .     A
C951   H997    1.084   .     S
C951   C1465   1.388   1_545 S
C952   C961    1.442   .     S
C952   C953    1.397   .     A
C953   H1008   1.084   .     S
C953   C1470   1.382   1_545 S
C954   C955    1.400   .     A
C954   H1014   1.084   .     S
C954   C1211   1.382   .     S
C956   N1021   1.367   .     A
C956   H1015   1.079   .     S
C956   C785    1.415   1_655 S
C957   H1016   1.082   .     S
C957   N1020   1.366   .     A
C958   C969    1.422   .     A
C958   C193    1.435   1_556 S
C958   C204    1.429   1_556 S
C959   H1017   1.082   .     S
C959   N1020   1.367   .     A
C960   H1018   1.082   .     S
C960   N1021   1.366   .     A
C960   C787    1.416   1_655 S
C961   O1028   1.288   .     A
C961   O1029   1.288   .     A
C962   O1030   1.292   .     A
C962   O1031   1.294   .     A
C962   C964    1.461   .     S
C963   C983    1.399   .     A
C964   C983    1.397   .     A
C964   C982    1.395   .     A
C965   C966    1.382   .     A
C965   H988    1.084   .     S
C966   H989    1.081   .     S
C966   C193    1.405   1_556 S
C967   O1023   1.391   .     S
C968   O1032   1.412   .     S
C968   H991    1.115   .     S
C968   C798    1.528   1_655 S
C968   H218    1.115   1_556 S
C969   C981    1.414   .     A
C970   H994    1.111   .     S
C970   C971    1.525   .     S
C970   H993    1.112   .     S
C971   H996    1.109   .     S
C971   H998    1.111   .     S
C971   H221    1.111   1_556 S
C972   C973    1.531   .     S
C972   H1000   1.116   .     S
C972   O1023   1.421   .     S
C972   H999    1.111   .     S
C973   H1001   1.112   .     S
C973   H1002   1.111   .     S
C974   H1003   1.110   .     S
C974   H1005   1.111   .     S
C974   H1004   1.110   .     S
C974   C801    1.527   1_655 S
C975   O1024   1.418   .     S
C975   H1007   1.117   .     S
C975   C976    1.530   .     S
C975   H1006   1.110   .     S
C976   H1009   1.112   .     S
C976   C977    1.527   .     S
C976   H1268   1.111   .     S
C977   H1012   1.110   .     S
C977   H1013   1.111   .     S
C977   H1011   1.111   .     S
C978   C982    1.394   .     A
C979   C980    1.391   .     A
C979   C189    1.413   1_556 S
C979   C204    1.422   1_556 S
C980   C981    1.384   .     A
C980   H1019   1.084   .     S
C981   H990    1.080   .     S
C982   H987    1.073   .     S
C983   H986    1.083   .     S
Cu984  O1022   1.956   .     S
Cu984  Cu985   2.675   .     S
Cu984  N1020   2.010   .     S
Cu984  O1030   1.946   .     S
Cu984  O1026   1.960   .     S
Cu984  O1028   1.956   .     S
Cu985  N1021   2.010   .     S
Cu985  O1027   1.946   .     S
Cu985  O1025   1.956   .     S
Cu985  O1031   1.960   .     S
Cu985  O1029   1.956   .     S
H1010  C1492   1.111   1_545 S
O1032  C189    1.384   1_556 S
C1033  O1108   1.288   .     A
C1033  C1041   1.444   .     S
C1033  O1111   1.289   .     A
C1034  C1036   1.471   .     S
C1034  C1055   1.418   .     A
C1034  C1051   1.396   .     A
C1035  C1041   1.411   .     A
C1035  O1110   1.385   .     S
C1035  C1295   1.388   .     S
C1036  O1112   1.299   .     A
C1036  O1113   1.292   .     A
C1037  C1038   1.399   .     A
C1037  H1083   1.084   .     S
C1038  C1047   1.442   .     S
C1038  C1039   1.397   .     A
C1039  H1094   1.084   .     S
C1040  C1041   1.400   .     A
C1040  H1100   1.084   .     S
C1040  C1297   1.382   .     S
C1042  N1107   1.367   .     A
C1042  H1101   1.079   .     S
C1042  C1129   1.415   .     S
C1043  H1102   1.082   .     S
C1043  N1106   1.366   .     A
C1043  C1214   1.415   1_455 S
C1044  C1055   1.422   .     A
C1044  C279    1.435   1_556 S
C1044  C290    1.429   1_556 S
C1045  H1103   1.082   .     S
C1045  N1106   1.367   .     A
C1045  C1218   1.416   1_455 S
C1046  H1104   1.082   .     S
C1046  N1107   1.366   .     A
C1046  C1131   1.416   .     S
C1047  O1114   1.288   .     A
C1047  O1115   1.288   .     A
C1048  O1116   1.292   .     A
C1048  O1117   1.294   .     A
C1048  C1050   1.461   .     S
C1049  C1069   1.399   .     A
C1050  C1069   1.397   .     A
C1050  C1068   1.395   .     A
C1051  C1052   1.382   .     A
C1051  H1074   1.084   .     S
C1052  H1075   1.081   .     S
C1052  C279    1.405   1_556 S
C1053  O1109   1.391   .     S
C1054  O1118   1.412   .     S
C1054  H1077   1.115   .     S
C1054  C1142   1.528   .     S
C1054  H304    1.115   1_556 S
C1055  C1067   1.414   .     A
C1056  H1080   1.111   .     S
C1056  C1057   1.525   .     S
C1056  H1079   1.112   .     S
C1056  C1226   1.528   1_455 S
C1057  H1082   1.109   .     S
C1057  H1084   1.111   .     S
C1057  H307    1.111   1_556 S
C1058  C1059   1.531   .     S
C1058  H1086   1.116   .     S
C1058  O1109   1.421   .     S
C1058  H1085   1.111   .     S
C1059  H1087   1.112   .     S
C1059  H1088   1.111   .     S
C1059  C1232   1.527   1_455 S
C1060  H1089   1.110   .     S
C1060  H1091   1.111   .     S
C1060  H1090   1.110   .     S
C1060  C1145   1.527   .     S
C1061  O1110   1.418   .     S
C1061  H1093   1.117   .     S
C1061  C1062   1.530   .     S
C1061  H1092   1.110   .     S
C1062  H1095   1.112   .     S
C1062  C1063   1.527   .     S
C1062  H1354   1.111   .     S
C1063  H1098   1.110   .     S
C1063  H1099   1.111   .     S
C1063  H1097   1.111   .     S
C1064  C1068   1.394   .     A
C1065  C1066   1.391   .     A
C1065  C275    1.413   1_556 S
C1065  C290    1.422   1_556 S
C1066  C1067   1.384   .     A
C1066  H1105   1.084   .     S
C1067  H1076   1.080   .     S
C1068  H1073   1.073   .     S
C1069  H1072   1.083   .     S
Cu1070 O1108   1.956   .     S
Cu1070 Cu1071  2.675   .     S
Cu1070 N1106   2.010   .     S
Cu1070 O1116   1.946   .     S
Cu1070 O1112   1.960   .     S
Cu1070 O1114   1.956   .     S
Cu1071 N1107   2.010   .     S
Cu1071 O1113   1.946   .     S
Cu1071 O1111   1.956   .     S
Cu1071 O1117   1.960   .     S
Cu1071 O1115   1.956   .     S
O1118  C275    1.384   1_556 S
C1119  O1194   1.288   .     A
C1119  C1127   1.444   .     S
C1119  O1197   1.289   .     A
C1120  C1122   1.471   .     S
C1120  C1141   1.418   .     A
C1120  C1137   1.396   .     A
C1121  C1127   1.411   .     A
C1121  O1196   1.385   .     S
C1121  C1381   1.388   .     S
C1122  O1198   1.299   .     A
C1122  O1199   1.292   .     A
C1123  C1124   1.399   .     A
C1123  H1169   1.084   .     S
C1124  C1133   1.442   .     S
C1124  C1125   1.397   .     A
C1125  H1180   1.084   .     S
C1126  C1127   1.400   .     A
C1126  H1186   1.084   .     S
C1126  C1383   1.382   .     S
C1128  N1193   1.367   .     A
C1128  H1187   1.079   .     S
C1128  C1215   1.415   .     S
C1129  H1188   1.082   .     S
C1129  N1192   1.366   .     A
C1130  C1141   1.422   .     A
C1130  C365    1.435   1_556 S
C1130  C376    1.429   1_556 S
C1131  H1189   1.082   .     S
C1131  N1192   1.367   .     A
C1132  H1190   1.082   .     S
C1132  N1193   1.366   .     A
C1132  C1217   1.416   .     S
C1133  O1200   1.288   .     A
C1133  O1201   1.288   .     A
C1134  O1202   1.292   .     A
C1134  O1203   1.294   .     A
C1134  C1136   1.461   .     S
C1135  C1155   1.399   .     A
C1136  C1155   1.397   .     A
C1136  C1154   1.395   .     A
C1137  C1138   1.382   .     A
C1137  H1160   1.084   .     S
C1138  H1161   1.081   .     S
C1138  C365    1.405   1_556 S
C1139  O1195   1.391   .     S
C1140  O1204   1.412   .     S
C1140  H1163   1.115   .     S
C1140  C1228   1.528   .     S
C1140  H390    1.115   1_556 S
C1141  C1153   1.414   .     A
C1142  H1166   1.111   .     S
C1142  C1143   1.525   .     S
C1142  H1165   1.112   .     S
C1143  H1168   1.109   .     S
C1143  H1170   1.111   .     S
C1143  H393    1.111   1_556 S
C1144  C1145   1.531   .     S
C1144  H1172   1.116   .     S
C1144  O1195   1.421   .     S
C1144  H1171   1.111   .     S
C1145  H1173   1.112   .     S
C1145  H1174   1.111   .     S
C1146  H1175   1.110   .     S
C1146  H1177   1.111   .     S
C1146  H1176   1.110   .     S
C1146  C1231   1.527   .     S
C1147  O1196   1.418   .     S
C1147  H1179   1.117   .     S
C1147  C1148   1.530   .     S
C1147  H1178   1.110   .     S
C1148  H1181   1.112   .     S
C1148  C1149   1.527   .     S
C1148  H1440   1.111   .     S
C1149  H1184   1.110   .     S
C1149  H1185   1.111   .     S
C1149  H1183   1.111   .     S
C1150  C1154   1.394   .     A
C1151  C1152   1.391   .     A
C1151  C361    1.413   1_556 S
C1151  C376    1.422   1_556 S
C1152  C1153   1.384   .     A
C1152  H1191   1.084   .     S
C1153  H1162   1.080   .     S
C1154  H1159   1.073   .     S
C1155  H1158   1.083   .     S
Cu1156 O1194   1.956   .     S
Cu1156 Cu1157  2.675   .     S
Cu1156 N1192   2.010   .     S
Cu1156 O1202   1.946   .     S
Cu1156 O1198   1.960   .     S
Cu1156 O1200   1.956   .     S
Cu1157 N1193   2.010   .     S
Cu1157 O1199   1.946   .     S
Cu1157 O1197   1.956   .     S
Cu1157 O1203   1.960   .     S
Cu1157 O1201   1.956   .     S
O1204  C361    1.384   1_556 S
C1205  O1280   1.288   .     A
C1205  C1213   1.444   .     S
C1205  O1283   1.289   .     A
C1206  C1208   1.471   .     S
C1206  C1227   1.418   .     A
C1206  C1223   1.396   .     A
C1207  C1213   1.411   .     A
C1207  O1282   1.385   .     S
C1207  C1467   1.388   .     S
C1208  O1284   1.299   .     A
C1208  O1285   1.292   .     A
C1209  C1210   1.399   .     A
C1209  H1255   1.084   .     S
C1210  C1219   1.442   .     S
C1210  C1211   1.397   .     A
C1211  H1266   1.084   .     S
C1212  C1213   1.400   .     A
C1212  H1272   1.084   .     S
C1212  C1469   1.382   .     S
C1214  N1279   1.367   .     A
C1214  H1273   1.079   .     S
C1214  C1043   1.415   1_655 S
C1215  H1274   1.082   .     S
C1215  N1278   1.366   .     A
C1216  C1227   1.422   .     A
C1216  C451    1.435   1_556 S
C1216  C462    1.429   1_556 S
C1217  H1275   1.082   .     S
C1217  N1278   1.367   .     A
C1218  H1276   1.082   .     S
C1218  N1279   1.366   .     A
C1218  C1045   1.416   1_655 S
C1219  O1286   1.288   .     A
C1219  O1287   1.288   .     A
C1220  O1288   1.292   .     A
C1220  O1289   1.294   .     A
C1220  C1222   1.461   .     S
C1221  C1241   1.399   .     A
C1222  C1241   1.397   .     A
C1222  C1240   1.395   .     A
C1223  C1224   1.382   .     A
C1223  H1246   1.084   .     S
C1224  H1247   1.081   .     S
C1224  C451    1.405   1_556 S
C1225  O1281   1.391   .     S
C1226  O1290   1.412   .     S
C1226  H1249   1.115   .     S
C1226  C1056   1.528   1_655 S
C1226  H476    1.115   1_556 S
C1227  C1239   1.414   .     A
C1228  H1252   1.111   .     S
C1228  C1229   1.525   .     S
C1228  H1251   1.112   .     S
C1229  H1254   1.109   .     S
C1229  H1256   1.111   .     S
C1229  H479    1.111   1_556 S
C1230  C1231   1.531   .     S
C1230  H1258   1.116   .     S
C1230  O1281   1.421   .     S
C1230  H1257   1.111   .     S
C1231  H1259   1.112   .     S
C1231  H1260   1.111   .     S
C1232  H1261   1.110   .     S
C1232  H1263   1.111   .     S
C1232  H1262   1.110   .     S
C1232  C1059   1.527   1_655 S
C1233  O1282   1.418   .     S
C1233  H1265   1.117   .     S
C1233  C1234   1.530   .     S
C1233  H1264   1.110   .     S
C1234  H1267   1.112   .     S
C1234  C1235   1.527   .     S
C1234  H1526   1.111   .     S
C1235  H1270   1.110   .     S
C1235  H1271   1.111   .     S
C1235  H1269   1.111   .     S
C1236  C1240   1.394   .     A
C1237  C1238   1.391   .     A
C1237  C447    1.413   1_556 S
C1237  C462    1.422   1_556 S
C1238  C1239   1.384   .     A
C1238  H1277   1.084   .     S
C1239  H1248   1.080   .     S
C1240  H1245   1.073   .     S
C1241  H1244   1.083   .     S
Cu1242 O1280   1.956   .     S
Cu1242 Cu1243  2.675   .     S
Cu1242 N1278   2.010   .     S
Cu1242 O1288   1.946   .     S
Cu1242 O1284   1.960   .     S
Cu1242 O1286   1.956   .     S
Cu1243 N1279   2.010   .     S
Cu1243 O1285   1.946   .     S
Cu1243 O1283   1.956   .     S
Cu1243 O1289   1.960   .     S
Cu1243 O1287   1.956   .     S
O1290  C447    1.384   1_556 S
C1291  O1366   1.288   .     A
C1291  C1299   1.444   .     S
C1291  O1369   1.289   .     A
C1292  C1294   1.471   .     S
C1292  C1313   1.418   .     A
C1292  C1309   1.396   .     A
C1293  C1299   1.411   .     A
C1293  O1368   1.385   .     S
C1293  C779    1.388   1_565 S
C1294  O1370   1.299   .     A
C1294  O1371   1.292   .     A
C1295  C1296   1.399   .     A
C1295  H1341   1.084   .     S
C1296  C1305   1.442   .     S
C1296  C1297   1.397   .     A
C1297  H1352   1.084   .     S
C1298  C1299   1.400   .     A
C1298  H1358   1.084   .     S
C1298  C781    1.382   1_565 S
C1300  N1365   1.367   .     A
C1300  H1359   1.079   .     S
C1300  C1387   1.415   .     S
C1301  H1360   1.082   .     S
C1301  N1364   1.366   .     A
C1301  C1472   1.415   1_455 S
C1302  C1313   1.422   .     A
C1302  C537    1.435   1_556 S
C1302  C548    1.429   1_556 S
C1303  H1361   1.082   .     S
C1303  N1364   1.367   .     A
C1303  C1476   1.416   1_455 S
C1304  H1362   1.082   .     S
C1304  N1365   1.366   .     A
C1304  C1389   1.416   .     S
C1305  O1372   1.288   .     A
C1305  O1373   1.288   .     A
C1306  O1374   1.292   .     A
C1306  O1375   1.294   .     A
C1306  C1308   1.461   .     S
C1307  C1327   1.399   .     A
C1308  C1327   1.397   .     A
C1308  C1326   1.395   .     A
C1309  C1310   1.382   .     A
C1309  H1332   1.084   .     S
C1310  H1333   1.081   .     S
C1310  C537    1.405   1_556 S
C1311  O1367   1.391   .     S
C1312  O1376   1.412   .     S
C1312  H1335   1.115   .     S
C1312  C1400   1.528   .     S
C1312  H562    1.115   1_556 S
C1313  C1325   1.414   .     A
C1314  H1338   1.111   .     S
C1314  C1315   1.525   .     S
C1314  H1337   1.112   .     S
C1314  C1484   1.528   1_455 S
C1315  H1340   1.109   .     S
C1315  H1342   1.111   .     S
C1315  H565    1.111   1_556 S
C1316  C1317   1.531   .     S
C1316  H1344   1.116   .     S
C1316  O1367   1.421   .     S
C1316  H1343   1.111   .     S
C1317  H1345   1.112   .     S
C1317  H1346   1.111   .     S
C1317  C1490   1.527   1_455 S
C1318  H1347   1.110   .     S
C1318  H1349   1.111   .     S
C1318  H1348   1.110   .     S
C1318  C1403   1.527   .     S
C1319  O1368   1.418   .     S
C1319  H1351   1.117   .     S
C1319  C1320   1.530   .     S
C1319  H1350   1.110   .     S
C1320  H1353   1.112   .     S
C1320  C1321   1.527   .     S
C1320  H838    1.111   1_565 S
C1321  H1356   1.110   .     S
C1321  H1357   1.111   .     S
C1321  H1355   1.111   .     S
C1322  C1326   1.394   .     A
C1323  C1324   1.391   .     A
C1323  C533    1.413   1_556 S
C1323  C548    1.422   1_556 S
C1324  C1325   1.384   .     A
C1324  H1363   1.084   .     S
C1325  H1334   1.080   .     S
C1326  H1331   1.073   .     S
C1327  H1330   1.083   .     S
Cu1328 O1366   1.956   .     S
Cu1328 Cu1329  2.675   .     S
Cu1328 N1364   2.010   .     S
Cu1328 O1374   1.946   .     S
Cu1328 O1370   1.960   .     S
Cu1328 O1372   1.956   .     S
Cu1329 N1365   2.010   .     S
Cu1329 O1371   1.946   .     S
Cu1329 O1369   1.956   .     S
Cu1329 O1375   1.960   .     S
Cu1329 O1373   1.956   .     S
O1376  C533    1.384   1_556 S
C1377  O1452   1.288   .     A
C1377  C1385   1.444   .     S
C1377  O1455   1.289   .     A
C1378  C1380   1.471   .     S
C1378  C1399   1.418   .     A
C1378  C1395   1.396   .     A
C1379  C1385   1.411   .     A
C1379  O1454   1.385   .     S
C1379  C865    1.388   1_565 S
C1380  O1456   1.299   .     A
C1380  O1457   1.292   .     A
C1381  C1382   1.399   .     A
C1381  H1427   1.084   .     S
C1382  C1391   1.442   .     S
C1382  C1383   1.397   .     A
C1383  H1438   1.084   .     S
C1384  C1385   1.400   .     A
C1384  H1444   1.084   .     S
C1384  C867    1.382   1_565 S
C1386  N1451   1.367   .     A
C1386  H1445   1.079   .     S
C1386  C1473   1.415   .     S
C1387  H1446   1.082   .     S
C1387  N1450   1.366   .     A
C1388  C1399   1.422   .     A
C1388  C623    1.435   1_556 S
C1388  C634    1.429   1_556 S
C1389  H1447   1.082   .     S
C1389  N1450   1.367   .     A
C1390  H1448   1.082   .     S
C1390  N1451   1.366   .     A
C1390  C1475   1.416   .     S
C1391  O1458   1.288   .     A
C1391  O1459   1.288   .     A
C1392  O1460   1.292   .     A
C1392  O1461   1.294   .     A
C1392  C1394   1.461   .     S
C1393  C1413   1.399   .     A
C1394  C1413   1.397   .     A
C1394  C1412   1.395   .     A
C1395  C1396   1.382   .     A
C1395  H1418   1.084   .     S
C1396  H1419   1.081   .     S
C1396  C623    1.405   1_556 S
C1397  O1453   1.391   .     S
C1398  O1462   1.412   .     S
C1398  H1421   1.115   .     S
C1398  C1486   1.528   .     S
C1398  H648    1.115   1_556 S
C1399  C1411   1.414   .     A
C1400  H1424   1.111   .     S
C1400  C1401   1.525   .     S
C1400  H1423   1.112   .     S
C1401  H1426   1.109   .     S
C1401  H1428   1.111   .     S
C1401  H651    1.111   1_556 S
C1402  C1403   1.531   .     S
C1402  H1430   1.116   .     S
C1402  O1453   1.421   .     S
C1402  H1429   1.111   .     S
C1403  H1431   1.112   .     S
C1403  H1432   1.111   .     S
C1404  H1433   1.110   .     S
C1404  H1435   1.111   .     S
C1404  H1434   1.110   .     S
C1404  C1489   1.527   .     S
C1405  O1454   1.418   .     S
C1405  H1437   1.117   .     S
C1405  C1406   1.530   .     S
C1405  H1436   1.110   .     S
C1406  H1439   1.112   .     S
C1406  C1407   1.527   .     S
C1406  H924    1.111   1_565 S
C1407  H1442   1.110   .     S
C1407  H1443   1.111   .     S
C1407  H1441   1.111   .     S
C1408  C1412   1.394   .     A
C1409  C1410   1.391   .     A
C1409  C619    1.413   1_556 S
C1409  C634    1.422   1_556 S
C1410  C1411   1.384   .     A
C1410  H1449   1.084   .     S
C1411  H1420   1.080   .     S
C1412  H1417   1.073   .     S
C1413  H1416   1.083   .     S
Cu1414 O1452   1.956   .     S
Cu1414 Cu1415  2.675   .     S
Cu1414 N1450   2.010   .     S
Cu1414 O1460   1.946   .     S
Cu1414 O1456   1.960   .     S
Cu1414 O1458   1.956   .     S
Cu1415 N1451   2.010   .     S
Cu1415 O1457   1.946   .     S
Cu1415 O1455   1.956   .     S
Cu1415 O1461   1.960   .     S
Cu1415 O1459   1.956   .     S
O1462  C619    1.384   1_556 S
C1463  O1538   1.288   .     A
C1463  C1471   1.444   .     S
C1463  O1541   1.289   .     A
C1464  C1466   1.471   .     S
C1464  C1485   1.418   .     A
C1464  C1481   1.396   .     A
C1465  C1471   1.411   .     A
C1465  O1540   1.385   .     S
C1465  C951    1.388   1_565 S
C1466  O1542   1.299   .     A
C1466  O1543   1.292   .     A
C1467  C1468   1.399   .     A
C1467  H1513   1.084   .     S
C1468  C1477   1.442   .     S
C1468  C1469   1.397   .     A
C1469  H1524   1.084   .     S
C1470  C1471   1.400   .     A
C1470  H1530   1.084   .     S
C1470  C953    1.382   1_565 S
C1472  N1537   1.367   .     A
C1472  H1531   1.079   .     S
C1472  C1301   1.415   1_655 S
C1473  H1532   1.082   .     S
C1473  N1536   1.366   .     A
C1474  C1485   1.422   .     A
C1474  C709    1.435   1_556 S
C1474  C720    1.429   1_556 S
C1475  H1533   1.082   .     S
C1475  N1536   1.367   .     A
C1476  H1534   1.082   .     S
C1476  N1537   1.366   .     A
C1476  C1303   1.416   1_655 S
C1477  O1544   1.288   .     A
C1477  O1545   1.288   .     A
C1478  O1546   1.292   .     A
C1478  O1547   1.294   .     A
C1478  C1480   1.461   .     S
C1479  C1499   1.399   .     A
C1480  C1499   1.397   .     A
C1480  C1498   1.395   .     A
C1481  C1482   1.382   .     A
C1481  H1504   1.084   .     S
C1482  H1505   1.081   .     S
C1482  C709    1.405   1_556 S
C1483  O1539   1.391   .     S
C1484  O1548   1.412   .     S
C1484  H1507   1.115   .     S
C1484  C1314   1.528   1_655 S
C1484  H734    1.115   1_556 S
C1485  C1497   1.414   .     A
C1486  H1510   1.111   .     S
C1486  C1487   1.525   .     S
C1486  H1509   1.112   .     S
C1487  H1512   1.109   .     S
C1487  H1514   1.111   .     S
C1487  H737    1.111   1_556 S
C1488  C1489   1.531   .     S
C1488  H1516   1.116   .     S
C1488  O1539   1.421   .     S
C1488  H1515   1.111   .     S
C1489  H1517   1.112   .     S
C1489  H1518   1.111   .     S
C1490  H1519   1.110   .     S
C1490  H1521   1.111   .     S
C1490  H1520   1.110   .     S
C1490  C1317   1.527   1_655 S
C1491  O1540   1.418   .     S
C1491  H1523   1.117   .     S
C1491  C1492   1.530   .     S
C1491  H1522   1.110   .     S
C1492  H1525   1.112   .     S
C1492  C1493   1.527   .     S
C1492  H1010   1.111   1_565 S
C1493  H1528   1.110   .     S
C1493  H1529   1.111   .     S
C1493  H1527   1.111   .     S
C1494  C1498   1.394   .     A
C1495  C1496   1.391   .     A
C1495  C705    1.413   1_556 S
C1495  C720    1.422   1_556 S
C1496  C1497   1.384   .     A
C1496  H1535   1.084   .     S
C1497  H1506   1.080   .     S
C1498  H1503   1.073   .     S
C1499  H1502   1.083   .     S
Cu1500 O1538   1.956   .     S
Cu1500 Cu1501  2.675   .     S
Cu1500 N1536   2.010   .     S
Cu1500 O1546   1.946   .     S
Cu1500 O1542   1.960   .     S
Cu1500 O1544   1.956   .     S
Cu1501 N1537   2.010   .     S
Cu1501 O1543   1.946   .     S
Cu1501 O1541   1.956   .     S
Cu1501 O1547   1.960   .     S
Cu1501 O1545   1.956   .     S
O1548  C705    1.384   1_556 S
