data_str_m1_o5_o17_pcu_sym.17
_audit_creation_date              2020-01-03
_audit_creation_method            'Materials Studio'
_symmetry_space_group_name_H-M    'P1'
_symmetry_Int_Tables_number       1
_symmetry_cell_setting            triclinic
loop_
_symmetry_equiv_pos_as_xyz
  x,y,z
_cell_length_a                    31.7586
_cell_length_b                    31.7562
_cell_length_c                    34.5617
_cell_angle_alpha                 90.0001
_cell_angle_beta                  90.0000
_cell_angle_gamma                 89.9945
loop_
_atom_site_label
_atom_site_type_symbol
_atom_site_fract_x
_atom_site_fract_y
_atom_site_fract_z
_atom_site_U_iso_or_equiv
_atom_site_adp_type
_atom_site_occupancy
Zn1    Zn    0.20053  -0.00000   0.21730   0.00000  Uiso   1.00
Zn2    Zn    0.29948   0.00000   0.78270   0.00000  Uiso   1.00
Zn3    Zn    0.00000   0.20053   0.21730   0.00000  Uiso   1.00
Zn4    Zn    0.00000   0.29948   0.78270   0.00000  Uiso   1.00
Zn5    Zn    0.29948  -0.00000   0.21730   0.00000  Uiso   1.00
Zn6    Zn    0.20053   0.00000   0.78270   0.00000  Uiso   1.00
Zn7    Zn    0.00000   0.29948   0.21730   0.00000  Uiso   1.00
Zn8    Zn    0.00000   0.20053   0.78270   0.00000  Uiso   1.00
Zn9    Zn    0.45053   0.25000   0.71730   0.00000  Uiso   1.00
Zn10   Zn    0.04948   0.25000   0.28270   0.00000  Uiso   1.00
Zn11   Zn    0.25000   0.45053   0.71730   0.00000  Uiso   1.00
Zn12   Zn    0.25000   0.04947   0.28270   0.00000  Uiso   1.00
Zn13   Zn    0.04948   0.25000   0.71730   0.00000  Uiso   1.00
Zn14   Zn    0.45053   0.25000   0.28270   0.00000  Uiso   1.00
Zn15   Zn    0.25000   0.04947   0.71730   0.00000  Uiso   1.00
Zn16   Zn    0.25000   0.45053   0.28270   0.00000  Uiso   1.00
O17    O     0.25000  -0.00000   0.25000   0.00000  Uiso   1.00
O18    O     0.25000   0.00000   0.75000   0.00000  Uiso   1.00
O19    O     0.00000   0.25000   0.25000   0.00000  Uiso   1.00
O20    O     0.00000   0.25000   0.75000   0.00000  Uiso   1.00
O21    O     0.25000   0.46539   0.33749   0.00000  Uiso   1.00
O22    O     0.25000   0.03461   0.66251   0.00000  Uiso   1.00
O23    O     0.03462   0.25000   0.33749   0.00000  Uiso   1.00
O24    O     0.46539   0.25000   0.66251   0.00000  Uiso   1.00
O25    O     0.25000   0.03461   0.33749   0.00000  Uiso   1.00
O26    O     0.25000   0.46539   0.66251   0.00000  Uiso   1.00
O27    O     0.46539   0.25000   0.33749   0.00000  Uiso   1.00
O28    O     0.03462   0.25000   0.66251   0.00000  Uiso   1.00
O29    O     0.00000   0.21539   0.83749   0.00000  Uiso   1.00
O30    O     0.00000   0.28462   0.16251   0.00000  Uiso   1.00
O31    O     0.28462   0.00000   0.83749   0.00000  Uiso   1.00
O32    O     0.21539   0.00000   0.16251   0.00000  Uiso   1.00
O33    O     0.00000   0.28462   0.83749   0.00000  Uiso   1.00
O34    O     0.00000   0.21539   0.16251   0.00000  Uiso   1.00
O35    O     0.21539   0.00000   0.83749   0.00000  Uiso   1.00
O36    O     0.28462   0.00000   0.16251   0.00000  Uiso   1.00
O37    O     0.20127   0.08332   0.27298   0.00000  Uiso   1.00
O38    O     0.29874   0.41668   0.72702   0.00000  Uiso   1.00
O39    O     0.41668   0.20127   0.27298   0.00000  Uiso   1.00
O40    O     0.08332   0.29874   0.72702   0.00000  Uiso   1.00
O41    O     0.29874   0.41668   0.27298   0.00000  Uiso   1.00
O42    O     0.20127   0.08332   0.72702   0.00000  Uiso   1.00
O43    O     0.08332   0.29874   0.27298   0.00000  Uiso   1.00
O44    O     0.41668   0.20127   0.72702   0.00000  Uiso   1.00
O45    O     0.20127   0.41668   0.72702   0.00000  Uiso   1.00
O46    O     0.29874   0.08332   0.27298   0.00000  Uiso   1.00
O47    O     0.41668   0.29874   0.72702   0.00000  Uiso   1.00
O48    O     0.08332   0.20127   0.27298   0.00000  Uiso   1.00
O49    O     0.29874   0.08332   0.72702   0.00000  Uiso   1.00
O50    O     0.20127   0.41668   0.27298   0.00000  Uiso   1.00
O51    O     0.08332   0.20127   0.72702   0.00000  Uiso   1.00
O52    O     0.41668   0.29874   0.27298   0.00000  Uiso   1.00
O53    O     0.45127   0.33332   0.77298   0.00000  Uiso   1.00
O54    O     0.04874   0.16668   0.22702   0.00000  Uiso   1.00
O55    O     0.16668   0.45127   0.77298   0.00000  Uiso   1.00
O56    O     0.33332   0.04873   0.22702   0.00000  Uiso   1.00
O57    O     0.04874   0.16668   0.77298   0.00000  Uiso   1.00
O58    O     0.45127   0.33332   0.22702   0.00000  Uiso   1.00
O59    O     0.33332   0.04873   0.77298   0.00000  Uiso   1.00
O60    O     0.16668   0.45127   0.22702   0.00000  Uiso   1.00
O61    O     0.45127   0.16668   0.22702   0.00000  Uiso   1.00
O62    O     0.04874   0.33332   0.77298   0.00000  Uiso   1.00
O63    O     0.16668   0.04873   0.22702   0.00000  Uiso   1.00
O64    O     0.33332   0.45127   0.77298   0.00000  Uiso   1.00
O65    O     0.04874   0.33332   0.22702   0.00000  Uiso   1.00
O66    O     0.45127   0.16668   0.77298   0.00000  Uiso   1.00
O67    O     0.33332   0.45127   0.22702   0.00000  Uiso   1.00
O68    O     0.16668   0.04873   0.77298   0.00000  Uiso   1.00
C69    C     0.25000   0.00000   0.35607   0.00000  Uiso   1.00
C70    C     0.25000  -0.00000   0.64393   0.00000  Uiso   1.00
C71    C     0.00000   0.25000   0.35607   0.00000  Uiso   1.00
C72    C     0.00000   0.25000   0.64393   0.00000  Uiso   1.00
C73    C     0.00000   0.25000   0.85606   0.00000  Uiso   1.00
C74    C     0.00000   0.25000   0.14393   0.00000  Uiso   1.00
C75    C     0.25000  -0.00000   0.85607   0.00000  Uiso   1.00
C76    C     0.25000  -0.00000   0.14394   0.00000  Uiso   1.00
C77    C     0.16999   0.08001   0.25000   0.00000  Uiso   1.00
C78    C     0.33001   0.41999   0.75000   0.00000  Uiso   1.00
C79    C     0.41999   0.16999   0.25000   0.00000  Uiso   1.00
C80    C     0.08001   0.33001   0.75000   0.00000  Uiso   1.00
C81    C     0.33001   0.41999   0.25000   0.00000  Uiso   1.00
C82    C     0.16999   0.08001   0.75000   0.00000  Uiso   1.00
C83    C     0.08001   0.33001   0.25000   0.00000  Uiso   1.00
C84    C     0.41999   0.16999   0.75000   0.00000  Uiso   1.00
C85    C     0.16999   0.41999   0.75000   0.00000  Uiso   1.00
C86    C     0.33001   0.08001   0.25000   0.00000  Uiso   1.00
C87    C     0.41999   0.33001   0.75000   0.00000  Uiso   1.00
C88    C     0.08001   0.16999   0.25000   0.00000  Uiso   1.00
C89    C     0.33001   0.08001   0.75000   0.00000  Uiso   1.00
C90    C     0.16999   0.41999   0.25000   0.00000  Uiso   1.00
C91    C     0.08001   0.16999   0.75000   0.00000  Uiso   1.00
C92    C     0.41999   0.33001   0.25000   0.00000  Uiso   1.00
C93    C     0.13834   0.38834   0.25000   0.00000  Uiso   1.00
C94    C     0.36167   0.11166   0.75000   0.00000  Uiso   1.00
C95    C     0.11167   0.13834   0.25000   0.00000  Uiso   1.00
C96    C     0.38834   0.36166   0.75000   0.00000  Uiso   1.00
C97    C     0.36167   0.11166   0.25000   0.00000  Uiso   1.00
C98    C     0.13834   0.38834   0.75000   0.00000  Uiso   1.00
C99    C     0.38834   0.36166   0.25000   0.00000  Uiso   1.00
C100   C     0.11167   0.13834   0.75000   0.00000  Uiso   1.00
C101   C     0.13834   0.11167   0.75000   0.00000  Uiso   1.00
C102   C     0.36166   0.38833   0.25000   0.00000  Uiso   1.00
C103   C     0.11166   0.36167   0.75000   0.00000  Uiso   1.00
C104   C     0.38834   0.13833   0.25000   0.00000  Uiso   1.00
C105   C     0.36166   0.38833   0.75000   0.00000  Uiso   1.00
C106   C     0.13834   0.11167   0.25000   0.00000  Uiso   1.00
C107   C     0.38834   0.13833   0.75000   0.00000  Uiso   1.00
C108   C     0.11166   0.36167   0.25000   0.00000  Uiso   1.00
C109   C     0.03807   0.25120   0.41875   0.00000  Uiso   1.00
C110   C     0.46191   0.24957   0.58125   0.00000  Uiso   1.00
C111   C     0.25028   0.03809   0.41875   0.00000  Uiso   1.00
C112   C     0.24894   0.46192   0.58125   0.00000  Uiso   1.00
C113   C     0.46193   0.24880   0.41875   0.00000  Uiso   1.00
C114   C     0.03809   0.25043   0.58125   0.00000  Uiso   1.00
C115   C     0.24972   0.46191   0.41875   0.00000  Uiso   1.00
C116   C     0.25105   0.03808   0.58125   0.00000  Uiso   1.00
C117   C     0.21210   0.00382   0.91874   0.00000  Uiso   1.00
C118   C     0.28781   0.49536   0.08126   0.00000  Uiso   1.00
C119   C     0.49352   0.28754   0.91873   0.00000  Uiso   1.00
C120   C     0.00570   0.21234   0.08126   0.00000  Uiso   1.00
C121   C     0.28790   0.49618   0.91874   0.00000  Uiso   1.00
C122   C     0.21219   0.00464   0.08126   0.00000  Uiso   1.00
C123   C     0.00646   0.21246   0.91873   0.00000  Uiso   1.00
C124   C     0.49428   0.28766   0.08126   0.00000  Uiso   1.00
C125   C     0.00000   0.25000   0.39851   0.00000  Uiso   1.00
C126   C     0.00000   0.25000   0.60149   0.00000  Uiso   1.00
C127   C     0.25000  -0.00000   0.39851   0.00000  Uiso   1.00
C128   C     0.25000  -0.00000   0.60149   0.00000  Uiso   1.00
C129   C     0.25000   0.00000   0.89851   0.00000  Uiso   1.00
C130   C     0.25000   0.00000   0.10149   0.00000  Uiso   1.00
C131   C    -0.00000   0.25000   0.89850   0.00000  Uiso   1.00
C132   C    -0.00000   0.25000   0.10149   0.00000  Uiso   1.00
C133   C     0.46128   0.24948   0.45927   0.00000  Uiso   1.00
C134   C     0.03871   0.25117   0.54073   0.00000  Uiso   1.00
C135   C     0.24898   0.46129   0.45927   0.00000  Uiso   1.00
C136   C     0.25037   0.03873   0.54073   0.00000  Uiso   1.00
C137   C     0.03872   0.25052   0.45927   0.00000  Uiso   1.00
C138   C     0.46129   0.24883   0.54072   0.00000  Uiso   1.00
C139   C     0.25102   0.03871   0.45927   0.00000  Uiso   1.00
C140   C     0.24963   0.46127   0.54073   0.00000  Uiso   1.00
C141   C     0.28843   0.49528   0.95927   0.00000  Uiso   1.00
C142   C     0.21149   0.00410   0.04073   0.00000  Uiso   1.00
C143   C     0.00601   0.21173   0.95926   0.00000  Uiso   1.00
C144   C     0.49330   0.28815   0.04073   0.00000  Uiso   1.00
C145   C     0.21157   0.00472   0.95927   0.00000  Uiso   1.00
C146   C     0.28851   0.49591   0.04073   0.00000  Uiso   1.00
C147   C     0.49396   0.28826   0.95926   0.00000  Uiso   1.00
C148   C     0.00667   0.21185   0.04073   0.00000  Uiso   1.00
C149   C     0.00000   0.25000   0.47966   0.00000  Uiso   1.00
C150   C     0.00000   0.25000   0.52034   0.00000  Uiso   1.00
C151   C     0.25000  -0.00000   0.47966   0.00000  Uiso   1.00
C152   C     0.25000  -0.00000   0.52034   0.00000  Uiso   1.00
C153   C     0.25000   0.00000   0.97966   0.00000  Uiso   1.00
C154   C     0.25000   0.00000   0.02034   0.00000  Uiso   1.00
C155   C     0.49999   0.25000   0.97965   0.00000  Uiso   1.00
C156   C     0.49999   0.25000   0.02034   0.00000  Uiso   1.00
C157   C     0.42273   0.24873   0.47967   0.00000  Uiso   1.00
C158   C     0.07725   0.25215   0.52033   0.00000  Uiso   1.00
C159   C     0.24816   0.42274   0.47967   0.00000  Uiso   1.00
C160   C     0.25096   0.07728   0.52033   0.00000  Uiso   1.00
C161   C     0.07727   0.25128   0.47967   0.00000  Uiso   1.00
C162   C     0.42275   0.24785   0.52033   0.00000  Uiso   1.00
C163   C     0.25184   0.07726   0.47967   0.00000  Uiso   1.00
C164   C     0.24904   0.42272   0.52033   0.00000  Uiso   1.00
C165   C     0.32671   0.49064   0.97967   0.00000  Uiso   1.00
C166   C     0.17319   0.00850   0.02033   0.00000  Uiso   1.00
C167   C     0.01241   0.17371   0.97967   0.00000  Uiso   1.00
C168   C     0.48664   0.32614   0.02033   0.00000  Uiso   1.00
C169   C     0.17329   0.00937   0.97967   0.00000  Uiso   1.00
C170   C     0.32681   0.49150   0.02033   0.00000  Uiso   1.00
C171   C     0.48754   0.32629   0.97967   0.00000  Uiso   1.00
C172   C     0.01330   0.17386   0.02033   0.00000  Uiso   1.00
H173   H     0.06718   0.25287   0.40257   0.00000  Uiso   1.00
H174   H     0.43276   0.24994   0.59743   0.00000  Uiso   1.00
H175   H     0.24979   0.06724   0.40257   0.00000  Uiso   1.00
H176   H     0.24739   0.43281   0.59743   0.00000  Uiso   1.00
H177   H     0.43282   0.24713   0.40257   0.00000  Uiso   1.00
H178   H     0.06724   0.25006   0.59743   0.00000  Uiso   1.00
H179   H     0.25021   0.43276   0.40257   0.00000  Uiso   1.00
H180   H     0.25261   0.06719   0.59743   0.00000  Uiso   1.00
H181   H     0.18305   0.00609   0.90255   0.00000  Uiso   1.00
H182   H     0.31662   0.49098   0.09746   0.00000  Uiso   1.00
H183   H     0.48774   0.31610   0.90251   0.00000  Uiso   1.00
H184   H     0.00947   0.18344   0.09746   0.00000  Uiso   1.00
H185   H     0.31695   0.49391   0.90255   0.00000  Uiso   1.00
H186   H     0.18338   0.00902   0.09746   0.00000  Uiso   1.00
H187   H     0.01225   0.18390   0.90252   0.00000  Uiso   1.00
H188   H     0.49052   0.31656   0.09746   0.00000  Uiso   1.00
N189   N     0.38331   0.24819   0.45932   0.00000  Uiso   1.00
O190   O     0.37219   0.28034   0.43833   0.00000  Uiso   1.00
O191   O     0.35673   0.21761   0.46485   0.00000  Uiso   1.00
N192   N     0.11665   0.25341   0.54068   0.00000  Uiso   1.00
O193   O     0.12630   0.28603   0.56167   0.00000  Uiso   1.00
O194   O     0.14460   0.22407   0.53515   0.00000  Uiso   1.00
N195   N     0.24707   0.38333   0.45931   0.00000  Uiso   1.00
O196   O     0.21449   0.37353   0.43834   0.00000  Uiso   1.00
O197   O     0.27654   0.35551   0.46484   0.00000  Uiso   1.00
N198   N     0.25132   0.11670   0.54068   0.00000  Uiso   1.00
O199   O     0.21913   0.12769   0.56167   0.00000  Uiso   1.00
O200   O     0.28178   0.14343   0.53514   0.00000  Uiso   1.00
N201   N     0.11669   0.25181   0.45932   0.00000  Uiso   1.00
O202   O     0.12781   0.21966   0.43833   0.00000  Uiso   1.00
O203   O     0.14327   0.28239   0.46485   0.00000  Uiso   1.00
N204   N     0.38335   0.24659   0.54068   0.00000  Uiso   1.00
O205   O     0.37370   0.21397   0.56167   0.00000  Uiso   1.00
O206   O     0.35540   0.27593   0.53515   0.00000  Uiso   1.00
N207   N     0.25292   0.11667   0.45931   0.00000  Uiso   1.00
O208   O     0.28550   0.12647   0.43834   0.00000  Uiso   1.00
O209   O     0.22345   0.14449   0.46484   0.00000  Uiso   1.00
N210   N     0.24867   0.38330   0.54068   0.00000  Uiso   1.00
O211   O     0.28086   0.37231   0.56167   0.00000  Uiso   1.00
O212   O     0.21821   0.35657   0.53514   0.00000  Uiso   1.00
N213   N     0.36580   0.48557   0.95930   0.00000  Uiso   1.00
O214   O     0.37212   0.45233   0.93807   0.00000  Uiso   1.00
O215   O     0.39655   0.01193   0.96498   0.00000  Uiso   1.00
N216   N     0.13400   0.01284   0.04068   0.00000  Uiso   1.00
O217   O     0.11986   0.48194   0.06171   0.00000  Uiso   1.00
O218   O     0.11045   0.04581   0.03509   0.00000  Uiso   1.00
N219   N     0.01884   0.13481   0.95931   0.00000  Uiso   1.00
O220   O     0.48869   0.11895   0.93838   0.00000  Uiso   1.00
O221   O     0.05311   0.11316   0.96476   0.00000  Uiso   1.00
N222   N     0.47934   0.36489   0.04069   0.00000  Uiso   1.00
O223   O     0.00376   0.39717   0.03488   0.00000  Uiso   1.00
O224   O     0.44581   0.36927   0.06196   0.00000  Uiso   1.00
N225   N     0.13420   0.01443   0.95930   0.00000  Uiso   1.00
O226   O     0.12788   0.04767   0.93807   0.00000  Uiso   1.00
O227   O     0.10345   0.48807   0.96498   0.00000  Uiso   1.00
N228   N     0.36600   0.48716   0.04068   0.00000  Uiso   1.00
O229   O     0.38014   0.01807   0.06171   0.00000  Uiso   1.00
O230   O     0.38955   0.45419   0.03510   0.00000  Uiso   1.00
N231   N     0.48107   0.36517   0.95931   0.00000  Uiso   1.00
O232   O     0.01121   0.38108   0.93841   0.00000  Uiso   1.00
O233   O     0.44675   0.38676   0.96473   0.00000  Uiso   1.00
N234   N     0.02056   0.13509   0.04069   0.00000  Uiso   1.00
O235   O     0.49606   0.10286   0.03491   0.00000  Uiso   1.00
O236   O     0.05410   0.13066   0.06193   0.00000  Uiso   1.00
Zn237  Zn    0.70053  -0.00000   0.21730   0.00000  Uiso   1.00
Zn238  Zn    0.79948   0.00000   0.78270   0.00000  Uiso   1.00
Zn239  Zn    0.50000   0.20053   0.21730   0.00000  Uiso   1.00
Zn240  Zn    0.50000   0.29948   0.78270   0.00000  Uiso   1.00
Zn241  Zn    0.79948  -0.00000   0.21730   0.00000  Uiso   1.00
Zn242  Zn    0.70053   0.00000   0.78270   0.00000  Uiso   1.00
Zn243  Zn    0.50000   0.29948   0.21730   0.00000  Uiso   1.00
Zn244  Zn    0.50000   0.20053   0.78270   0.00000  Uiso   1.00
Zn245  Zn    0.95053   0.25000   0.71730   0.00000  Uiso   1.00
Zn246  Zn    0.54948   0.25000   0.28270   0.00000  Uiso   1.00
Zn247  Zn    0.75000   0.45053   0.71730   0.00000  Uiso   1.00
Zn248  Zn    0.75000   0.04947   0.28270   0.00000  Uiso   1.00
Zn249  Zn    0.54948   0.25000   0.71730   0.00000  Uiso   1.00
Zn250  Zn    0.95053   0.25000   0.28270   0.00000  Uiso   1.00
Zn251  Zn    0.75000   0.04947   0.71730   0.00000  Uiso   1.00
Zn252  Zn    0.75000   0.45053   0.28270   0.00000  Uiso   1.00
O253   O     0.75000  -0.00000   0.25000   0.00000  Uiso   1.00
O254   O     0.75000   0.00000   0.75000   0.00000  Uiso   1.00
O255   O     0.50000   0.25000   0.25000   0.00000  Uiso   1.00
O256   O     0.50000   0.25000   0.75000   0.00000  Uiso   1.00
O257   O     0.75000   0.46539   0.33749   0.00000  Uiso   1.00
O258   O     0.75000   0.03461   0.66251   0.00000  Uiso   1.00
O259   O     0.53462   0.25000   0.33749   0.00000  Uiso   1.00
O260   O     0.96539   0.25000   0.66251   0.00000  Uiso   1.00
O261   O     0.75000   0.03461   0.33749   0.00000  Uiso   1.00
O262   O     0.75000   0.46539   0.66251   0.00000  Uiso   1.00
O263   O     0.96539   0.25000   0.33749   0.00000  Uiso   1.00
O264   O     0.53462   0.25000   0.66251   0.00000  Uiso   1.00
O265   O     0.50000   0.21539   0.83749   0.00000  Uiso   1.00
O266   O     0.50000   0.28462   0.16251   0.00000  Uiso   1.00
O267   O     0.78462   0.00000   0.83749   0.00000  Uiso   1.00
O268   O     0.71539   0.00000   0.16251   0.00000  Uiso   1.00
O269   O     0.50000   0.28462   0.83749   0.00000  Uiso   1.00
O270   O     0.50000   0.21539   0.16251   0.00000  Uiso   1.00
O271   O     0.71539   0.00000   0.83749   0.00000  Uiso   1.00
O272   O     0.78462   0.00000   0.16251   0.00000  Uiso   1.00
O273   O     0.70127   0.08332   0.27298   0.00000  Uiso   1.00
O274   O     0.79874   0.41668   0.72702   0.00000  Uiso   1.00
O275   O     0.91668   0.20127   0.27298   0.00000  Uiso   1.00
O276   O     0.58332   0.29874   0.72702   0.00000  Uiso   1.00
O277   O     0.79874   0.41668   0.27298   0.00000  Uiso   1.00
O278   O     0.70127   0.08332   0.72702   0.00000  Uiso   1.00
O279   O     0.58332   0.29874   0.27298   0.00000  Uiso   1.00
O280   O     0.91668   0.20127   0.72702   0.00000  Uiso   1.00
O281   O     0.70127   0.41668   0.72702   0.00000  Uiso   1.00
O282   O     0.79874   0.08332   0.27298   0.00000  Uiso   1.00
O283   O     0.91668   0.29874   0.72702   0.00000  Uiso   1.00
O284   O     0.58332   0.20127   0.27298   0.00000  Uiso   1.00
O285   O     0.79874   0.08332   0.72702   0.00000  Uiso   1.00
O286   O     0.70127   0.41668   0.27298   0.00000  Uiso   1.00
O287   O     0.58332   0.20127   0.72702   0.00000  Uiso   1.00
O288   O     0.91668   0.29874   0.27298   0.00000  Uiso   1.00
O289   O     0.95127   0.33332   0.77298   0.00000  Uiso   1.00
O290   O     0.54874   0.16668   0.22702   0.00000  Uiso   1.00
O291   O     0.66668   0.45127   0.77298   0.00000  Uiso   1.00
O292   O     0.83332   0.04873   0.22702   0.00000  Uiso   1.00
O293   O     0.54874   0.16668   0.77298   0.00000  Uiso   1.00
O294   O     0.95127   0.33332   0.22702   0.00000  Uiso   1.00
O295   O     0.83332   0.04873   0.77298   0.00000  Uiso   1.00
O296   O     0.66668   0.45127   0.22702   0.00000  Uiso   1.00
O297   O     0.95127   0.16668   0.22702   0.00000  Uiso   1.00
O298   O     0.54874   0.33332   0.77298   0.00000  Uiso   1.00
O299   O     0.66668   0.04873   0.22702   0.00000  Uiso   1.00
O300   O     0.83332   0.45127   0.77298   0.00000  Uiso   1.00
O301   O     0.54874   0.33332   0.22702   0.00000  Uiso   1.00
O302   O     0.95127   0.16668   0.77298   0.00000  Uiso   1.00
O303   O     0.83332   0.45127   0.22702   0.00000  Uiso   1.00
O304   O     0.66668   0.04873   0.77298   0.00000  Uiso   1.00
C305   C     0.75000   0.00000   0.35607   0.00000  Uiso   1.00
C306   C     0.75000  -0.00000   0.64393   0.00000  Uiso   1.00
C307   C     0.50000   0.25000   0.35607   0.00000  Uiso   1.00
C308   C     0.50000   0.25000   0.64393   0.00000  Uiso   1.00
C309   C     0.50000   0.25000   0.85606   0.00000  Uiso   1.00
C310   C     0.50000   0.25000   0.14393   0.00000  Uiso   1.00
C311   C     0.75000  -0.00000   0.85607   0.00000  Uiso   1.00
C312   C     0.75000  -0.00000   0.14394   0.00000  Uiso   1.00
C313   C     0.66999   0.08001   0.25000   0.00000  Uiso   1.00
C314   C     0.83001   0.41999   0.75000   0.00000  Uiso   1.00
C315   C     0.91999   0.16999   0.25000   0.00000  Uiso   1.00
C316   C     0.58001   0.33001   0.75000   0.00000  Uiso   1.00
C317   C     0.83001   0.41999   0.25000   0.00000  Uiso   1.00
C318   C     0.66999   0.08001   0.75000   0.00000  Uiso   1.00
C319   C     0.58001   0.33001   0.25000   0.00000  Uiso   1.00
C320   C     0.91999   0.16999   0.75000   0.00000  Uiso   1.00
C321   C     0.66999   0.41999   0.75000   0.00000  Uiso   1.00
C322   C     0.83001   0.08001   0.25000   0.00000  Uiso   1.00
C323   C     0.91999   0.33001   0.75000   0.00000  Uiso   1.00
C324   C     0.58001   0.16999   0.25000   0.00000  Uiso   1.00
C325   C     0.83001   0.08001   0.75000   0.00000  Uiso   1.00
C326   C     0.66999   0.41999   0.25000   0.00000  Uiso   1.00
C327   C     0.58001   0.16999   0.75000   0.00000  Uiso   1.00
C328   C     0.91999   0.33001   0.25000   0.00000  Uiso   1.00
C329   C     0.63834   0.38834   0.25000   0.00000  Uiso   1.00
C330   C     0.86167   0.11166   0.75000   0.00000  Uiso   1.00
C331   C     0.61167   0.13834   0.25000   0.00000  Uiso   1.00
C332   C     0.88834   0.36166   0.75000   0.00000  Uiso   1.00
C333   C     0.86167   0.11166   0.25000   0.00000  Uiso   1.00
C334   C     0.63834   0.38834   0.75000   0.00000  Uiso   1.00
C335   C     0.88834   0.36166   0.25000   0.00000  Uiso   1.00
C336   C     0.61167   0.13834   0.75000   0.00000  Uiso   1.00
C337   C     0.63834   0.11167   0.75000   0.00000  Uiso   1.00
C338   C     0.86166   0.38833   0.25000   0.00000  Uiso   1.00
C339   C     0.61166   0.36167   0.75000   0.00000  Uiso   1.00
C340   C     0.88834   0.13833   0.25000   0.00000  Uiso   1.00
C341   C     0.86166   0.38833   0.75000   0.00000  Uiso   1.00
C342   C     0.63834   0.11167   0.25000   0.00000  Uiso   1.00
C343   C     0.88834   0.13833   0.75000   0.00000  Uiso   1.00
C344   C     0.61166   0.36167   0.25000   0.00000  Uiso   1.00
C345   C     0.53807   0.25120   0.41875   0.00000  Uiso   1.00
C346   C     0.96191   0.24957   0.58125   0.00000  Uiso   1.00
C347   C     0.75028   0.03809   0.41875   0.00000  Uiso   1.00
C348   C     0.74894   0.46192   0.58125   0.00000  Uiso   1.00
C349   C     0.96193   0.24880   0.41875   0.00000  Uiso   1.00
C350   C     0.53809   0.25043   0.58125   0.00000  Uiso   1.00
C351   C     0.74972   0.46191   0.41875   0.00000  Uiso   1.00
C352   C     0.75105   0.03808   0.58125   0.00000  Uiso   1.00
C353   C     0.71210   0.00382   0.91874   0.00000  Uiso   1.00
C354   C     0.78781   0.49536   0.08126   0.00000  Uiso   1.00
C355   C     0.99352   0.28754   0.91873   0.00000  Uiso   1.00
C356   C     0.50570   0.21234   0.08126   0.00000  Uiso   1.00
C357   C     0.78790   0.49618   0.91874   0.00000  Uiso   1.00
C358   C     0.71219   0.00464   0.08126   0.00000  Uiso   1.00
C359   C     0.50646   0.21246   0.91873   0.00000  Uiso   1.00
C360   C     0.99428   0.28766   0.08126   0.00000  Uiso   1.00
C361   C     0.50000   0.25000   0.39851   0.00000  Uiso   1.00
C362   C     0.50000   0.25000   0.60149   0.00000  Uiso   1.00
C363   C     0.75000  -0.00000   0.39851   0.00000  Uiso   1.00
C364   C     0.75000  -0.00000   0.60149   0.00000  Uiso   1.00
C365   C     0.75000   0.00000   0.89851   0.00000  Uiso   1.00
C366   C     0.75000   0.00000   0.10149   0.00000  Uiso   1.00
C367   C     0.50000   0.25000   0.89850   0.00000  Uiso   1.00
C368   C     0.50000   0.25000   0.10149   0.00000  Uiso   1.00
C369   C     0.96128   0.24948   0.45927   0.00000  Uiso   1.00
C370   C     0.53871   0.25117   0.54073   0.00000  Uiso   1.00
C371   C     0.74898   0.46129   0.45927   0.00000  Uiso   1.00
C372   C     0.75037   0.03873   0.54073   0.00000  Uiso   1.00
C373   C     0.53872   0.25052   0.45927   0.00000  Uiso   1.00
C374   C     0.96129   0.24883   0.54072   0.00000  Uiso   1.00
C375   C     0.75102   0.03871   0.45927   0.00000  Uiso   1.00
C376   C     0.74963   0.46127   0.54073   0.00000  Uiso   1.00
C377   C     0.78843   0.49528   0.95927   0.00000  Uiso   1.00
C378   C     0.71149   0.00410   0.04073   0.00000  Uiso   1.00
C379   C     0.50601   0.21173   0.95926   0.00000  Uiso   1.00
C380   C     0.99330   0.28815   0.04073   0.00000  Uiso   1.00
C381   C     0.71157   0.00472   0.95927   0.00000  Uiso   1.00
C382   C     0.78851   0.49591   0.04073   0.00000  Uiso   1.00
C383   C     0.99396   0.28826   0.95926   0.00000  Uiso   1.00
C384   C     0.50667   0.21185   0.04073   0.00000  Uiso   1.00
C385   C     0.50000   0.25000   0.47966   0.00000  Uiso   1.00
C386   C     0.50000   0.25000   0.52034   0.00000  Uiso   1.00
C387   C     0.75000  -0.00000   0.47966   0.00000  Uiso   1.00
C388   C     0.75000  -0.00000   0.52034   0.00000  Uiso   1.00
C389   C     0.75000   0.00000   0.97966   0.00000  Uiso   1.00
C390   C     0.75000   0.00000   0.02034   0.00000  Uiso   1.00
C391   C     0.99999   0.25000   0.97965   0.00000  Uiso   1.00
C392   C     0.99999   0.25000   0.02034   0.00000  Uiso   1.00
C393   C     0.92273   0.24873   0.47967   0.00000  Uiso   1.00
C394   C     0.57725   0.25215   0.52033   0.00000  Uiso   1.00
C395   C     0.74816   0.42274   0.47967   0.00000  Uiso   1.00
C396   C     0.75096   0.07728   0.52033   0.00000  Uiso   1.00
C397   C     0.57727   0.25128   0.47967   0.00000  Uiso   1.00
C398   C     0.92275   0.24785   0.52033   0.00000  Uiso   1.00
C399   C     0.75184   0.07726   0.47967   0.00000  Uiso   1.00
C400   C     0.74904   0.42272   0.52033   0.00000  Uiso   1.00
C401   C     0.82671   0.49064   0.97967   0.00000  Uiso   1.00
C402   C     0.67319   0.00850   0.02033   0.00000  Uiso   1.00
C403   C     0.51241   0.17371   0.97967   0.00000  Uiso   1.00
C404   C     0.98664   0.32614   0.02033   0.00000  Uiso   1.00
C405   C     0.67329   0.00937   0.97967   0.00000  Uiso   1.00
C406   C     0.82681   0.49150   0.02033   0.00000  Uiso   1.00
C407   C     0.98754   0.32629   0.97967   0.00000  Uiso   1.00
C408   C     0.51330   0.17386   0.02033   0.00000  Uiso   1.00
H409   H     0.56718   0.25287   0.40257   0.00000  Uiso   1.00
H410   H     0.93276   0.24994   0.59743   0.00000  Uiso   1.00
H411   H     0.74979   0.06724   0.40257   0.00000  Uiso   1.00
H412   H     0.74739   0.43281   0.59743   0.00000  Uiso   1.00
H413   H     0.93282   0.24713   0.40257   0.00000  Uiso   1.00
H414   H     0.56724   0.25006   0.59743   0.00000  Uiso   1.00
H415   H     0.75021   0.43276   0.40257   0.00000  Uiso   1.00
H416   H     0.75261   0.06719   0.59743   0.00000  Uiso   1.00
H417   H     0.68305   0.00609   0.90255   0.00000  Uiso   1.00
H418   H     0.81662   0.49098   0.09746   0.00000  Uiso   1.00
H419   H     0.98774   0.31610   0.90251   0.00000  Uiso   1.00
H420   H     0.50947   0.18344   0.09746   0.00000  Uiso   1.00
H421   H     0.81695   0.49391   0.90255   0.00000  Uiso   1.00
H422   H     0.68338   0.00902   0.09746   0.00000  Uiso   1.00
H423   H     0.51225   0.18390   0.90252   0.00000  Uiso   1.00
H424   H     0.99052   0.31656   0.09746   0.00000  Uiso   1.00
N425   N     0.88331   0.24819   0.45932   0.00000  Uiso   1.00
O426   O     0.87219   0.28034   0.43833   0.00000  Uiso   1.00
O427   O     0.85673   0.21761   0.46485   0.00000  Uiso   1.00
N428   N     0.61665   0.25341   0.54068   0.00000  Uiso   1.00
O429   O     0.62630   0.28603   0.56167   0.00000  Uiso   1.00
O430   O     0.64460   0.22407   0.53515   0.00000  Uiso   1.00
N431   N     0.74707   0.38333   0.45931   0.00000  Uiso   1.00
O432   O     0.71449   0.37353   0.43834   0.00000  Uiso   1.00
O433   O     0.77654   0.35551   0.46484   0.00000  Uiso   1.00
N434   N     0.75132   0.11670   0.54068   0.00000  Uiso   1.00
O435   O     0.71913   0.12769   0.56167   0.00000  Uiso   1.00
O436   O     0.78178   0.14343   0.53514   0.00000  Uiso   1.00
N437   N     0.61669   0.25181   0.45932   0.00000  Uiso   1.00
O438   O     0.62781   0.21966   0.43833   0.00000  Uiso   1.00
O439   O     0.64327   0.28239   0.46485   0.00000  Uiso   1.00
N440   N     0.88335   0.24659   0.54068   0.00000  Uiso   1.00
O441   O     0.87370   0.21397   0.56167   0.00000  Uiso   1.00
O442   O     0.85540   0.27593   0.53515   0.00000  Uiso   1.00
N443   N     0.75292   0.11667   0.45931   0.00000  Uiso   1.00
O444   O     0.78550   0.12647   0.43834   0.00000  Uiso   1.00
O445   O     0.72345   0.14449   0.46484   0.00000  Uiso   1.00
N446   N     0.74867   0.38330   0.54068   0.00000  Uiso   1.00
O447   O     0.78086   0.37231   0.56167   0.00000  Uiso   1.00
O448   O     0.71821   0.35657   0.53514   0.00000  Uiso   1.00
N449   N     0.86580   0.48557   0.95930   0.00000  Uiso   1.00
O450   O     0.87212   0.45233   0.93807   0.00000  Uiso   1.00
O451   O     0.89655   0.01193   0.96498   0.00000  Uiso   1.00
N452   N     0.63400   0.01284   0.04068   0.00000  Uiso   1.00
O453   O     0.61986   0.48194   0.06171   0.00000  Uiso   1.00
O454   O     0.61045   0.04581   0.03509   0.00000  Uiso   1.00
N455   N     0.51884   0.13481   0.95931   0.00000  Uiso   1.00
O456   O     0.98869   0.11895   0.93838   0.00000  Uiso   1.00
O457   O     0.55311   0.11316   0.96476   0.00000  Uiso   1.00
N458   N     0.97934   0.36489   0.04069   0.00000  Uiso   1.00
O459   O     0.50376   0.39717   0.03488   0.00000  Uiso   1.00
O460   O     0.94581   0.36927   0.06196   0.00000  Uiso   1.00
N461   N     0.63420   0.01443   0.95930   0.00000  Uiso   1.00
O462   O     0.62788   0.04767   0.93807   0.00000  Uiso   1.00
O463   O     0.60345   0.48807   0.96498   0.00000  Uiso   1.00
N464   N     0.86600   0.48716   0.04068   0.00000  Uiso   1.00
O465   O     0.88014   0.01807   0.06171   0.00000  Uiso   1.00
O466   O     0.88955   0.45419   0.03510   0.00000  Uiso   1.00
N467   N     0.98107   0.36517   0.95931   0.00000  Uiso   1.00
O468   O     0.51121   0.38108   0.93841   0.00000  Uiso   1.00
O469   O     0.94675   0.38676   0.96473   0.00000  Uiso   1.00
N470   N     0.52056   0.13509   0.04069   0.00000  Uiso   1.00
O471   O     0.99606   0.10286   0.03491   0.00000  Uiso   1.00
O472   O     0.55410   0.13066   0.06193   0.00000  Uiso   1.00
Zn473  Zn    0.20053   0.50000   0.21730   0.00000  Uiso   1.00
Zn474  Zn    0.29948   0.50000   0.78270   0.00000  Uiso   1.00
Zn475  Zn    0.00000   0.70053   0.21730   0.00000  Uiso   1.00
Zn476  Zn    0.00000   0.79948   0.78270   0.00000  Uiso   1.00
Zn477  Zn    0.29948   0.50000   0.21730   0.00000  Uiso   1.00
Zn478  Zn    0.20053   0.50000   0.78270   0.00000  Uiso   1.00
Zn479  Zn    0.00000   0.79948   0.21730   0.00000  Uiso   1.00
Zn480  Zn    0.00000   0.70053   0.78270   0.00000  Uiso   1.00
Zn481  Zn    0.45053   0.75000   0.71730   0.00000  Uiso   1.00
Zn482  Zn    0.04948   0.75000   0.28270   0.00000  Uiso   1.00
Zn483  Zn    0.25000   0.95053   0.71730   0.00000  Uiso   1.00
Zn484  Zn    0.25000   0.54947   0.28270   0.00000  Uiso   1.00
Zn485  Zn    0.04948   0.75000   0.71730   0.00000  Uiso   1.00
Zn486  Zn    0.45053   0.75000   0.28270   0.00000  Uiso   1.00
Zn487  Zn    0.25000   0.54947   0.71730   0.00000  Uiso   1.00
Zn488  Zn    0.25000   0.95053   0.28270   0.00000  Uiso   1.00
O489   O     0.25000   0.50000   0.25000   0.00000  Uiso   1.00
O490   O     0.25000   0.50000   0.75000   0.00000  Uiso   1.00
O491   O     0.00000   0.75000   0.25000   0.00000  Uiso   1.00
O492   O     0.00000   0.75000   0.75000   0.00000  Uiso   1.00
O493   O     0.25000   0.96539   0.33749   0.00000  Uiso   1.00
O494   O     0.25000   0.53461   0.66251   0.00000  Uiso   1.00
O495   O     0.03462   0.75000   0.33749   0.00000  Uiso   1.00
O496   O     0.46539   0.75000   0.66251   0.00000  Uiso   1.00
O497   O     0.25000   0.53461   0.33749   0.00000  Uiso   1.00
O498   O     0.25000   0.96539   0.66251   0.00000  Uiso   1.00
O499   O     0.46539   0.75000   0.33749   0.00000  Uiso   1.00
O500   O     0.03462   0.75000   0.66251   0.00000  Uiso   1.00
O501   O     0.00000   0.71539   0.83749   0.00000  Uiso   1.00
O502   O     0.00000   0.78462   0.16251   0.00000  Uiso   1.00
O503   O     0.28462   0.50000   0.83749   0.00000  Uiso   1.00
O504   O     0.21539   0.50000   0.16251   0.00000  Uiso   1.00
O505   O     0.00000   0.78462   0.83749   0.00000  Uiso   1.00
O506   O     0.00000   0.71539   0.16251   0.00000  Uiso   1.00
O507   O     0.21539   0.50000   0.83749   0.00000  Uiso   1.00
O508   O     0.28462   0.50000   0.16251   0.00000  Uiso   1.00
O509   O     0.20127   0.58332   0.27298   0.00000  Uiso   1.00
O510   O     0.29874   0.91668   0.72702   0.00000  Uiso   1.00
O511   O     0.41668   0.70127   0.27298   0.00000  Uiso   1.00
O512   O     0.08332   0.79874   0.72702   0.00000  Uiso   1.00
O513   O     0.29874   0.91668   0.27298   0.00000  Uiso   1.00
O514   O     0.20127   0.58332   0.72702   0.00000  Uiso   1.00
O515   O     0.08332   0.79874   0.27298   0.00000  Uiso   1.00
O516   O     0.41668   0.70127   0.72702   0.00000  Uiso   1.00
O517   O     0.20127   0.91668   0.72702   0.00000  Uiso   1.00
O518   O     0.29874   0.58332   0.27298   0.00000  Uiso   1.00
O519   O     0.41668   0.79874   0.72702   0.00000  Uiso   1.00
O520   O     0.08332   0.70127   0.27298   0.00000  Uiso   1.00
O521   O     0.29874   0.58332   0.72702   0.00000  Uiso   1.00
O522   O     0.20127   0.91668   0.27298   0.00000  Uiso   1.00
O523   O     0.08332   0.70127   0.72702   0.00000  Uiso   1.00
O524   O     0.41668   0.79874   0.27298   0.00000  Uiso   1.00
O525   O     0.45127   0.83332   0.77298   0.00000  Uiso   1.00
O526   O     0.04874   0.66668   0.22702   0.00000  Uiso   1.00
O527   O     0.16668   0.95127   0.77298   0.00000  Uiso   1.00
O528   O     0.33332   0.54873   0.22702   0.00000  Uiso   1.00
O529   O     0.04874   0.66668   0.77298   0.00000  Uiso   1.00
O530   O     0.45127   0.83332   0.22702   0.00000  Uiso   1.00
O531   O     0.33332   0.54873   0.77298   0.00000  Uiso   1.00
O532   O     0.16668   0.95127   0.22702   0.00000  Uiso   1.00
O533   O     0.45127   0.66668   0.22702   0.00000  Uiso   1.00
O534   O     0.04874   0.83332   0.77298   0.00000  Uiso   1.00
O535   O     0.16668   0.54873   0.22702   0.00000  Uiso   1.00
O536   O     0.33332   0.95127   0.77298   0.00000  Uiso   1.00
O537   O     0.04874   0.83332   0.22702   0.00000  Uiso   1.00
O538   O     0.45127   0.66668   0.77298   0.00000  Uiso   1.00
O539   O     0.33332   0.95127   0.22702   0.00000  Uiso   1.00
O540   O     0.16668   0.54873   0.77298   0.00000  Uiso   1.00
C541   C     0.25000   0.50000   0.35607   0.00000  Uiso   1.00
C542   C     0.25000   0.50000   0.64393   0.00000  Uiso   1.00
C543   C     0.00000   0.75000   0.35607   0.00000  Uiso   1.00
C544   C     0.00000   0.75000   0.64393   0.00000  Uiso   1.00
C545   C     0.00000   0.75000   0.85606   0.00000  Uiso   1.00
C546   C     0.00000   0.75000   0.14393   0.00000  Uiso   1.00
C547   C     0.25000   0.50000   0.85607   0.00000  Uiso   1.00
C548   C     0.25000   0.50000   0.14394   0.00000  Uiso   1.00
C549   C     0.16999   0.58001   0.25000   0.00000  Uiso   1.00
C550   C     0.33001   0.91999   0.75000   0.00000  Uiso   1.00
C551   C     0.41999   0.66999   0.25000   0.00000  Uiso   1.00
C552   C     0.08001   0.83001   0.75000   0.00000  Uiso   1.00
C553   C     0.33001   0.91999   0.25000   0.00000  Uiso   1.00
C554   C     0.16999   0.58001   0.75000   0.00000  Uiso   1.00
C555   C     0.08001   0.83001   0.25000   0.00000  Uiso   1.00
C556   C     0.41999   0.66999   0.75000   0.00000  Uiso   1.00
C557   C     0.16999   0.91999   0.75000   0.00000  Uiso   1.00
C558   C     0.33001   0.58001   0.25000   0.00000  Uiso   1.00
C559   C     0.41999   0.83001   0.75000   0.00000  Uiso   1.00
C560   C     0.08001   0.66999   0.25000   0.00000  Uiso   1.00
C561   C     0.33001   0.58001   0.75000   0.00000  Uiso   1.00
C562   C     0.16999   0.91999   0.25000   0.00000  Uiso   1.00
C563   C     0.08001   0.66999   0.75000   0.00000  Uiso   1.00
C564   C     0.41999   0.83001   0.25000   0.00000  Uiso   1.00
C565   C     0.13834   0.88834   0.25000   0.00000  Uiso   1.00
C566   C     0.36167   0.61166   0.75000   0.00000  Uiso   1.00
C567   C     0.11167   0.63834   0.25000   0.00000  Uiso   1.00
C568   C     0.38834   0.86166   0.75000   0.00000  Uiso   1.00
C569   C     0.36167   0.61166   0.25000   0.00000  Uiso   1.00
C570   C     0.13834   0.88834   0.75000   0.00000  Uiso   1.00
C571   C     0.38834   0.86166   0.25000   0.00000  Uiso   1.00
C572   C     0.11167   0.63834   0.75000   0.00000  Uiso   1.00
C573   C     0.13834   0.61167   0.75000   0.00000  Uiso   1.00
C574   C     0.36166   0.88833   0.25000   0.00000  Uiso   1.00
C575   C     0.11166   0.86167   0.75000   0.00000  Uiso   1.00
C576   C     0.38834   0.63833   0.25000   0.00000  Uiso   1.00
C577   C     0.36166   0.88833   0.75000   0.00000  Uiso   1.00
C578   C     0.13834   0.61167   0.25000   0.00000  Uiso   1.00
C579   C     0.38834   0.63833   0.75000   0.00000  Uiso   1.00
C580   C     0.11166   0.86167   0.25000   0.00000  Uiso   1.00
C581   C     0.03807   0.75120   0.41875   0.00000  Uiso   1.00
C582   C     0.46191   0.74957   0.58125   0.00000  Uiso   1.00
C583   C     0.25028   0.53809   0.41875   0.00000  Uiso   1.00
C584   C     0.24894   0.96192   0.58125   0.00000  Uiso   1.00
C585   C     0.46193   0.74880   0.41875   0.00000  Uiso   1.00
C586   C     0.03809   0.75043   0.58125   0.00000  Uiso   1.00
C587   C     0.24972   0.96191   0.41875   0.00000  Uiso   1.00
C588   C     0.25105   0.53808   0.58125   0.00000  Uiso   1.00
C589   C     0.21210   0.50382   0.91874   0.00000  Uiso   1.00
C590   C     0.28781   0.99536   0.08126   0.00000  Uiso   1.00
C591   C     0.49352   0.78754   0.91873   0.00000  Uiso   1.00
C592   C     0.00570   0.71234   0.08126   0.00000  Uiso   1.00
C593   C     0.28790   0.99618   0.91874   0.00000  Uiso   1.00
C594   C     0.21219   0.50464   0.08126   0.00000  Uiso   1.00
C595   C     0.00646   0.71246   0.91873   0.00000  Uiso   1.00
C596   C     0.49428   0.78766   0.08126   0.00000  Uiso   1.00
C597   C     0.00000   0.75000   0.39851   0.00000  Uiso   1.00
C598   C     0.00000   0.75000   0.60149   0.00000  Uiso   1.00
C599   C     0.25000   0.50000   0.39851   0.00000  Uiso   1.00
C600   C     0.25000   0.50000   0.60149   0.00000  Uiso   1.00
C601   C     0.25000   0.50000   0.89851   0.00000  Uiso   1.00
C602   C     0.25000   0.50000   0.10149   0.00000  Uiso   1.00
C603   C    -0.00000   0.75000   0.89850   0.00000  Uiso   1.00
C604   C    -0.00000   0.75000   0.10149   0.00000  Uiso   1.00
C605   C     0.46128   0.74948   0.45927   0.00000  Uiso   1.00
C606   C     0.03871   0.75117   0.54073   0.00000  Uiso   1.00
C607   C     0.24898   0.96129   0.45927   0.00000  Uiso   1.00
C608   C     0.25037   0.53873   0.54073   0.00000  Uiso   1.00
C609   C     0.03872   0.75052   0.45927   0.00000  Uiso   1.00
C610   C     0.46129   0.74883   0.54072   0.00000  Uiso   1.00
C611   C     0.25102   0.53871   0.45927   0.00000  Uiso   1.00
C612   C     0.24963   0.96127   0.54073   0.00000  Uiso   1.00
C613   C     0.28843   0.99528   0.95927   0.00000  Uiso   1.00
C614   C     0.21149   0.50410   0.04073   0.00000  Uiso   1.00
C615   C     0.00601   0.71173   0.95926   0.00000  Uiso   1.00
C616   C     0.49330   0.78815   0.04073   0.00000  Uiso   1.00
C617   C     0.21157   0.50472   0.95927   0.00000  Uiso   1.00
C618   C     0.28851   0.99591   0.04073   0.00000  Uiso   1.00
C619   C     0.49396   0.78826   0.95926   0.00000  Uiso   1.00
C620   C     0.00667   0.71185   0.04073   0.00000  Uiso   1.00
C621   C     0.00000   0.75000   0.47966   0.00000  Uiso   1.00
C622   C     0.00000   0.75000   0.52034   0.00000  Uiso   1.00
C623   C     0.25000   0.50000   0.47966   0.00000  Uiso   1.00
C624   C     0.25000   0.50000   0.52034   0.00000  Uiso   1.00
C625   C     0.25000   0.50000   0.97966   0.00000  Uiso   1.00
C626   C     0.25000   0.50000   0.02034   0.00000  Uiso   1.00
C627   C     0.49999   0.75000   0.97965   0.00000  Uiso   1.00
C628   C     0.49999   0.75000   0.02034   0.00000  Uiso   1.00
C629   C     0.42273   0.74873   0.47967   0.00000  Uiso   1.00
C630   C     0.07725   0.75215   0.52033   0.00000  Uiso   1.00
C631   C     0.24816   0.92274   0.47967   0.00000  Uiso   1.00
C632   C     0.25096   0.57728   0.52033   0.00000  Uiso   1.00
C633   C     0.07727   0.75128   0.47967   0.00000  Uiso   1.00
C634   C     0.42275   0.74785   0.52033   0.00000  Uiso   1.00
C635   C     0.25184   0.57726   0.47967   0.00000  Uiso   1.00
C636   C     0.24904   0.92272   0.52033   0.00000  Uiso   1.00
C637   C     0.32671   0.99064   0.97967   0.00000  Uiso   1.00
C638   C     0.17319   0.50850   0.02033   0.00000  Uiso   1.00
C639   C     0.01241   0.67371   0.97967   0.00000  Uiso   1.00
C640   C     0.48664   0.82614   0.02033   0.00000  Uiso   1.00
C641   C     0.17329   0.50937   0.97967   0.00000  Uiso   1.00
C642   C     0.32681   0.99150   0.02033   0.00000  Uiso   1.00
C643   C     0.48754   0.82629   0.97967   0.00000  Uiso   1.00
C644   C     0.01330   0.67386   0.02033   0.00000  Uiso   1.00
H645   H     0.06718   0.75287   0.40257   0.00000  Uiso   1.00
H646   H     0.43276   0.74994   0.59743   0.00000  Uiso   1.00
H647   H     0.24979   0.56724   0.40257   0.00000  Uiso   1.00
H648   H     0.24739   0.93281   0.59743   0.00000  Uiso   1.00
H649   H     0.43282   0.74713   0.40257   0.00000  Uiso   1.00
H650   H     0.06724   0.75006   0.59743   0.00000  Uiso   1.00
H651   H     0.25021   0.93276   0.40257   0.00000  Uiso   1.00
H652   H     0.25261   0.56719   0.59743   0.00000  Uiso   1.00
H653   H     0.18305   0.50609   0.90255   0.00000  Uiso   1.00
H654   H     0.31662   0.99098   0.09746   0.00000  Uiso   1.00
H655   H     0.48774   0.81610   0.90251   0.00000  Uiso   1.00
H656   H     0.00947   0.68344   0.09746   0.00000  Uiso   1.00
H657   H     0.31695   0.99391   0.90255   0.00000  Uiso   1.00
H658   H     0.18338   0.50902   0.09746   0.00000  Uiso   1.00
H659   H     0.01225   0.68390   0.90252   0.00000  Uiso   1.00
H660   H     0.49052   0.81656   0.09746   0.00000  Uiso   1.00
N661   N     0.38331   0.74819   0.45932   0.00000  Uiso   1.00
O662   O     0.37219   0.78034   0.43833   0.00000  Uiso   1.00
O663   O     0.35673   0.71761   0.46485   0.00000  Uiso   1.00
N664   N     0.11665   0.75341   0.54068   0.00000  Uiso   1.00
O665   O     0.12630   0.78603   0.56167   0.00000  Uiso   1.00
O666   O     0.14460   0.72407   0.53515   0.00000  Uiso   1.00
N667   N     0.24707   0.88333   0.45931   0.00000  Uiso   1.00
O668   O     0.21449   0.87353   0.43834   0.00000  Uiso   1.00
O669   O     0.27654   0.85551   0.46484   0.00000  Uiso   1.00
N670   N     0.25132   0.61670   0.54068   0.00000  Uiso   1.00
O671   O     0.21913   0.62769   0.56167   0.00000  Uiso   1.00
O672   O     0.28178   0.64343   0.53514   0.00000  Uiso   1.00
N673   N     0.11669   0.75181   0.45932   0.00000  Uiso   1.00
O674   O     0.12781   0.71966   0.43833   0.00000  Uiso   1.00
O675   O     0.14327   0.78239   0.46485   0.00000  Uiso   1.00
N676   N     0.38335   0.74659   0.54068   0.00000  Uiso   1.00
O677   O     0.37370   0.71397   0.56167   0.00000  Uiso   1.00
O678   O     0.35540   0.77593   0.53515   0.00000  Uiso   1.00
N679   N     0.25292   0.61667   0.45931   0.00000  Uiso   1.00
O680   O     0.28550   0.62647   0.43834   0.00000  Uiso   1.00
O681   O     0.22345   0.64449   0.46484   0.00000  Uiso   1.00
N682   N     0.24867   0.88330   0.54068   0.00000  Uiso   1.00
O683   O     0.28086   0.87231   0.56167   0.00000  Uiso   1.00
O684   O     0.21821   0.85657   0.53514   0.00000  Uiso   1.00
N685   N     0.36580   0.98557   0.95930   0.00000  Uiso   1.00
O686   O     0.37212   0.95233   0.93807   0.00000  Uiso   1.00
O687   O     0.39655   0.51193   0.96498   0.00000  Uiso   1.00
N688   N     0.13400   0.51284   0.04068   0.00000  Uiso   1.00
O689   O     0.11986   0.98194   0.06171   0.00000  Uiso   1.00
O690   O     0.11045   0.54581   0.03509   0.00000  Uiso   1.00
N691   N     0.01884   0.63481   0.95931   0.00000  Uiso   1.00
O692   O     0.48869   0.61895   0.93838   0.00000  Uiso   1.00
O693   O     0.05311   0.61316   0.96476   0.00000  Uiso   1.00
N694   N     0.47934   0.86489   0.04069   0.00000  Uiso   1.00
O695   O     0.00376   0.89717   0.03488   0.00000  Uiso   1.00
O696   O     0.44581   0.86927   0.06196   0.00000  Uiso   1.00
N697   N     0.13420   0.51443   0.95930   0.00000  Uiso   1.00
O698   O     0.12788   0.54767   0.93807   0.00000  Uiso   1.00
O699   O     0.10345   0.98807   0.96498   0.00000  Uiso   1.00
N700   N     0.36600   0.98716   0.04068   0.00000  Uiso   1.00
O701   O     0.38014   0.51807   0.06171   0.00000  Uiso   1.00
O702   O     0.38955   0.95419   0.03510   0.00000  Uiso   1.00
N703   N     0.48107   0.86517   0.95931   0.00000  Uiso   1.00
O704   O     0.01121   0.88108   0.93841   0.00000  Uiso   1.00
O705   O     0.44675   0.88676   0.96473   0.00000  Uiso   1.00
N706   N     0.02056   0.63509   0.04069   0.00000  Uiso   1.00
O707   O     0.49606   0.60286   0.03491   0.00000  Uiso   1.00
O708   O     0.05410   0.63066   0.06193   0.00000  Uiso   1.00
Zn709  Zn    0.70053   0.50000   0.21730   0.00000  Uiso   1.00
Zn710  Zn    0.79948   0.50000   0.78270   0.00000  Uiso   1.00
Zn711  Zn    0.50000   0.70053   0.21730   0.00000  Uiso   1.00
Zn712  Zn    0.50000   0.79948   0.78270   0.00000  Uiso   1.00
Zn713  Zn    0.79948   0.50000   0.21730   0.00000  Uiso   1.00
Zn714  Zn    0.70053   0.50000   0.78270   0.00000  Uiso   1.00
Zn715  Zn    0.50000   0.79948   0.21730   0.00000  Uiso   1.00
Zn716  Zn    0.50000   0.70053   0.78270   0.00000  Uiso   1.00
Zn717  Zn    0.95053   0.75000   0.71730   0.00000  Uiso   1.00
Zn718  Zn    0.54948   0.75000   0.28270   0.00000  Uiso   1.00
Zn719  Zn    0.75000   0.95053   0.71730   0.00000  Uiso   1.00
Zn720  Zn    0.75000   0.54947   0.28270   0.00000  Uiso   1.00
Zn721  Zn    0.54948   0.75000   0.71730   0.00000  Uiso   1.00
Zn722  Zn    0.95053   0.75000   0.28270   0.00000  Uiso   1.00
Zn723  Zn    0.75000   0.54947   0.71730   0.00000  Uiso   1.00
Zn724  Zn    0.75000   0.95053   0.28270   0.00000  Uiso   1.00
O725   O     0.75000   0.50000   0.25000   0.00000  Uiso   1.00
O726   O     0.75000   0.50000   0.75000   0.00000  Uiso   1.00
O727   O     0.50000   0.75000   0.25000   0.00000  Uiso   1.00
O728   O     0.50000   0.75000   0.75000   0.00000  Uiso   1.00
O729   O     0.75000   0.96539   0.33749   0.00000  Uiso   1.00
O730   O     0.75000   0.53461   0.66251   0.00000  Uiso   1.00
O731   O     0.53462   0.75000   0.33749   0.00000  Uiso   1.00
O732   O     0.96539   0.75000   0.66251   0.00000  Uiso   1.00
O733   O     0.75000   0.53461   0.33749   0.00000  Uiso   1.00
O734   O     0.75000   0.96539   0.66251   0.00000  Uiso   1.00
O735   O     0.96539   0.75000   0.33749   0.00000  Uiso   1.00
O736   O     0.53462   0.75000   0.66251   0.00000  Uiso   1.00
O737   O     0.50000   0.71539   0.83749   0.00000  Uiso   1.00
O738   O     0.50000   0.78462   0.16251   0.00000  Uiso   1.00
O739   O     0.78462   0.50000   0.83749   0.00000  Uiso   1.00
O740   O     0.71539   0.50000   0.16251   0.00000  Uiso   1.00
O741   O     0.50000   0.78462   0.83749   0.00000  Uiso   1.00
O742   O     0.50000   0.71539   0.16251   0.00000  Uiso   1.00
O743   O     0.71539   0.50000   0.83749   0.00000  Uiso   1.00
O744   O     0.78462   0.50000   0.16251   0.00000  Uiso   1.00
O745   O     0.70127   0.58332   0.27298   0.00000  Uiso   1.00
O746   O     0.79874   0.91668   0.72702   0.00000  Uiso   1.00
O747   O     0.91668   0.70127   0.27298   0.00000  Uiso   1.00
O748   O     0.58332   0.79874   0.72702   0.00000  Uiso   1.00
O749   O     0.79874   0.91668   0.27298   0.00000  Uiso   1.00
O750   O     0.70127   0.58332   0.72702   0.00000  Uiso   1.00
O751   O     0.58332   0.79874   0.27298   0.00000  Uiso   1.00
O752   O     0.91668   0.70127   0.72702   0.00000  Uiso   1.00
O753   O     0.70127   0.91668   0.72702   0.00000  Uiso   1.00
O754   O     0.79874   0.58332   0.27298   0.00000  Uiso   1.00
O755   O     0.91668   0.79874   0.72702   0.00000  Uiso   1.00
O756   O     0.58332   0.70127   0.27298   0.00000  Uiso   1.00
O757   O     0.79874   0.58332   0.72702   0.00000  Uiso   1.00
O758   O     0.70127   0.91668   0.27298   0.00000  Uiso   1.00
O759   O     0.58332   0.70127   0.72702   0.00000  Uiso   1.00
O760   O     0.91668   0.79874   0.27298   0.00000  Uiso   1.00
O761   O     0.95127   0.83332   0.77298   0.00000  Uiso   1.00
O762   O     0.54874   0.66668   0.22702   0.00000  Uiso   1.00
O763   O     0.66668   0.95127   0.77298   0.00000  Uiso   1.00
O764   O     0.83332   0.54873   0.22702   0.00000  Uiso   1.00
O765   O     0.54874   0.66668   0.77298   0.00000  Uiso   1.00
O766   O     0.95127   0.83332   0.22702   0.00000  Uiso   1.00
O767   O     0.83332   0.54873   0.77298   0.00000  Uiso   1.00
O768   O     0.66668   0.95127   0.22702   0.00000  Uiso   1.00
O769   O     0.95127   0.66668   0.22702   0.00000  Uiso   1.00
O770   O     0.54874   0.83332   0.77298   0.00000  Uiso   1.00
O771   O     0.66668   0.54873   0.22702   0.00000  Uiso   1.00
O772   O     0.83332   0.95127   0.77298   0.00000  Uiso   1.00
O773   O     0.54874   0.83332   0.22702   0.00000  Uiso   1.00
O774   O     0.95127   0.66668   0.77298   0.00000  Uiso   1.00
O775   O     0.83332   0.95127   0.22702   0.00000  Uiso   1.00
O776   O     0.66668   0.54873   0.77298   0.00000  Uiso   1.00
C777   C     0.75000   0.50000   0.35607   0.00000  Uiso   1.00
C778   C     0.75000   0.50000   0.64393   0.00000  Uiso   1.00
C779   C     0.50000   0.75000   0.35607   0.00000  Uiso   1.00
C780   C     0.50000   0.75000   0.64393   0.00000  Uiso   1.00
C781   C     0.50000   0.75000   0.85606   0.00000  Uiso   1.00
C782   C     0.50000   0.75000   0.14393   0.00000  Uiso   1.00
C783   C     0.75000   0.50000   0.85607   0.00000  Uiso   1.00
C784   C     0.75000   0.50000   0.14394   0.00000  Uiso   1.00
C785   C     0.66999   0.58001   0.25000   0.00000  Uiso   1.00
C786   C     0.83001   0.91999   0.75000   0.00000  Uiso   1.00
C787   C     0.91999   0.66999   0.25000   0.00000  Uiso   1.00
C788   C     0.58001   0.83001   0.75000   0.00000  Uiso   1.00
C789   C     0.83001   0.91999   0.25000   0.00000  Uiso   1.00
C790   C     0.66999   0.58001   0.75000   0.00000  Uiso   1.00
C791   C     0.58001   0.83001   0.25000   0.00000  Uiso   1.00
C792   C     0.91999   0.66999   0.75000   0.00000  Uiso   1.00
C793   C     0.66999   0.91999   0.75000   0.00000  Uiso   1.00
C794   C     0.83001   0.58001   0.25000   0.00000  Uiso   1.00
C795   C     0.91999   0.83001   0.75000   0.00000  Uiso   1.00
C796   C     0.58001   0.66999   0.25000   0.00000  Uiso   1.00
C797   C     0.83001   0.58001   0.75000   0.00000  Uiso   1.00
C798   C     0.66999   0.91999   0.25000   0.00000  Uiso   1.00
C799   C     0.58001   0.66999   0.75000   0.00000  Uiso   1.00
C800   C     0.91999   0.83001   0.25000   0.00000  Uiso   1.00
C801   C     0.63834   0.88834   0.25000   0.00000  Uiso   1.00
C802   C     0.86167   0.61166   0.75000   0.00000  Uiso   1.00
C803   C     0.61167   0.63834   0.25000   0.00000  Uiso   1.00
C804   C     0.88834   0.86166   0.75000   0.00000  Uiso   1.00
C805   C     0.86167   0.61166   0.25000   0.00000  Uiso   1.00
C806   C     0.63834   0.88834   0.75000   0.00000  Uiso   1.00
C807   C     0.88834   0.86166   0.25000   0.00000  Uiso   1.00
C808   C     0.61167   0.63834   0.75000   0.00000  Uiso   1.00
C809   C     0.63834   0.61167   0.75000   0.00000  Uiso   1.00
C810   C     0.86166   0.88833   0.25000   0.00000  Uiso   1.00
C811   C     0.61166   0.86167   0.75000   0.00000  Uiso   1.00
C812   C     0.88834   0.63833   0.25000   0.00000  Uiso   1.00
C813   C     0.86166   0.88833   0.75000   0.00000  Uiso   1.00
C814   C     0.63834   0.61167   0.25000   0.00000  Uiso   1.00
C815   C     0.88834   0.63833   0.75000   0.00000  Uiso   1.00
C816   C     0.61166   0.86167   0.25000   0.00000  Uiso   1.00
C817   C     0.53807   0.75120   0.41875   0.00000  Uiso   1.00
C818   C     0.96191   0.74957   0.58125   0.00000  Uiso   1.00
C819   C     0.75028   0.53809   0.41875   0.00000  Uiso   1.00
C820   C     0.74894   0.96192   0.58125   0.00000  Uiso   1.00
C821   C     0.96193   0.74880   0.41875   0.00000  Uiso   1.00
C822   C     0.53809   0.75043   0.58125   0.00000  Uiso   1.00
C823   C     0.74972   0.96191   0.41875   0.00000  Uiso   1.00
C824   C     0.75105   0.53808   0.58125   0.00000  Uiso   1.00
C825   C     0.71210   0.50382   0.91874   0.00000  Uiso   1.00
C826   C     0.78781   0.99536   0.08126   0.00000  Uiso   1.00
C827   C     0.99352   0.78754   0.91873   0.00000  Uiso   1.00
C828   C     0.50570   0.71234   0.08126   0.00000  Uiso   1.00
C829   C     0.78790   0.99618   0.91874   0.00000  Uiso   1.00
C830   C     0.71219   0.50464   0.08126   0.00000  Uiso   1.00
C831   C     0.50646   0.71246   0.91873   0.00000  Uiso   1.00
C832   C     0.99428   0.78766   0.08126   0.00000  Uiso   1.00
C833   C     0.50000   0.75000   0.39851   0.00000  Uiso   1.00
C834   C     0.50000   0.75000   0.60149   0.00000  Uiso   1.00
C835   C     0.75000   0.50000   0.39851   0.00000  Uiso   1.00
C836   C     0.75000   0.50000   0.60149   0.00000  Uiso   1.00
C837   C     0.75000   0.50000   0.89851   0.00000  Uiso   1.00
C838   C     0.75000   0.50000   0.10149   0.00000  Uiso   1.00
C839   C     0.50000   0.75000   0.89850   0.00000  Uiso   1.00
C840   C     0.50000   0.75000   0.10149   0.00000  Uiso   1.00
C841   C     0.96128   0.74948   0.45927   0.00000  Uiso   1.00
C842   C     0.53871   0.75117   0.54073   0.00000  Uiso   1.00
C843   C     0.74898   0.96129   0.45927   0.00000  Uiso   1.00
C844   C     0.75037   0.53873   0.54073   0.00000  Uiso   1.00
C845   C     0.53872   0.75052   0.45927   0.00000  Uiso   1.00
C846   C     0.96129   0.74883   0.54072   0.00000  Uiso   1.00
C847   C     0.75102   0.53871   0.45927   0.00000  Uiso   1.00
C848   C     0.74963   0.96127   0.54073   0.00000  Uiso   1.00
C849   C     0.78843   0.99528   0.95927   0.00000  Uiso   1.00
C850   C     0.71149   0.50410   0.04073   0.00000  Uiso   1.00
C851   C     0.50601   0.71173   0.95926   0.00000  Uiso   1.00
C852   C     0.99330   0.78815   0.04073   0.00000  Uiso   1.00
C853   C     0.71157   0.50472   0.95927   0.00000  Uiso   1.00
C854   C     0.78851   0.99591   0.04073   0.00000  Uiso   1.00
C855   C     0.99396   0.78826   0.95926   0.00000  Uiso   1.00
C856   C     0.50667   0.71185   0.04073   0.00000  Uiso   1.00
C857   C     0.50000   0.75000   0.47966   0.00000  Uiso   1.00
C858   C     0.50000   0.75000   0.52034   0.00000  Uiso   1.00
C859   C     0.75000   0.50000   0.47966   0.00000  Uiso   1.00
C860   C     0.75000   0.50000   0.52034   0.00000  Uiso   1.00
C861   C     0.75000   0.50000   0.97966   0.00000  Uiso   1.00
C862   C     0.75000   0.50000   0.02034   0.00000  Uiso   1.00
C863   C     0.99999   0.75000   0.97965   0.00000  Uiso   1.00
C864   C     0.99999   0.75000   0.02034   0.00000  Uiso   1.00
C865   C     0.92273   0.74873   0.47967   0.00000  Uiso   1.00
C866   C     0.57725   0.75215   0.52033   0.00000  Uiso   1.00
C867   C     0.74816   0.92274   0.47967   0.00000  Uiso   1.00
C868   C     0.75096   0.57728   0.52033   0.00000  Uiso   1.00
C869   C     0.57727   0.75128   0.47967   0.00000  Uiso   1.00
C870   C     0.92275   0.74785   0.52033   0.00000  Uiso   1.00
C871   C     0.75184   0.57726   0.47967   0.00000  Uiso   1.00
C872   C     0.74904   0.92272   0.52033   0.00000  Uiso   1.00
C873   C     0.82671   0.99064   0.97967   0.00000  Uiso   1.00
C874   C     0.67319   0.50850   0.02033   0.00000  Uiso   1.00
C875   C     0.51241   0.67371   0.97967   0.00000  Uiso   1.00
C876   C     0.98664   0.82614   0.02033   0.00000  Uiso   1.00
C877   C     0.67329   0.50937   0.97967   0.00000  Uiso   1.00
C878   C     0.82681   0.99150   0.02033   0.00000  Uiso   1.00
C879   C     0.98754   0.82629   0.97967   0.00000  Uiso   1.00
C880   C     0.51330   0.67386   0.02033   0.00000  Uiso   1.00
H881   H     0.56718   0.75287   0.40257   0.00000  Uiso   1.00
H882   H     0.93276   0.74994   0.59743   0.00000  Uiso   1.00
H883   H     0.74979   0.56724   0.40257   0.00000  Uiso   1.00
H884   H     0.74739   0.93281   0.59743   0.00000  Uiso   1.00
H885   H     0.93282   0.74713   0.40257   0.00000  Uiso   1.00
H886   H     0.56724   0.75006   0.59743   0.00000  Uiso   1.00
H887   H     0.75021   0.93276   0.40257   0.00000  Uiso   1.00
H888   H     0.75261   0.56719   0.59743   0.00000  Uiso   1.00
H889   H     0.68305   0.50609   0.90255   0.00000  Uiso   1.00
H890   H     0.81662   0.99098   0.09746   0.00000  Uiso   1.00
H891   H     0.98774   0.81610   0.90251   0.00000  Uiso   1.00
H892   H     0.50947   0.68344   0.09746   0.00000  Uiso   1.00
H893   H     0.81695   0.99391   0.90255   0.00000  Uiso   1.00
H894   H     0.68338   0.50902   0.09746   0.00000  Uiso   1.00
H895   H     0.51225   0.68390   0.90252   0.00000  Uiso   1.00
H896   H     0.99052   0.81656   0.09746   0.00000  Uiso   1.00
N897   N     0.88331   0.74819   0.45932   0.00000  Uiso   1.00
O898   O     0.87219   0.78034   0.43833   0.00000  Uiso   1.00
O899   O     0.85673   0.71761   0.46485   0.00000  Uiso   1.00
N900   N     0.61665   0.75341   0.54068   0.00000  Uiso   1.00
O901   O     0.62630   0.78603   0.56167   0.00000  Uiso   1.00
O902   O     0.64460   0.72407   0.53515   0.00000  Uiso   1.00
N903   N     0.74707   0.88333   0.45931   0.00000  Uiso   1.00
O904   O     0.71449   0.87353   0.43834   0.00000  Uiso   1.00
O905   O     0.77654   0.85551   0.46484   0.00000  Uiso   1.00
N906   N     0.75132   0.61670   0.54068   0.00000  Uiso   1.00
O907   O     0.71913   0.62769   0.56167   0.00000  Uiso   1.00
O908   O     0.78178   0.64343   0.53514   0.00000  Uiso   1.00
N909   N     0.61669   0.75181   0.45932   0.00000  Uiso   1.00
O910   O     0.62781   0.71966   0.43833   0.00000  Uiso   1.00
O911   O     0.64327   0.78239   0.46485   0.00000  Uiso   1.00
N912   N     0.88335   0.74659   0.54068   0.00000  Uiso   1.00
O913   O     0.87370   0.71397   0.56167   0.00000  Uiso   1.00
O914   O     0.85540   0.77593   0.53515   0.00000  Uiso   1.00
N915   N     0.75292   0.61667   0.45931   0.00000  Uiso   1.00
O916   O     0.78550   0.62647   0.43834   0.00000  Uiso   1.00
O917   O     0.72345   0.64449   0.46484   0.00000  Uiso   1.00
N918   N     0.74867   0.88330   0.54068   0.00000  Uiso   1.00
O919   O     0.78086   0.87231   0.56167   0.00000  Uiso   1.00
O920   O     0.71821   0.85657   0.53514   0.00000  Uiso   1.00
N921   N     0.86580   0.98557   0.95930   0.00000  Uiso   1.00
O922   O     0.87212   0.95233   0.93807   0.00000  Uiso   1.00
O923   O     0.89655   0.51193   0.96498   0.00000  Uiso   1.00
N924   N     0.63400   0.51284   0.04068   0.00000  Uiso   1.00
O925   O     0.61986   0.98194   0.06171   0.00000  Uiso   1.00
O926   O     0.61045   0.54581   0.03509   0.00000  Uiso   1.00
N927   N     0.51884   0.63481   0.95931   0.00000  Uiso   1.00
O928   O     0.98869   0.61895   0.93838   0.00000  Uiso   1.00
O929   O     0.55311   0.61316   0.96476   0.00000  Uiso   1.00
N930   N     0.97934   0.86489   0.04069   0.00000  Uiso   1.00
O931   O     0.50376   0.89717   0.03488   0.00000  Uiso   1.00
O932   O     0.94581   0.86927   0.06196   0.00000  Uiso   1.00
N933   N     0.63420   0.51443   0.95930   0.00000  Uiso   1.00
O934   O     0.62788   0.54767   0.93807   0.00000  Uiso   1.00
O935   O     0.60345   0.98807   0.96498   0.00000  Uiso   1.00
N936   N     0.86600   0.98716   0.04068   0.00000  Uiso   1.00
O937   O     0.88014   0.51807   0.06171   0.00000  Uiso   1.00
O938   O     0.88955   0.95419   0.03510   0.00000  Uiso   1.00
N939   N     0.98107   0.86517   0.95931   0.00000  Uiso   1.00
O940   O     0.51121   0.88108   0.93841   0.00000  Uiso   1.00
O941   O     0.94675   0.88676   0.96473   0.00000  Uiso   1.00
N942   N     0.52056   0.63509   0.04069   0.00000  Uiso   1.00
O943   O     0.99606   0.60286   0.03491   0.00000  Uiso   1.00
O944   O     0.55410   0.63066   0.06193   0.00000  Uiso   1.00
loop_
_geom_bond_atom_site_label_1
_geom_bond_atom_site_label_2
_geom_bond_distance
_geom_bond_site_symmetry_2
_ccdc_geom_bond_type
Zn1    O63     1.914   .     S
Zn1    O17     1.935   .     S
Zn1    O32     1.952   .     S
Zn1    O532    1.914   1_545 S
Zn2    O18     1.935   .     S
Zn2    O536    1.914   1_545 S
Zn2    O31     1.952   .     S
Zn2    O59     1.914   .     S
Zn3    O19     1.935   .     S
Zn3    O297    1.914   1_455 S
Zn3    O34     1.952   .     S
Zn3    O54     1.914   .     S
Zn4    O289    1.914   1_455 S
Zn4    O33     1.952   .     S
Zn4    O20     1.935   .     S
Zn4    O62     1.914   .     S
Zn5    O56     1.914   .     S
Zn5    O17     1.935   .     S
Zn5    O36     1.952   .     S
Zn5    O539    1.914   1_545 S
Zn6    O527    1.914   1_545 S
Zn6    O35     1.952   .     S
Zn6    O18     1.935   .     S
Zn6    O68     1.914   .     S
Zn7    O294    1.914   1_455 S
Zn7    O30     1.952   .     S
Zn7    O19     1.935   .     S
Zn7    O65     1.914   .     S
Zn8    O302    1.914   1_455 S
Zn8    O20     1.935   .     S
Zn8    O29     1.952   .     S
Zn8    O57     1.914   .     S
Zn9    O256    1.935   .     S
Zn9    O44     1.914   .     S
Zn9    O24     1.952   .     S
Zn9    O47     1.914   .     S
Zn10   O48     1.914   .     S
Zn10   O43     1.914   .     S
Zn10   O23     1.952   .     S
Zn10   O19     1.935   .     S
Zn11   O490    1.935   .     S
Zn11   O38     1.914   .     S
Zn11   O26     1.952   .     S
Zn11   O45     1.914   .     S
Zn12   O37     1.914   .     S
Zn12   O17     1.935   .     S
Zn12   O46     1.914   .     S
Zn12   O25     1.952   .     S
Zn13   O40     1.914   .     S
Zn13   O51     1.914   .     S
Zn13   O28     1.952   .     S
Zn13   O20     1.935   .     S
Zn14   O39     1.914   .     S
Zn14   O52     1.914   .     S
Zn14   O27     1.952   .     S
Zn14   O255    1.935   .     S
Zn15   O22     1.952   .     S
Zn15   O42     1.914   .     S
Zn15   O49     1.914   .     S
Zn15   O18     1.935   .     S
Zn16   O21     1.952   .     S
Zn16   O50     1.914   .     S
Zn16   O41     1.914   .     S
Zn16   O489    1.935   .     S
O17    Zn488   1.935   1_545 S
O18    Zn483   1.935   1_545 S
O19    Zn250   1.935   1_455 S
O20    Zn245   1.935   1_455 S
O21    C541    1.273   .     A
O22    C70     1.273   .     A
O23    C71     1.273   .     S
O24    C308    1.273   .     A
O25    C69     1.273   .     S
O26    C542    1.273   .     S
O27    C307    1.273   .     A
O28    C72     1.273   .     S
O29    C73     1.273   .     A
O30    C74     1.273   .     A
O31    C75     1.273   .     S
O32    C76     1.273   .     S
O33    C73     1.273   .     A
O34    C74     1.273   .     A
O35    C75     1.273   .     S
O36    C76     1.273   .     S
O37    C77     1.276   .     A
O38    C78     1.276   .     A
O39    C79     1.276   .     A
O40    C80     1.276   .     A
O41    C81     1.276   .     A
O42    C82     1.276   .     A
O43    C83     1.276   .     A
O44    C84     1.276   .     A
O45    C85     1.276   .     A
O46    C86     1.276   .     A
O47    C87     1.276   .     A
O48    C88     1.276   .     A
O49    C89     1.276   .     A
O50    C90     1.276   .     A
O51    C91     1.276   .     A
O52    C92     1.276   .     A
O53    Zn240   1.914   .     S
O53    C87     1.276   .     A
O54    C88     1.276   .     A
O55    Zn478   1.914   .     S
O55    C85     1.276   .     A
O56    C86     1.276   .     A
O57    C91     1.276   .     A
O58    Zn243   1.914   .     S
O58    C92     1.276   .     A
O59    C89     1.276   .     A
O60    C90     1.276   .     A
O60    Zn473   1.914   .     S
O61    Zn239   1.914   .     S
O61    C79     1.276   .     A
O62    C80     1.276   .     A
O63    C77     1.276   .     A
O64    Zn474   1.914   .     S
O64    C78     1.276   .     A
O65    C83     1.276   .     A
O66    Zn244   1.914   .     S
O66    C84     1.276   .     A
O67    C81     1.276   .     A
O67    Zn477   1.914   .     S
O68    C82     1.276   .     A
C69    O493    1.273   1_545 A
C69    C127    1.467   .     S
C70    C128    1.467   .     S
C70    O498    1.273   1_545 S
C71    O263    1.273   1_455 A
C71    C125    1.467   .     S
C72    O260    1.273   1_455 A
C72    C126    1.467   .     S
C73    C131    1.467   .     S
C74    C132    1.467   .     S
C75    C129    1.467   .     S
C76    C130    1.467   .     S
C77    C106    1.421   .     S
C78    C105    1.421   .     S
C79    C104    1.422   .     S
C80    C103    1.422   .     S
C81    C102    1.421   .     S
C82    C101    1.421   .     S
C83    C108    1.422   .     S
C84    C107    1.422   .     S
C85    C98     1.422   .     S
C86    C97     1.422   .     S
C87    C96     1.421   .     S
C88    C95     1.421   .     S
C89    C94     1.422   .     S
C90    C93     1.422   .     S
C91    C100    1.421   .     S
C92    C99     1.421   .     S
C93    C108    1.198   .     T
C94    C107    1.198   .     T
C95    C106    1.198   .     T
C96    C105    1.198   .     T
C97    C104    1.198   .     T
C98    C103    1.198   .     T
C99    C102    1.198   .     T
C100   C101    1.198   .     T
C109   H173    1.082   .     S
C109   C137    1.401   .     A
C109   C125    1.397   .     S
C110   C138    1.401   .     A
C110   C362    1.397   .     A
C110   H174    1.082   .     S
C111   C139    1.401   .     A
C111   H175    1.082   .     S
C111   C127    1.397   .     A
C112   C140    1.401   .     A
C112   H176    1.082   .     S
C112   C600    1.397   .     S
C113   H177    1.082   .     S
C113   C361    1.397   .     A
C113   C133    1.401   .     A
C114   H178    1.082   .     S
C114   C134    1.401   .     A
C114   C126    1.397   .     S
C115   C135    1.401   .     A
C115   H179    1.082   .     S
C115   C599    1.397   .     S
C116   H180    1.082   .     S
C116   C136    1.401   .     A
C116   C128    1.397   .     A
C117   C145    1.401   .     A
C117   C129    1.397   .     A
C117   H181    1.082   .     S
C118   H182    1.082   .     S
C118   C146    1.401   .     A
C118   C602    1.397   .     S
C119   C147    1.401   .     A
C119   C367    1.397   .     A
C119   H183    1.082   .     S
C120   H184    1.082   .     S
C120   C148    1.401   .     A
C120   C132    1.397   .     S
C121   H185    1.082   .     S
C121   C141    1.401   .     A
C121   C601    1.397   .     S
C122   H186    1.082   .     S
C122   C142    1.401   .     A
C122   C130    1.397   .     A
C123   C143    1.401   .     A
C123   H187    1.082   .     S
C123   C131    1.397   .     S
C124   C368    1.397   .     A
C124   H188    1.082   .     S
C124   C144    1.401   .     A
C125   C349    1.397   1_455 A
C126   C346    1.397   1_455 A
C127   C587    1.397   1_545 S
C128   C584    1.397   1_545 S
C129   C593    1.397   1_545 S
C130   C590    1.397   1_545 S
C131   C355    1.397   1_455 A
C132   C360    1.397   1_455 A
C133   C385    1.417   .     A
C133   C157    1.413   .     A
C134   C158    1.413   .     A
C134   C150    1.417   .     S
C135   C159    1.413   .     A
C135   C623    1.417   .     S
C136   C152    1.417   .     A
C136   C160    1.413   .     A
C137   C161    1.413   .     A
C137   C149    1.417   .     S
C138   C386    1.417   .     A
C138   C162    1.413   .     A
C139   C163    1.413   .     A
C139   C151    1.417   .     A
C140   C164    1.413   .     A
C140   C624    1.417   .     S
C141   C165    1.413   .     A
C141   C625    1.417   .     S
C142   C166    1.413   .     A
C142   C154    1.418   .     A
C143   C167    1.413   .     A
C143   C391    1.418   1_455 S
C144   C168    1.413   .     A
C144   C156    1.418   .     A
C145   C153    1.417   .     A
C145   C169    1.413   .     A
C146   C170    1.413   .     A
C146   C626    1.418   .     S
C147   C155    1.418   .     A
C147   C171    1.413   .     A
C148   C172    1.413   .     A
C148   C392    1.418   1_455 S
C149   C369    1.417   1_455 A
C149   C150    1.406   .     A
C150   C374    1.417   1_455 A
C151   C152    1.406   .     A
C151   C607    1.417   1_545 S
C152   C612    1.417   1_545 S
C153   C613    1.417   1_545 S
C153   C154    1.406   1_556 S
C154   C618    1.418   1_545 S
C154   C153    1.406   1_554 S
C155   C379    1.418   .     S
C155   C156    1.406   1_556 S
C156   C384    1.418   .     S
C156   C155    1.406   1_554 S
C157   N189    1.436   .     S
C157   C162    1.405   .     A
C158   C161    1.405   .     A
C158   N192    1.436   .     S
C159   N195    1.436   .     S
C159   C164    1.405   .     A
C160   C163    1.405   .     A
C160   N198    1.436   .     S
C161   N201    1.436   .     S
C162   N204    1.436   .     S
C163   N207    1.436   .     S
C164   N210    1.436   .     S
C165   N213    1.436   .     S
C165   C170    1.406   1_556 S
C166   N216    1.436   .     S
C166   C169    1.406   1_554 S
C167   N219    1.436   .     S
C167   C172    1.406   1_556 S
C168   N222    1.437   .     S
C168   C171    1.406   1_554 S
C169   N225    1.436   .     S
C169   C166    1.406   1_556 S
C170   N228    1.436   .     S
C170   C165    1.406   1_554 S
C171   N231    1.436   .     S
C171   C168    1.406   1_556 S
C172   N234    1.436   .     S
C172   C167    1.406   1_554 S
N189   O191    1.301   .     A
N189   O190    1.301   .     A
N192   O194    1.301   .     A
N192   O193    1.301   .     A
N195   O196    1.301   .     A
N195   O197    1.301   .     A
N198   O199    1.301   .     A
N198   O200    1.301   .     A
N201   O202    1.301   .     A
N201   O203    1.301   .     A
N204   O205    1.301   .     A
N204   O206    1.301   .     A
N207   O208    1.301   .     A
N207   O209    1.301   .     A
N210   O212    1.301   .     A
N210   O211    1.301   .     A
N213   O214    1.301   .     A
N213   O687    1.301   .     S
O215   N685    1.301   1_545 S
N216   O218    1.301   .     A
N216   O689    1.301   1_545 S
O217   N688    1.301   .     S
N219   O221    1.301   .     A
N219   O456    1.301   1_455 S
O220   N455    1.301   .     S
N222   O224    1.301   .     A
N222   O459    1.301   .     S
O223   N458    1.301   1_455 S
N225   O226    1.301   .     A
N225   O699    1.301   1_545 S
O227   N697    1.301   .     S
N228   O230    1.301   .     A
N228   O701    1.301   .     S
O229   N700    1.301   1_545 S
N231   O233    1.301   .     A
N231   O468    1.301   .     S
O232   N467    1.301   1_455 S
N234   O236    1.301   .     A
N234   O471    1.301   1_455 S
O235   N470    1.301   .     S
Zn237  O299    1.914   .     S
Zn237  O253    1.935   .     S
Zn237  O268    1.952   .     S
Zn237  O768    1.914   1_545 S
Zn238  O254    1.935   .     S
Zn238  O772    1.914   1_545 S
Zn238  O267    1.952   .     S
Zn238  O295    1.914   .     S
Zn239  O255    1.935   .     S
Zn239  O270    1.952   .     S
Zn239  O290    1.914   .     S
Zn240  O269    1.952   .     S
Zn240  O256    1.935   .     S
Zn240  O298    1.914   .     S
Zn241  O292    1.914   .     S
Zn241  O253    1.935   .     S
Zn241  O272    1.952   .     S
Zn241  O775    1.914   1_545 S
Zn242  O763    1.914   1_545 S
Zn242  O271    1.952   .     S
Zn242  O254    1.935   .     S
Zn242  O304    1.914   .     S
Zn243  O266    1.952   .     S
Zn243  O255    1.935   .     S
Zn243  O301    1.914   .     S
Zn244  O256    1.935   .     S
Zn244  O265    1.952   .     S
Zn244  O293    1.914   .     S
Zn245  O20     1.935   1_655 S
Zn245  O280    1.914   .     S
Zn245  O260    1.952   .     S
Zn245  O283    1.914   .     S
Zn246  O284    1.914   .     S
Zn246  O279    1.914   .     S
Zn246  O259    1.952   .     S
Zn246  O255    1.935   .     S
Zn247  O726    1.935   .     S
Zn247  O274    1.914   .     S
Zn247  O262    1.952   .     S
Zn247  O281    1.914   .     S
Zn248  O273    1.914   .     S
Zn248  O253    1.935   .     S
Zn248  O282    1.914   .     S
Zn248  O261    1.952   .     S
Zn249  O276    1.914   .     S
Zn249  O287    1.914   .     S
Zn249  O264    1.952   .     S
Zn249  O256    1.935   .     S
Zn250  O275    1.914   .     S
Zn250  O288    1.914   .     S
Zn250  O263    1.952   .     S
Zn250  O19     1.935   1_655 S
Zn251  O258    1.952   .     S
Zn251  O278    1.914   .     S
Zn251  O285    1.914   .     S
Zn251  O254    1.935   .     S
Zn252  O257    1.952   .     S
Zn252  O286    1.914   .     S
Zn252  O277    1.914   .     S
Zn252  O725    1.935   .     S
O253   Zn724   1.935   1_545 S
O254   Zn719   1.935   1_545 S
O257   C777    1.273   .     A
O258   C306    1.273   .     A
O259   C307    1.273   .     S
O260   C72     1.273   1_655 A
O261   C305    1.273   .     S
O262   C778    1.273   .     S
O263   C71     1.273   1_655 A
O264   C308    1.273   .     S
O265   C309    1.273   .     A
O266   C310    1.273   .     A
O267   C311    1.273   .     S
O268   C312    1.273   .     S
O269   C309    1.273   .     A
O270   C310    1.273   .     A
O271   C311    1.273   .     S
O272   C312    1.273   .     S
O273   C313    1.276   .     A
O274   C314    1.276   .     A
O275   C315    1.276   .     A
O276   C316    1.276   .     A
O277   C317    1.276   .     A
O278   C318    1.276   .     A
O279   C319    1.276   .     A
O280   C320    1.276   .     A
O281   C321    1.276   .     A
O282   C322    1.276   .     A
O283   C323    1.276   .     A
O284   C324    1.276   .     A
O285   C325    1.276   .     A
O286   C326    1.276   .     A
O287   C327    1.276   .     A
O288   C328    1.276   .     A
O289   Zn4     1.914   1_655 S
O289   C323    1.276   .     A
O290   C324    1.276   .     A
O291   Zn714   1.914   .     S
O291   C321    1.276   .     A
O292   C322    1.276   .     A
O293   C327    1.276   .     A
O294   Zn7     1.914   1_655 S
O294   C328    1.276   .     A
O295   C325    1.276   .     A
O296   C326    1.276   .     A
O296   Zn709   1.914   .     S
O297   Zn3     1.914   1_655 S
O297   C315    1.276   .     A
O298   C316    1.276   .     A
O299   C313    1.276   .     A
O300   Zn710   1.914   .     S
O300   C314    1.276   .     A
O301   C319    1.276   .     A
O302   Zn8     1.914   1_655 S
O302   C320    1.276   .     A
O303   C317    1.276   .     A
O303   Zn713   1.914   .     S
O304   C318    1.276   .     A
C305   O729    1.273   1_545 A
C305   C363    1.467   .     S
C306   C364    1.467   .     S
C306   O734    1.273   1_545 S
C307   C361    1.467   .     S
C308   C362    1.467   .     S
C309   C367    1.467   .     S
C310   C368    1.467   .     S
C311   C365    1.467   .     S
C312   C366    1.467   .     S
C313   C342    1.421   .     S
C314   C341    1.421   .     S
C315   C340    1.422   .     S
C316   C339    1.422   .     S
C317   C338    1.421   .     S
C318   C337    1.421   .     S
C319   C344    1.422   .     S
C320   C343    1.422   .     S
C321   C334    1.422   .     S
C322   C333    1.422   .     S
C323   C332    1.421   .     S
C324   C331    1.421   .     S
C325   C330    1.422   .     S
C326   C329    1.422   .     S
C327   C336    1.421   .     S
C328   C335    1.421   .     S
C329   C344    1.198   .     T
C330   C343    1.198   .     T
C331   C342    1.198   .     T
C332   C341    1.198   .     T
C333   C340    1.198   .     T
C334   C339    1.198   .     T
C335   C338    1.198   .     T
C336   C337    1.198   .     T
C345   H409    1.082   .     S
C345   C373    1.401   .     A
C345   C361    1.397   .     S
C346   C374    1.401   .     A
C346   C126    1.397   1_655 A
C346   H410    1.082   .     S
C347   C375    1.401   .     A
C347   H411    1.082   .     S
C347   C363    1.397   .     A
C348   C376    1.401   .     A
C348   H412    1.082   .     S
C348   C836    1.397   .     S
C349   H413    1.082   .     S
C349   C125    1.397   1_655 A
C349   C369    1.401   .     A
C350   H414    1.082   .     S
C350   C370    1.401   .     A
C350   C362    1.397   .     S
C351   C371    1.401   .     A
C351   H415    1.082   .     S
C351   C835    1.397   .     S
C352   H416    1.082   .     S
C352   C372    1.401   .     A
C352   C364    1.397   .     A
C353   C381    1.401   .     A
C353   C365    1.397   .     A
C353   H417    1.082   .     S
C354   H418    1.082   .     S
C354   C382    1.401   .     A
C354   C838    1.397   .     S
C355   C383    1.401   .     A
C355   C131    1.397   1_655 A
C355   H419    1.082   .     S
C356   H420    1.082   .     S
C356   C384    1.401   .     A
C356   C368    1.397   .     S
C357   H421    1.082   .     S
C357   C377    1.401   .     A
C357   C837    1.397   .     S
C358   H422    1.082   .     S
C358   C378    1.401   .     A
C358   C366    1.397   .     A
C359   C379    1.401   .     A
C359   H423    1.082   .     S
C359   C367    1.397   .     S
C360   C132    1.397   1_655 A
C360   H424    1.082   .     S
C360   C380    1.401   .     A
C363   C823    1.397   1_545 S
C364   C820    1.397   1_545 S
C365   C829    1.397   1_545 S
C366   C826    1.397   1_545 S
C369   C149    1.417   1_655 A
C369   C393    1.413   .     A
C370   C394    1.413   .     A
C370   C386    1.417   .     S
C371   C395    1.413   .     A
C371   C859    1.417   .     S
C372   C388    1.417   .     A
C372   C396    1.413   .     A
C373   C397    1.413   .     A
C373   C385    1.417   .     S
C374   C150    1.417   1_655 A
C374   C398    1.413   .     A
C375   C399    1.413   .     A
C375   C387    1.417   .     A
C376   C400    1.413   .     A
C376   C860    1.417   .     S
C377   C401    1.413   .     A
C377   C861    1.417   .     S
C378   C402    1.413   .     A
C378   C390    1.418   .     A
C379   C403    1.413   .     A
C380   C404    1.413   .     A
C380   C392    1.418   .     A
C381   C389    1.417   .     A
C381   C405    1.413   .     A
C382   C406    1.413   .     A
C382   C862    1.418   .     S
C383   C391    1.418   .     A
C383   C407    1.413   .     A
C384   C408    1.413   .     A
C385   C386    1.406   .     A
C387   C388    1.406   .     A
C387   C843    1.417   1_545 S
C388   C848    1.417   1_545 S
C389   C849    1.417   1_545 S
C389   C390    1.406   1_556 S
C390   C854    1.418   1_545 S
C390   C389    1.406   1_554 S
C391   C143    1.418   1_655 S
C391   C392    1.406   1_556 S
C392   C148    1.418   1_655 S
C392   C391    1.406   1_554 S
C393   N425    1.436   .     S
C393   C398    1.405   .     A
C394   C397    1.405   .     A
C394   N428    1.436   .     S
C395   N431    1.436   .     S
C395   C400    1.405   .     A
C396   C399    1.405   .     A
C396   N434    1.436   .     S
C397   N437    1.436   .     S
C398   N440    1.436   .     S
C399   N443    1.436   .     S
C400   N446    1.436   .     S
C401   N449    1.436   .     S
C401   C406    1.406   1_556 S
C402   N452    1.436   .     S
C402   C405    1.406   1_554 S
C403   N455    1.436   .     S
C403   C408    1.406   1_556 S
C404   N458    1.437   .     S
C404   C407    1.406   1_554 S
C405   N461    1.436   .     S
C405   C402    1.406   1_556 S
C406   N464    1.436   .     S
C406   C401    1.406   1_554 S
C407   N467    1.436   .     S
C407   C404    1.406   1_556 S
C408   N470    1.436   .     S
C408   C403    1.406   1_554 S
N425   O427    1.301   .     A
N425   O426    1.301   .     A
N428   O430    1.301   .     A
N428   O429    1.301   .     A
N431   O432    1.301   .     A
N431   O433    1.301   .     A
N434   O435    1.301   .     A
N434   O436    1.301   .     A
N437   O438    1.301   .     A
N437   O439    1.301   .     A
N440   O441    1.301   .     A
N440   O442    1.301   .     A
N443   O444    1.301   .     A
N443   O445    1.301   .     A
N446   O448    1.301   .     A
N446   O447    1.301   .     A
N449   O450    1.301   .     A
N449   O923    1.301   .     S
O451   N921    1.301   1_545 S
N452   O454    1.301   .     A
N452   O925    1.301   1_545 S
O453   N924    1.301   .     S
N455   O457    1.301   .     A
O456   N219    1.301   1_655 S
N458   O460    1.301   .     A
N458   O223    1.301   1_655 S
N461   O462    1.301   .     A
N461   O935    1.301   1_545 S
O463   N933    1.301   .     S
N464   O466    1.301   .     A
N464   O937    1.301   .     S
O465   N936    1.301   1_545 S
N467   O469    1.301   .     A
N467   O232    1.301   1_655 S
N470   O472    1.301   .     A
O471   N234    1.301   1_655 S
Zn473  O535    1.914   .     S
Zn473  O489    1.935   .     S
Zn473  O504    1.952   .     S
Zn474  O490    1.935   .     S
Zn474  O503    1.952   .     S
Zn474  O531    1.914   .     S
Zn475  O491    1.935   .     S
Zn475  O769    1.914   1_455 S
Zn475  O506    1.952   .     S
Zn475  O526    1.914   .     S
Zn476  O761    1.914   1_455 S
Zn476  O505    1.952   .     S
Zn476  O492    1.935   .     S
Zn476  O534    1.914   .     S
Zn477  O528    1.914   .     S
Zn477  O489    1.935   .     S
Zn477  O508    1.952   .     S
Zn478  O507    1.952   .     S
Zn478  O490    1.935   .     S
Zn478  O540    1.914   .     S
Zn479  O766    1.914   1_455 S
Zn479  O502    1.952   .     S
Zn479  O491    1.935   .     S
Zn479  O537    1.914   .     S
Zn480  O774    1.914   1_455 S
Zn480  O492    1.935   .     S
Zn480  O501    1.952   .     S
Zn480  O529    1.914   .     S
Zn481  O728    1.935   .     S
Zn481  O516    1.914   .     S
Zn481  O496    1.952   .     S
Zn481  O519    1.914   .     S
Zn482  O520    1.914   .     S
Zn482  O515    1.914   .     S
Zn482  O495    1.952   .     S
Zn482  O491    1.935   .     S
Zn483  O18     1.935   1_565 S
Zn483  O510    1.914   .     S
Zn483  O498    1.952   .     S
Zn483  O517    1.914   .     S
Zn484  O509    1.914   .     S
Zn484  O489    1.935   .     S
Zn484  O518    1.914   .     S
Zn484  O497    1.952   .     S
Zn485  O512    1.914   .     S
Zn485  O523    1.914   .     S
Zn485  O500    1.952   .     S
Zn485  O492    1.935   .     S
Zn486  O511    1.914   .     S
Zn486  O524    1.914   .     S
Zn486  O499    1.952   .     S
Zn486  O727    1.935   .     S
Zn487  O494    1.952   .     S
Zn487  O514    1.914   .     S
Zn487  O521    1.914   .     S
Zn487  O490    1.935   .     S
Zn488  O493    1.952   .     S
Zn488  O522    1.914   .     S
Zn488  O513    1.914   .     S
Zn488  O17     1.935   1_565 S
O491   Zn722   1.935   1_455 S
O492   Zn717   1.935   1_455 S
O493   C69     1.273   1_565 A
O494   C542    1.273   .     A
O495   C543    1.273   .     S
O496   C780    1.273   .     A
O497   C541    1.273   .     S
O498   C70     1.273   1_565 S
O499   C779    1.273   .     A
O500   C544    1.273   .     S
O501   C545    1.273   .     A
O502   C546    1.273   .     A
O503   C547    1.273   .     S
O504   C548    1.273   .     S
O505   C545    1.273   .     A
O506   C546    1.273   .     A
O507   C547    1.273   .     S
O508   C548    1.273   .     S
O509   C549    1.276   .     A
O510   C550    1.276   .     A
O511   C551    1.276   .     A
O512   C552    1.276   .     A
O513   C553    1.276   .     A
O514   C554    1.276   .     A
O515   C555    1.276   .     A
O516   C556    1.276   .     A
O517   C557    1.276   .     A
O518   C558    1.276   .     A
O519   C559    1.276   .     A
O520   C560    1.276   .     A
O521   C561    1.276   .     A
O522   C562    1.276   .     A
O523   C563    1.276   .     A
O524   C564    1.276   .     A
O525   Zn712   1.914   .     S
O525   C559    1.276   .     A
O526   C560    1.276   .     A
O527   Zn6     1.914   1_565 S
O527   C557    1.276   .     A
O528   C558    1.276   .     A
O529   C563    1.276   .     A
O530   Zn715   1.914   .     S
O530   C564    1.276   .     A
O531   C561    1.276   .     A
O532   C562    1.276   .     A
O532   Zn1     1.914   1_565 S
O533   Zn711   1.914   .     S
O533   C551    1.276   .     A
O534   C552    1.276   .     A
O535   C549    1.276   .     A
O536   Zn2     1.914   1_565 S
O536   C550    1.276   .     A
O537   C555    1.276   .     A
O538   Zn716   1.914   .     S
O538   C556    1.276   .     A
O539   C553    1.276   .     A
O539   Zn5     1.914   1_565 S
O540   C554    1.276   .     A
C541   C599    1.467   .     S
C542   C600    1.467   .     S
C543   O735    1.273   1_455 A
C543   C597    1.467   .     S
C544   O732    1.273   1_455 A
C544   C598    1.467   .     S
C545   C603    1.467   .     S
C546   C604    1.467   .     S
C547   C601    1.467   .     S
C548   C602    1.467   .     S
C549   C578    1.421   .     S
C550   C577    1.421   .     S
C551   C576    1.422   .     S
C552   C575    1.422   .     S
C553   C574    1.421   .     S
C554   C573    1.421   .     S
C555   C580    1.422   .     S
C556   C579    1.422   .     S
C557   C570    1.422   .     S
C558   C569    1.422   .     S
C559   C568    1.421   .     S
C560   C567    1.421   .     S
C561   C566    1.422   .     S
C562   C565    1.422   .     S
C563   C572    1.421   .     S
C564   C571    1.421   .     S
C565   C580    1.198   .     T
C566   C579    1.198   .     T
C567   C578    1.198   .     T
C568   C577    1.198   .     T
C569   C576    1.198   .     T
C570   C575    1.198   .     T
C571   C574    1.198   .     T
C572   C573    1.198   .     T
C581   H645    1.082   .     S
C581   C609    1.401   .     A
C581   C597    1.397   .     S
C582   C610    1.401   .     A
C582   C834    1.397   .     A
C582   H646    1.082   .     S
C583   C611    1.401   .     A
C583   H647    1.082   .     S
C583   C599    1.397   .     A
C584   C612    1.401   .     A
C584   H648    1.082   .     S
C584   C128    1.397   1_565 S
C585   H649    1.082   .     S
C585   C833    1.397   .     A
C585   C605    1.401   .     A
C586   H650    1.082   .     S
C586   C606    1.401   .     A
C586   C598    1.397   .     S
C587   C607    1.401   .     A
C587   H651    1.082   .     S
C587   C127    1.397   1_565 S
C588   H652    1.082   .     S
C588   C608    1.401   .     A
C588   C600    1.397   .     A
C589   C617    1.401   .     A
C589   C601    1.397   .     A
C589   H653    1.082   .     S
C590   H654    1.082   .     S
C590   C618    1.401   .     A
C590   C130    1.397   1_565 S
C591   C619    1.401   .     A
C591   C839    1.397   .     A
C591   H655    1.082   .     S
C592   H656    1.082   .     S
C592   C620    1.401   .     A
C592   C604    1.397   .     S
C593   H657    1.082   .     S
C593   C613    1.401   .     A
C593   C129    1.397   1_565 S
C594   H658    1.082   .     S
C594   C614    1.401   .     A
C594   C602    1.397   .     A
C595   C615    1.401   .     A
C595   H659    1.082   .     S
C595   C603    1.397   .     S
C596   C840    1.397   .     A
C596   H660    1.082   .     S
C596   C616    1.401   .     A
C597   C821    1.397   1_455 A
C598   C818    1.397   1_455 A
C603   C827    1.397   1_455 A
C604   C832    1.397   1_455 A
C605   C857    1.417   .     A
C605   C629    1.413   .     A
C606   C630    1.413   .     A
C606   C622    1.417   .     S
C607   C631    1.413   .     A
C607   C151    1.417   1_565 S
C608   C624    1.417   .     A
C608   C632    1.413   .     A
C609   C633    1.413   .     A
C609   C621    1.417   .     S
C610   C858    1.417   .     A
C610   C634    1.413   .     A
C611   C635    1.413   .     A
C611   C623    1.417   .     A
C612   C636    1.413   .     A
C612   C152    1.417   1_565 S
C613   C637    1.413   .     A
C613   C153    1.417   1_565 S
C614   C638    1.413   .     A
C614   C626    1.418   .     A
C615   C639    1.413   .     A
C615   C863    1.418   1_455 S
C616   C640    1.413   .     A
C616   C628    1.418   .     A
C617   C625    1.417   .     A
C617   C641    1.413   .     A
C618   C642    1.413   .     A
C618   C154    1.418   1_565 S
C619   C627    1.418   .     A
C619   C643    1.413   .     A
C620   C644    1.413   .     A
C620   C864    1.418   1_455 S
C621   C841    1.417   1_455 A
C621   C622    1.406   .     A
C622   C846    1.417   1_455 A
C623   C624    1.406   .     A
C625   C626    1.406   1_556 S
C626   C625    1.406   1_554 S
C627   C851    1.418   .     S
C627   C628    1.406   1_556 S
C628   C856    1.418   .     S
C628   C627    1.406   1_554 S
C629   N661    1.436   .     S
C629   C634    1.405   .     A
C630   C633    1.405   .     A
C630   N664    1.436   .     S
C631   N667    1.436   .     S
C631   C636    1.405   .     A
C632   C635    1.405   .     A
C632   N670    1.436   .     S
C633   N673    1.436   .     S
C634   N676    1.436   .     S
C635   N679    1.436   .     S
C636   N682    1.436   .     S
C637   N685    1.436   .     S
C637   C642    1.406   1_556 S
C638   N688    1.436   .     S
C638   C641    1.406   1_554 S
C639   N691    1.436   .     S
C639   C644    1.406   1_556 S
C640   N694    1.437   .     S
C640   C643    1.406   1_554 S
C641   N697    1.436   .     S
C641   C638    1.406   1_556 S
C642   N700    1.436   .     S
C642   C637    1.406   1_554 S
C643   N703    1.436   .     S
C643   C640    1.406   1_556 S
C644   N706    1.436   .     S
C644   C639    1.406   1_554 S
N661   O663    1.301   .     A
N661   O662    1.301   .     A
N664   O666    1.301   .     A
N664   O665    1.301   .     A
N667   O668    1.301   .     A
N667   O669    1.301   .     A
N670   O671    1.301   .     A
N670   O672    1.301   .     A
N673   O674    1.301   .     A
N673   O675    1.301   .     A
N676   O677    1.301   .     A
N676   O678    1.301   .     A
N679   O680    1.301   .     A
N679   O681    1.301   .     A
N682   O684    1.301   .     A
N682   O683    1.301   .     A
N685   O686    1.301   .     A
N685   O215    1.301   1_565 S
N688   O690    1.301   .     A
O689   N216    1.301   1_565 S
N691   O693    1.301   .     A
N691   O928    1.301   1_455 S
O692   N927    1.301   .     S
N694   O696    1.301   .     A
N694   O931    1.301   .     S
O695   N930    1.301   1_455 S
N697   O698    1.301   .     A
O699   N225    1.301   1_565 S
N700   O702    1.301   .     A
N700   O229    1.301   1_565 S
N703   O705    1.301   .     A
N703   O940    1.301   .     S
O704   N939    1.301   1_455 S
N706   O708    1.301   .     A
N706   O943    1.301   1_455 S
O707   N942    1.301   .     S
Zn709  O771    1.914   .     S
Zn709  O725    1.935   .     S
Zn709  O740    1.952   .     S
Zn710  O726    1.935   .     S
Zn710  O739    1.952   .     S
Zn710  O767    1.914   .     S
Zn711  O727    1.935   .     S
Zn711  O742    1.952   .     S
Zn711  O762    1.914   .     S
Zn712  O741    1.952   .     S
Zn712  O728    1.935   .     S
Zn712  O770    1.914   .     S
Zn713  O764    1.914   .     S
Zn713  O725    1.935   .     S
Zn713  O744    1.952   .     S
Zn714  O743    1.952   .     S
Zn714  O726    1.935   .     S
Zn714  O776    1.914   .     S
Zn715  O738    1.952   .     S
Zn715  O727    1.935   .     S
Zn715  O773    1.914   .     S
Zn716  O728    1.935   .     S
Zn716  O737    1.952   .     S
Zn716  O765    1.914   .     S
Zn717  O492    1.935   1_655 S
Zn717  O752    1.914   .     S
Zn717  O732    1.952   .     S
Zn717  O755    1.914   .     S
Zn718  O756    1.914   .     S
Zn718  O751    1.914   .     S
Zn718  O731    1.952   .     S
Zn718  O727    1.935   .     S
Zn719  O254    1.935   1_565 S
Zn719  O746    1.914   .     S
Zn719  O734    1.952   .     S
Zn719  O753    1.914   .     S
Zn720  O745    1.914   .     S
Zn720  O725    1.935   .     S
Zn720  O754    1.914   .     S
Zn720  O733    1.952   .     S
Zn721  O748    1.914   .     S
Zn721  O759    1.914   .     S
Zn721  O736    1.952   .     S
Zn721  O728    1.935   .     S
Zn722  O747    1.914   .     S
Zn722  O760    1.914   .     S
Zn722  O735    1.952   .     S
Zn722  O491    1.935   1_655 S
Zn723  O730    1.952   .     S
Zn723  O750    1.914   .     S
Zn723  O757    1.914   .     S
Zn723  O726    1.935   .     S
Zn724  O729    1.952   .     S
Zn724  O758    1.914   .     S
Zn724  O749    1.914   .     S
Zn724  O253    1.935   1_565 S
O729   C305    1.273   1_565 A
O730   C778    1.273   .     A
O731   C779    1.273   .     S
O732   C544    1.273   1_655 A
O733   C777    1.273   .     S
O734   C306    1.273   1_565 S
O735   C543    1.273   1_655 A
O736   C780    1.273   .     S
O737   C781    1.273   .     A
O738   C782    1.273   .     A
O739   C783    1.273   .     S
O740   C784    1.273   .     S
O741   C781    1.273   .     A
O742   C782    1.273   .     A
O743   C783    1.273   .     S
O744   C784    1.273   .     S
O745   C785    1.276   .     A
O746   C786    1.276   .     A
O747   C787    1.276   .     A
O748   C788    1.276   .     A
O749   C789    1.276   .     A
O750   C790    1.276   .     A
O751   C791    1.276   .     A
O752   C792    1.276   .     A
O753   C793    1.276   .     A
O754   C794    1.276   .     A
O755   C795    1.276   .     A
O756   C796    1.276   .     A
O757   C797    1.276   .     A
O758   C798    1.276   .     A
O759   C799    1.276   .     A
O760   C800    1.276   .     A
O761   Zn476   1.914   1_655 S
O761   C795    1.276   .     A
O762   C796    1.276   .     A
O763   Zn242   1.914   1_565 S
O763   C793    1.276   .     A
O764   C794    1.276   .     A
O765   C799    1.276   .     A
O766   Zn479   1.914   1_655 S
O766   C800    1.276   .     A
O767   C797    1.276   .     A
O768   C798    1.276   .     A
O768   Zn237   1.914   1_565 S
O769   Zn475   1.914   1_655 S
O769   C787    1.276   .     A
O770   C788    1.276   .     A
O771   C785    1.276   .     A
O772   Zn238   1.914   1_565 S
O772   C786    1.276   .     A
O773   C791    1.276   .     A
O774   Zn480   1.914   1_655 S
O774   C792    1.276   .     A
O775   C789    1.276   .     A
O775   Zn241   1.914   1_565 S
O776   C790    1.276   .     A
C777   C835    1.467   .     S
C778   C836    1.467   .     S
C779   C833    1.467   .     S
C780   C834    1.467   .     S
C781   C839    1.467   .     S
C782   C840    1.467   .     S
C783   C837    1.467   .     S
C784   C838    1.467   .     S
C785   C814    1.421   .     S
C786   C813    1.421   .     S
C787   C812    1.422   .     S
C788   C811    1.422   .     S
C789   C810    1.421   .     S
C790   C809    1.421   .     S
C791   C816    1.422   .     S
C792   C815    1.422   .     S
C793   C806    1.422   .     S
C794   C805    1.422   .     S
C795   C804    1.421   .     S
C796   C803    1.421   .     S
C797   C802    1.422   .     S
C798   C801    1.422   .     S
C799   C808    1.421   .     S
C800   C807    1.421   .     S
C801   C816    1.198   .     T
C802   C815    1.198   .     T
C803   C814    1.198   .     T
C804   C813    1.198   .     T
C805   C812    1.198   .     T
C806   C811    1.198   .     T
C807   C810    1.198   .     T
C808   C809    1.198   .     T
C817   H881    1.082   .     S
C817   C845    1.401   .     A
C817   C833    1.397   .     S
C818   C846    1.401   .     A
C818   C598    1.397   1_655 A
C818   H882    1.082   .     S
C819   C847    1.401   .     A
C819   H883    1.082   .     S
C819   C835    1.397   .     A
C820   C848    1.401   .     A
C820   H884    1.082   .     S
C820   C364    1.397   1_565 S
C821   H885    1.082   .     S
C821   C597    1.397   1_655 A
C821   C841    1.401   .     A
C822   H886    1.082   .     S
C822   C842    1.401   .     A
C822   C834    1.397   .     S
C823   C843    1.401   .     A
C823   H887    1.082   .     S
C823   C363    1.397   1_565 S
C824   H888    1.082   .     S
C824   C844    1.401   .     A
C824   C836    1.397   .     A
C825   C853    1.401   .     A
C825   C837    1.397   .     A
C825   H889    1.082   .     S
C826   H890    1.082   .     S
C826   C854    1.401   .     A
C826   C366    1.397   1_565 S
C827   C855    1.401   .     A
C827   C603    1.397   1_655 A
C827   H891    1.082   .     S
C828   H892    1.082   .     S
C828   C856    1.401   .     A
C828   C840    1.397   .     S
C829   H893    1.082   .     S
C829   C849    1.401   .     A
C829   C365    1.397   1_565 S
C830   H894    1.082   .     S
C830   C850    1.401   .     A
C830   C838    1.397   .     A
C831   C851    1.401   .     A
C831   H895    1.082   .     S
C831   C839    1.397   .     S
C832   C604    1.397   1_655 A
C832   H896    1.082   .     S
C832   C852    1.401   .     A
C841   C621    1.417   1_655 A
C841   C865    1.413   .     A
C842   C866    1.413   .     A
C842   C858    1.417   .     S
C843   C867    1.413   .     A
C843   C387    1.417   1_565 S
C844   C860    1.417   .     A
C844   C868    1.413   .     A
C845   C869    1.413   .     A
C845   C857    1.417   .     S
C846   C622    1.417   1_655 A
C846   C870    1.413   .     A
C847   C871    1.413   .     A
C847   C859    1.417   .     A
C848   C872    1.413   .     A
C848   C388    1.417   1_565 S
C849   C873    1.413   .     A
C849   C389    1.417   1_565 S
C850   C874    1.413   .     A
C850   C862    1.418   .     A
C851   C875    1.413   .     A
C852   C876    1.413   .     A
C852   C864    1.418   .     A
C853   C861    1.417   .     A
C853   C877    1.413   .     A
C854   C878    1.413   .     A
C854   C390    1.418   1_565 S
C855   C863    1.418   .     A
C855   C879    1.413   .     A
C856   C880    1.413   .     A
C857   C858    1.406   .     A
C859   C860    1.406   .     A
C861   C862    1.406   1_556 S
C862   C861    1.406   1_554 S
C863   C615    1.418   1_655 S
C863   C864    1.406   1_556 S
C864   C620    1.418   1_655 S
C864   C863    1.406   1_554 S
C865   N897    1.436   .     S
C865   C870    1.405   .     A
C866   C869    1.405   .     A
C866   N900    1.436   .     S
C867   N903    1.436   .     S
C867   C872    1.405   .     A
C868   C871    1.405   .     A
C868   N906    1.436   .     S
C869   N909    1.436   .     S
C870   N912    1.436   .     S
C871   N915    1.436   .     S
C872   N918    1.436   .     S
C873   N921    1.436   .     S
C873   C878    1.406   1_556 S
C874   N924    1.436   .     S
C874   C877    1.406   1_554 S
C875   N927    1.436   .     S
C875   C880    1.406   1_556 S
C876   N930    1.437   .     S
C876   C879    1.406   1_554 S
C877   N933    1.436   .     S
C877   C874    1.406   1_556 S
C878   N936    1.436   .     S
C878   C873    1.406   1_554 S
C879   N939    1.436   .     S
C879   C876    1.406   1_556 S
C880   N942    1.436   .     S
C880   C875    1.406   1_554 S
N897   O899    1.301   .     A
N897   O898    1.301   .     A
N900   O902    1.301   .     A
N900   O901    1.301   .     A
N903   O904    1.301   .     A
N903   O905    1.301   .     A
N906   O907    1.301   .     A
N906   O908    1.301   .     A
N909   O910    1.301   .     A
N909   O911    1.301   .     A
N912   O913    1.301   .     A
N912   O914    1.301   .     A
N915   O916    1.301   .     A
N915   O917    1.301   .     A
N918   O920    1.301   .     A
N918   O919    1.301   .     A
N921   O922    1.301   .     A
N921   O451    1.301   1_565 S
N924   O926    1.301   .     A
O925   N452    1.301   1_565 S
N927   O929    1.301   .     A
O928   N691    1.301   1_655 S
N930   O932    1.301   .     A
N930   O695    1.301   1_655 S
N933   O934    1.301   .     A
O935   N461    1.301   1_565 S
N936   O938    1.301   .     A
N936   O465    1.301   1_565 S
N939   O941    1.301   .     A
N939   O704    1.301   1_655 S
N942   O944    1.301   .     A
O943   N706    1.301   1_655 S
