data_str_m2_o2_o10_pcu_sym.147
_audit_creation_date              2020-01-03
_audit_creation_method            'Materials Studio'
_symmetry_space_group_name_H-M    'P1'
_symmetry_Int_Tables_number       1
_symmetry_cell_setting            triclinic
loop_
_symmetry_equiv_pos_as_xyz
  x,y,z
_cell_length_a                    26.4216
_cell_length_b                    30.4328
_cell_length_c                    27.9114
_cell_angle_alpha                 87.3287
_cell_angle_beta                  96.1140
_cell_angle_gamma                 90.0023
loop_
_atom_site_label
_atom_site_type_symbol
_atom_site_fract_x
_atom_site_fract_y
_atom_site_fract_z
_atom_site_U_iso_or_equiv
_atom_site_adp_type
_atom_site_occupancy
C1     C     0.16606   0.16495   0.25086   0.00000  Uiso   1.00
C2     C     0.16376   0.33495   0.24880   0.00000  Uiso   1.00
C3     C     0.20749   0.26662   0.05753   0.00000  Uiso   1.00
C4     C     0.14858   0.21459   0.44542   0.00000  Uiso   1.00
C5     C     0.20625   0.26768   0.10771   0.00000  Uiso   1.00
C6     C     0.14651   0.21583   0.39498   0.00000  Uiso   1.00
C7     C     0.12855   0.22988   0.10273   0.00000  Uiso   1.00
C8     C     0.18775   0.28416   0.39504   0.00000  Uiso   1.00
C9     C     0.12783   0.22809   0.05242   0.00000  Uiso   1.00
C10    C     0.18774   0.28607   0.44541   0.00000  Uiso   1.00
C11    C     0.16702   0.24862   0.02765   0.00000  Uiso   1.00
C12    C     0.16775   0.25017   0.47263   0.00000  Uiso   1.00
C13    C     0.06837   0.24874   0.23826   0.00000  Uiso   1.00
C14    C     0.26499   0.25101   0.26174   0.00000  Uiso   1.00
C15    C     0.01421   0.24170   0.23351   0.00000  Uiso   1.00
C16    C     0.31922   0.25766   0.26655   0.00000  Uiso   1.00
C17    C     0.17962   0.04386   0.28934   0.00000  Uiso   1.00
C18    C     0.14976   0.45440   0.20361   0.00000  Uiso   1.00
C19    C     0.18114   0.08940   0.29244   0.00000  Uiso   1.00
C20    C     0.14929   0.40857   0.20302   0.00000  Uiso   1.00
C21    C     0.16316   0.11659   0.25172   0.00000  Uiso   1.00
C22    C     0.15749   0.38317   0.24688   0.00000  Uiso   1.00
C23    C     0.14050   0.09694   0.21022   0.00000  Uiso   1.00
C24    C     0.15863   0.40444   0.29048   0.00000  Uiso   1.00
C25    C     0.13560   0.05150   0.20904   0.00000  Uiso   1.00
C26    C     0.15470   0.44980   0.29068   0.00000  Uiso   1.00
C27    C     0.15591   0.02425   0.24841   0.00000  Uiso   1.00
C28    C     0.15306   0.47562   0.24743   0.00000  Uiso   1.00
Cu29   Cu    0.16667   0.24999   0.29821   0.00000  Uiso   1.00
Cu30   Cu    0.16667   0.25000   0.20178   0.00000  Uiso   1.00
H31    H     0.24108   0.27881   0.04290   0.00000  Uiso   1.00
H32    H     0.13686   0.18446   0.46235   0.00000  Uiso   1.00
N33    N     0.16667   0.25001   0.12934   0.00000  Uiso   1.00
N34    N     0.16667   0.24999   0.37065   0.00000  Uiso   1.00
O35    O     0.16667   0.18572   0.29071   0.00000  Uiso   1.00
O36    O     0.16666   0.31427   0.20928   0.00000  Uiso   1.00
O37    O     0.16667   0.18573   0.20928   0.00000  Uiso   1.00
O38    O     0.16666   0.31427   0.29072   0.00000  Uiso   1.00
O39    O     0.09161   0.24999   0.28132   0.00000  Uiso   1.00
O40    O     0.24172   0.25000   0.21868   0.00000  Uiso   1.00
O41    O     0.09161   0.25000   0.19988   0.00000  Uiso   1.00
O42    O     0.24172   0.25000   0.30011   0.00000  Uiso   1.00
C43    C     0.32719   0.21109   0.19601   0.00000  Uiso   1.00
C44    C     0.32528   0.22385   0.14684   0.00000  Uiso   1.00
C45    C     0.30500   0.19548   0.11185   0.00000  Uiso   1.00
C46    C     0.28678   0.15419   0.12558   0.00000  Uiso   1.00
C47    C     0.28902   0.14108   0.17442   0.00000  Uiso   1.00
C48    C     0.30934   0.16931   0.20957   0.00000  Uiso   1.00
H49    H     0.00526   0.25601   0.13568   0.00000  Uiso   1.00
H50    H     0.30267   0.20582   0.07413   0.00000  Uiso   1.00
H51    H     0.27083   0.13243   0.09836   0.00000  Uiso   1.00
H52    H     0.27486   0.10910   0.18507   0.00000  Uiso   1.00
H53    H     0.31092   0.15883   0.24729   0.00000  Uiso   1.00
C54    C     0.00602   0.28905   0.30324   0.00000  Uiso   1.00
C55    C     0.02064   0.33156   0.28856   0.00000  Uiso   1.00
C56    C     0.03873   0.36138   0.32287   0.00000  Uiso   1.00
C57    C     0.04241   0.34899   0.37196   0.00000  Uiso   1.00
C58    C     0.02826   0.30667   0.38683   0.00000  Uiso   1.00
C59    C     0.00993   0.27675   0.35265   0.00000  Uiso   1.00
H60    H     0.01778   0.34156   0.25060   0.00000  Uiso   1.00
H61    H     0.04966   0.39416   0.31142   0.00000  Uiso   1.00
H62    H     0.05599   0.37227   0.39845   0.00000  Uiso   1.00
H63    H     0.03132   0.29717   0.42483   0.00000  Uiso   1.00
H64    H     0.33236   0.24407   0.36459   0.00000  Uiso   1.00
H65    H     0.19721   0.02398   0.31975   0.00000  Uiso   1.00
H66    H     0.14748   0.47305   0.16949   0.00000  Uiso   1.00
C67    C     0.19842   0.10636   0.33992   0.00000  Uiso   1.00
C68    C     0.24103   0.13368   0.34629   0.00000  Uiso   1.00
C69    C     0.25484   0.15104   0.39109   0.00000  Uiso   1.00
C70    C     0.22739   0.13980   0.43013   0.00000  Uiso   1.00
C71    C     0.18662   0.11077   0.42458   0.00000  Uiso   1.00
C72    C     0.17184   0.09433   0.37951   0.00000  Uiso   1.00
H73    H     0.26240   0.14258   0.31631   0.00000  Uiso   1.00
H74    H     0.28649   0.17347   0.39499   0.00000  Uiso   1.00
H75    H     0.23672   0.15412   0.46465   0.00000  Uiso   1.00
H76    H     0.16557   0.10206   0.45483   0.00000  Uiso   1.00
H77    H     0.13918   0.07280   0.37522   0.00000  Uiso   1.00
C78    C     0.13742   0.38855   0.15627   0.00000  Uiso   1.00
C79    C     0.17494   0.38575   0.12480   0.00000  Uiso   1.00
C80    C     0.16417   0.36511   0.08143   0.00000  Uiso   1.00
C81    C     0.11574   0.34789   0.06870   0.00000  Uiso   1.00
C82    C     0.07806   0.35083   0.09992   0.00000  Uiso   1.00
C83    C     0.08886   0.37103   0.14378   0.00000  Uiso   1.00
H84    H     0.21274   0.39853   0.13442   0.00000  Uiso   1.00
H85    H     0.19418   0.36139   0.05867   0.00000  Uiso   1.00
H86    H     0.10762   0.33162   0.03511   0.00000  Uiso   1.00
H87    H     0.04073   0.33711   0.09036   0.00000  Uiso   1.00
H88    H     0.05969   0.37275   0.16813   0.00000  Uiso   1.00
H89    H     0.12490   0.11687   0.17893   0.00000  Uiso   1.00
H90    H     0.16222   0.38606   0.32488   0.00000  Uiso   1.00
H91    H     0.11541   0.03818   0.17727   0.00000  Uiso   1.00
H92    H     0.15354   0.46429   0.32518   0.00000  Uiso   1.00
H93    H     0.23735   0.28264   0.12939   0.00000  Uiso   1.00
H94    H     0.13040   0.18842   0.37539   0.00000  Uiso   1.00
H95    H     0.09902   0.21370   0.12099   0.00000  Uiso   1.00
H96    H     0.20424   0.31091   0.37512   0.00000  Uiso   1.00
C97    C     0.08831   0.19993   0.02992   0.00000  Uiso   1.00
C98    C     0.04428   0.21797   0.00436   0.00000  Uiso   1.00
C99    C     0.00581   0.19014   0.48596   0.00000  Uiso   1.00
C100   C     0.01164   0.14435   0.49275   0.00000  Uiso   1.00
C101   C     0.05531   0.12643   0.01870   0.00000  Uiso   1.00
C102   C     0.09338   0.15413   0.03780   0.00000  Uiso   1.00
H103   H     0.03937   0.25328   0.49982   0.00000  Uiso   1.00
H104   H     0.30470   0.20449   0.46742   0.00000  Uiso   1.00
H105   H     0.31593   0.12221   0.47860   0.00000  Uiso   1.00
H106   H     0.05947   0.09113   0.02430   0.00000  Uiso   1.00
H107   H     0.12704   0.14002   0.05841   0.00000  Uiso   1.00
C108   C     0.20664   0.32780   0.46513   0.00000  Uiso   1.00
C109   C     0.17359   0.36416   0.46241   0.00000  Uiso   1.00
C110   C     0.19264   0.40610   0.47202   0.00000  Uiso   1.00
C111   C     0.24484   0.41201   0.48414   0.00000  Uiso   1.00
C112   C     0.27816   0.37617   0.48568   0.00000  Uiso   1.00
C113   C     0.25930   0.33440   0.47517   0.00000  Uiso   1.00
H114   H     0.13329   0.36009   0.45209   0.00000  Uiso   1.00
H115   H     0.16695   0.43398   0.47008   0.00000  Uiso   1.00
H116   H     0.25952   0.44443   0.49178   0.00000  Uiso   1.00
H117   H     0.31869   0.38090   0.49407   0.00000  Uiso   1.00
H118   H     0.28566   0.30725   0.47432   0.00000  Uiso   1.00
C119   C     0.49939   0.16495   0.25086   0.00000  Uiso   1.00
C120   C     0.49710   0.33495   0.24880   0.00000  Uiso   1.00
C121   C     0.54082   0.26662   0.05753   0.00000  Uiso   1.00
C122   C     0.48191   0.21459   0.44542   0.00000  Uiso   1.00
C123   C     0.53958   0.26768   0.10771   0.00000  Uiso   1.00
C124   C     0.47985   0.21583   0.39498   0.00000  Uiso   1.00
C125   C     0.46188   0.22988   0.10273   0.00000  Uiso   1.00
C126   C     0.52109   0.28416   0.39504   0.00000  Uiso   1.00
C127   C     0.46117   0.22809   0.05242   0.00000  Uiso   1.00
C128   C     0.52108   0.28607   0.44541   0.00000  Uiso   1.00
C129   C     0.50035   0.24862   0.02765   0.00000  Uiso   1.00
C130   C     0.50108   0.25017   0.47263   0.00000  Uiso   1.00
C131   C     0.40170   0.24874   0.23826   0.00000  Uiso   1.00
C132   C     0.59832   0.25101   0.26174   0.00000  Uiso   1.00
C133   C     0.34754   0.24170   0.23351   0.00000  Uiso   1.00
C134   C     0.65256   0.25766   0.26655   0.00000  Uiso   1.00
C135   C     0.51295   0.04386   0.28934   0.00000  Uiso   1.00
C136   C     0.48309   0.45440   0.20361   0.00000  Uiso   1.00
C137   C     0.51447   0.08940   0.29244   0.00000  Uiso   1.00
C138   C     0.48262   0.40857   0.20302   0.00000  Uiso   1.00
C139   C     0.49649   0.11659   0.25172   0.00000  Uiso   1.00
C140   C     0.49082   0.38317   0.24688   0.00000  Uiso   1.00
C141   C     0.47383   0.09694   0.21022   0.00000  Uiso   1.00
C142   C     0.49197   0.40444   0.29048   0.00000  Uiso   1.00
C143   C     0.46893   0.05150   0.20904   0.00000  Uiso   1.00
C144   C     0.48803   0.44980   0.29068   0.00000  Uiso   1.00
C145   C     0.48925   0.02425   0.24841   0.00000  Uiso   1.00
C146   C     0.48640   0.47562   0.24743   0.00000  Uiso   1.00
Cu147  Cu    0.50000   0.24999   0.29821   0.00000  Uiso   1.00
Cu148  Cu    0.50000   0.25000   0.20178   0.00000  Uiso   1.00
H149   H     0.57442   0.27881   0.04290   0.00000  Uiso   1.00
H150   H     0.47020   0.18446   0.46235   0.00000  Uiso   1.00
N151   N     0.50000   0.25001   0.12934   0.00000  Uiso   1.00
N152   N     0.50000   0.24999   0.37065   0.00000  Uiso   1.00
O153   O     0.50000   0.18572   0.29071   0.00000  Uiso   1.00
O154   O     0.50000   0.31427   0.20928   0.00000  Uiso   1.00
O155   O     0.50000   0.18573   0.20928   0.00000  Uiso   1.00
O156   O     0.50000   0.31427   0.29072   0.00000  Uiso   1.00
O157   O     0.42495   0.24999   0.28132   0.00000  Uiso   1.00
O158   O     0.57505   0.25000   0.21868   0.00000  Uiso   1.00
O159   O     0.42495   0.25000   0.19988   0.00000  Uiso   1.00
O160   O     0.57505   0.25000   0.30011   0.00000  Uiso   1.00
C161   C     0.66053   0.21109   0.19601   0.00000  Uiso   1.00
C162   C     0.65861   0.22385   0.14684   0.00000  Uiso   1.00
C163   C     0.63833   0.19548   0.11185   0.00000  Uiso   1.00
C164   C     0.62011   0.15419   0.12558   0.00000  Uiso   1.00
C165   C     0.62235   0.14108   0.17442   0.00000  Uiso   1.00
C166   C     0.64267   0.16931   0.20957   0.00000  Uiso   1.00
H167   H     0.33860   0.25601   0.13568   0.00000  Uiso   1.00
H168   H     0.63601   0.20582   0.07413   0.00000  Uiso   1.00
H169   H     0.60417   0.13243   0.09836   0.00000  Uiso   1.00
H170   H     0.60819   0.10910   0.18507   0.00000  Uiso   1.00
H171   H     0.64426   0.15883   0.24729   0.00000  Uiso   1.00
C172   C     0.33936   0.28905   0.30324   0.00000  Uiso   1.00
C173   C     0.35397   0.33156   0.28856   0.00000  Uiso   1.00
C174   C     0.37206   0.36138   0.32287   0.00000  Uiso   1.00
C175   C     0.37575   0.34899   0.37196   0.00000  Uiso   1.00
C176   C     0.36159   0.30667   0.38683   0.00000  Uiso   1.00
C177   C     0.34327   0.27675   0.35265   0.00000  Uiso   1.00
H178   H     0.35111   0.34156   0.25060   0.00000  Uiso   1.00
H179   H     0.38299   0.39416   0.31142   0.00000  Uiso   1.00
H180   H     0.38932   0.37227   0.39845   0.00000  Uiso   1.00
H181   H     0.36466   0.29717   0.42483   0.00000  Uiso   1.00
H182   H     0.66569   0.24407   0.36459   0.00000  Uiso   1.00
H183   H     0.53054   0.02398   0.31975   0.00000  Uiso   1.00
H184   H     0.48082   0.47305   0.16949   0.00000  Uiso   1.00
C185   C     0.53175   0.10636   0.33992   0.00000  Uiso   1.00
C186   C     0.57436   0.13368   0.34629   0.00000  Uiso   1.00
C187   C     0.58817   0.15104   0.39109   0.00000  Uiso   1.00
C188   C     0.56073   0.13980   0.43013   0.00000  Uiso   1.00
C189   C     0.51995   0.11077   0.42458   0.00000  Uiso   1.00
C190   C     0.50518   0.09433   0.37951   0.00000  Uiso   1.00
H191   H     0.59573   0.14258   0.31631   0.00000  Uiso   1.00
H192   H     0.61982   0.17347   0.39499   0.00000  Uiso   1.00
H193   H     0.57005   0.15412   0.46465   0.00000  Uiso   1.00
H194   H     0.49890   0.10206   0.45483   0.00000  Uiso   1.00
H195   H     0.47252   0.07280   0.37522   0.00000  Uiso   1.00
C196   C     0.47076   0.38855   0.15627   0.00000  Uiso   1.00
C197   C     0.50827   0.38575   0.12480   0.00000  Uiso   1.00
C198   C     0.49750   0.36511   0.08143   0.00000  Uiso   1.00
C199   C     0.44907   0.34789   0.06870   0.00000  Uiso   1.00
C200   C     0.41139   0.35083   0.09992   0.00000  Uiso   1.00
C201   C     0.42219   0.37103   0.14378   0.00000  Uiso   1.00
H202   H     0.54607   0.39853   0.13442   0.00000  Uiso   1.00
H203   H     0.52751   0.36139   0.05867   0.00000  Uiso   1.00
H204   H     0.44095   0.33162   0.03511   0.00000  Uiso   1.00
H205   H     0.37407   0.33711   0.09036   0.00000  Uiso   1.00
H206   H     0.39302   0.37275   0.16813   0.00000  Uiso   1.00
H207   H     0.45824   0.11687   0.17893   0.00000  Uiso   1.00
H208   H     0.49555   0.38606   0.32488   0.00000  Uiso   1.00
H209   H     0.44874   0.03818   0.17727   0.00000  Uiso   1.00
H210   H     0.48688   0.46429   0.32518   0.00000  Uiso   1.00
H211   H     0.57069   0.28264   0.12939   0.00000  Uiso   1.00
H212   H     0.46373   0.18842   0.37539   0.00000  Uiso   1.00
H213   H     0.43236   0.21370   0.12099   0.00000  Uiso   1.00
H214   H     0.53757   0.31091   0.37512   0.00000  Uiso   1.00
C215   C     0.42164   0.19993   0.02992   0.00000  Uiso   1.00
C216   C     0.37762   0.21797   0.00436   0.00000  Uiso   1.00
C217   C     0.33915   0.19014   0.48596   0.00000  Uiso   1.00
C218   C     0.34497   0.14435   0.49275   0.00000  Uiso   1.00
C219   C     0.38865   0.12643   0.01870   0.00000  Uiso   1.00
C220   C     0.42671   0.15413   0.03780   0.00000  Uiso   1.00
H221   H     0.37270   0.25328   0.49982   0.00000  Uiso   1.00
H222   H     0.63803   0.20449   0.46742   0.00000  Uiso   1.00
H223   H     0.64927   0.12221   0.47860   0.00000  Uiso   1.00
H224   H     0.39281   0.09113   0.02430   0.00000  Uiso   1.00
H225   H     0.46038   0.14002   0.05841   0.00000  Uiso   1.00
C226   C     0.53997   0.32780   0.46513   0.00000  Uiso   1.00
C227   C     0.50693   0.36416   0.46241   0.00000  Uiso   1.00
C228   C     0.52598   0.40610   0.47202   0.00000  Uiso   1.00
C229   C     0.57817   0.41201   0.48414   0.00000  Uiso   1.00
C230   C     0.61149   0.37617   0.48568   0.00000  Uiso   1.00
C231   C     0.59263   0.33440   0.47517   0.00000  Uiso   1.00
H232   H     0.46663   0.36009   0.45209   0.00000  Uiso   1.00
H233   H     0.50028   0.43398   0.47008   0.00000  Uiso   1.00
H234   H     0.59285   0.44443   0.49178   0.00000  Uiso   1.00
H235   H     0.65202   0.38090   0.49407   0.00000  Uiso   1.00
H236   H     0.61899   0.30725   0.47432   0.00000  Uiso   1.00
C237   C     0.83273   0.16495   0.25086   0.00000  Uiso   1.00
C238   C     0.83043   0.33495   0.24880   0.00000  Uiso   1.00
C239   C     0.87415   0.26662   0.05753   0.00000  Uiso   1.00
C240   C     0.81525   0.21459   0.44542   0.00000  Uiso   1.00
C241   C     0.87292   0.26768   0.10771   0.00000  Uiso   1.00
C242   C     0.81318   0.21583   0.39498   0.00000  Uiso   1.00
C243   C     0.79521   0.22988   0.10273   0.00000  Uiso   1.00
C244   C     0.85442   0.28416   0.39504   0.00000  Uiso   1.00
C245   C     0.79450   0.22809   0.05242   0.00000  Uiso   1.00
C246   C     0.85441   0.28607   0.44541   0.00000  Uiso   1.00
C247   C     0.83369   0.24862   0.02765   0.00000  Uiso   1.00
C248   C     0.83442   0.25017   0.47263   0.00000  Uiso   1.00
C249   C     0.73504   0.24874   0.23826   0.00000  Uiso   1.00
C250   C     0.93166   0.25101   0.26174   0.00000  Uiso   1.00
C251   C     0.68087   0.24170   0.23351   0.00000  Uiso   1.00
C252   C     0.98589   0.25766   0.26655   0.00000  Uiso   1.00
C253   C     0.84629   0.04386   0.28934   0.00000  Uiso   1.00
C254   C     0.81642   0.45440   0.20361   0.00000  Uiso   1.00
C255   C     0.84781   0.08940   0.29244   0.00000  Uiso   1.00
C256   C     0.81596   0.40857   0.20302   0.00000  Uiso   1.00
C257   C     0.82983   0.11659   0.25172   0.00000  Uiso   1.00
C258   C     0.82415   0.38317   0.24688   0.00000  Uiso   1.00
C259   C     0.80717   0.09694   0.21022   0.00000  Uiso   1.00
C260   C     0.82530   0.40444   0.29048   0.00000  Uiso   1.00
C261   C     0.80226   0.05150   0.20904   0.00000  Uiso   1.00
C262   C     0.82136   0.44980   0.29068   0.00000  Uiso   1.00
C263   C     0.82258   0.02425   0.24841   0.00000  Uiso   1.00
C264   C     0.81973   0.47562   0.24743   0.00000  Uiso   1.00
Cu265  Cu    0.83333   0.24999   0.29821   0.00000  Uiso   1.00
Cu266  Cu    0.83333   0.25000   0.20178   0.00000  Uiso   1.00
H267   H     0.90775   0.27881   0.04290   0.00000  Uiso   1.00
H268   H     0.80353   0.18446   0.46235   0.00000  Uiso   1.00
N269   N     0.83333   0.25001   0.12934   0.00000  Uiso   1.00
N270   N     0.83333   0.24999   0.37065   0.00000  Uiso   1.00
O271   O     0.83334   0.18572   0.29071   0.00000  Uiso   1.00
O272   O     0.83333   0.31427   0.20928   0.00000  Uiso   1.00
O273   O     0.83334   0.18573   0.20928   0.00000  Uiso   1.00
O274   O     0.83333   0.31427   0.29072   0.00000  Uiso   1.00
O275   O     0.75828   0.24999   0.28132   0.00000  Uiso   1.00
O276   O     0.90839   0.25000   0.21868   0.00000  Uiso   1.00
O277   O     0.75828   0.25000   0.19988   0.00000  Uiso   1.00
O278   O     0.90839   0.25000   0.30011   0.00000  Uiso   1.00
C279   C     0.99386   0.21109   0.19601   0.00000  Uiso   1.00
C280   C     0.99194   0.22385   0.14684   0.00000  Uiso   1.00
C281   C     0.97166   0.19548   0.11185   0.00000  Uiso   1.00
C282   C     0.95345   0.15419   0.12558   0.00000  Uiso   1.00
C283   C     0.95568   0.14108   0.17442   0.00000  Uiso   1.00
C284   C     0.97600   0.16931   0.20957   0.00000  Uiso   1.00
H285   H     0.67193   0.25601   0.13568   0.00000  Uiso   1.00
H286   H     0.96934   0.20582   0.07413   0.00000  Uiso   1.00
H287   H     0.93750   0.13243   0.09836   0.00000  Uiso   1.00
H288   H     0.94153   0.10910   0.18507   0.00000  Uiso   1.00
H289   H     0.97759   0.15883   0.24729   0.00000  Uiso   1.00
C290   C     0.67269   0.28905   0.30324   0.00000  Uiso   1.00
C291   C     0.68730   0.33156   0.28856   0.00000  Uiso   1.00
C292   C     0.70539   0.36138   0.32287   0.00000  Uiso   1.00
C293   C     0.70908   0.34899   0.37196   0.00000  Uiso   1.00
C294   C     0.69492   0.30667   0.38683   0.00000  Uiso   1.00
C295   C     0.67660   0.27675   0.35265   0.00000  Uiso   1.00
H296   H     0.68445   0.34156   0.25060   0.00000  Uiso   1.00
H297   H     0.71632   0.39416   0.31142   0.00000  Uiso   1.00
H298   H     0.72266   0.37227   0.39845   0.00000  Uiso   1.00
H299   H     0.69799   0.29717   0.42483   0.00000  Uiso   1.00
H300   H     0.99903   0.24407   0.36459   0.00000  Uiso   1.00
H301   H     0.86387   0.02398   0.31975   0.00000  Uiso   1.00
H302   H     0.81415   0.47305   0.16949   0.00000  Uiso   1.00
C303   C     0.86509   0.10636   0.33992   0.00000  Uiso   1.00
C304   C     0.90770   0.13368   0.34629   0.00000  Uiso   1.00
C305   C     0.92150   0.15104   0.39109   0.00000  Uiso   1.00
C306   C     0.89406   0.13980   0.43013   0.00000  Uiso   1.00
C307   C     0.85329   0.11077   0.42458   0.00000  Uiso   1.00
C308   C     0.83851   0.09433   0.37951   0.00000  Uiso   1.00
H309   H     0.92906   0.14258   0.31631   0.00000  Uiso   1.00
H310   H     0.95316   0.17347   0.39499   0.00000  Uiso   1.00
H311   H     0.90338   0.15412   0.46465   0.00000  Uiso   1.00
H312   H     0.83224   0.10206   0.45483   0.00000  Uiso   1.00
H313   H     0.80585   0.07280   0.37522   0.00000  Uiso   1.00
C314   C     0.80409   0.38855   0.15627   0.00000  Uiso   1.00
C315   C     0.84160   0.38575   0.12480   0.00000  Uiso   1.00
C316   C     0.83084   0.36511   0.08143   0.00000  Uiso   1.00
C317   C     0.78240   0.34789   0.06870   0.00000  Uiso   1.00
C318   C     0.74473   0.35083   0.09992   0.00000  Uiso   1.00
C319   C     0.75552   0.37103   0.14378   0.00000  Uiso   1.00
H320   H     0.87941   0.39853   0.13442   0.00000  Uiso   1.00
H321   H     0.86084   0.36139   0.05867   0.00000  Uiso   1.00
H322   H     0.77428   0.33162   0.03511   0.00000  Uiso   1.00
H323   H     0.70740   0.33711   0.09036   0.00000  Uiso   1.00
H324   H     0.72636   0.37275   0.16813   0.00000  Uiso   1.00
H325   H     0.79157   0.11687   0.17893   0.00000  Uiso   1.00
H326   H     0.82888   0.38606   0.32488   0.00000  Uiso   1.00
H327   H     0.78208   0.03818   0.17727   0.00000  Uiso   1.00
H328   H     0.82021   0.46429   0.32518   0.00000  Uiso   1.00
H329   H     0.90402   0.28264   0.12939   0.00000  Uiso   1.00
H330   H     0.79707   0.18842   0.37539   0.00000  Uiso   1.00
H331   H     0.76569   0.21370   0.12099   0.00000  Uiso   1.00
H332   H     0.87090   0.31091   0.37512   0.00000  Uiso   1.00
C333   C     0.75498   0.19993   0.02992   0.00000  Uiso   1.00
C334   C     0.71095   0.21797   0.00436   0.00000  Uiso   1.00
C335   C     0.67248   0.19014   0.48596   0.00000  Uiso   1.00
C336   C     0.67830   0.14435   0.49275   0.00000  Uiso   1.00
C337   C     0.72198   0.12643   0.01870   0.00000  Uiso   1.00
C338   C     0.76005   0.15413   0.03780   0.00000  Uiso   1.00
H339   H     0.70603   0.25328   0.49982   0.00000  Uiso   1.00
H340   H     0.97136   0.20449   0.46742   0.00000  Uiso   1.00
H341   H     0.98260   0.12221   0.47860   0.00000  Uiso   1.00
H342   H     0.72614   0.09113   0.02430   0.00000  Uiso   1.00
H343   H     0.79371   0.14002   0.05841   0.00000  Uiso   1.00
C344   C     0.87331   0.32780   0.46513   0.00000  Uiso   1.00
C345   C     0.84026   0.36416   0.46241   0.00000  Uiso   1.00
C346   C     0.85931   0.40610   0.47202   0.00000  Uiso   1.00
C347   C     0.91151   0.41201   0.48414   0.00000  Uiso   1.00
C348   C     0.94483   0.37617   0.48568   0.00000  Uiso   1.00
C349   C     0.92596   0.33440   0.47517   0.00000  Uiso   1.00
H350   H     0.79996   0.36009   0.45209   0.00000  Uiso   1.00
H351   H     0.83362   0.43398   0.47008   0.00000  Uiso   1.00
H352   H     0.92618   0.44443   0.49178   0.00000  Uiso   1.00
H353   H     0.98536   0.38090   0.49407   0.00000  Uiso   1.00
H354   H     0.95233   0.30725   0.47432   0.00000  Uiso   1.00
C355   C     0.16606   0.66495   0.25086   0.00000  Uiso   1.00
C356   C     0.16376   0.83495   0.24880   0.00000  Uiso   1.00
C357   C     0.20749   0.76662   0.05753   0.00000  Uiso   1.00
C358   C     0.14858   0.71459   0.44542   0.00000  Uiso   1.00
C359   C     0.20625   0.76768   0.10771   0.00000  Uiso   1.00
C360   C     0.14651   0.71583   0.39498   0.00000  Uiso   1.00
C361   C     0.12855   0.72988   0.10273   0.00000  Uiso   1.00
C362   C     0.18775   0.78416   0.39504   0.00000  Uiso   1.00
C363   C     0.12783   0.72809   0.05242   0.00000  Uiso   1.00
C364   C     0.18774   0.78607   0.44541   0.00000  Uiso   1.00
C365   C     0.16702   0.74862   0.02765   0.00000  Uiso   1.00
C366   C     0.16775   0.75017   0.47263   0.00000  Uiso   1.00
C367   C     0.06837   0.74874   0.23826   0.00000  Uiso   1.00
C368   C     0.26499   0.75101   0.26174   0.00000  Uiso   1.00
C369   C     0.01421   0.74170   0.23351   0.00000  Uiso   1.00
C370   C     0.31922   0.75766   0.26655   0.00000  Uiso   1.00
C371   C     0.17962   0.54386   0.28934   0.00000  Uiso   1.00
C372   C     0.14976   0.95440   0.20361   0.00000  Uiso   1.00
C373   C     0.18114   0.58940   0.29244   0.00000  Uiso   1.00
C374   C     0.14929   0.90857   0.20302   0.00000  Uiso   1.00
C375   C     0.16316   0.61659   0.25172   0.00000  Uiso   1.00
C376   C     0.15749   0.88317   0.24688   0.00000  Uiso   1.00
C377   C     0.14050   0.59694   0.21022   0.00000  Uiso   1.00
C378   C     0.15863   0.90444   0.29048   0.00000  Uiso   1.00
C379   C     0.13560   0.55150   0.20904   0.00000  Uiso   1.00
C380   C     0.15470   0.94980   0.29068   0.00000  Uiso   1.00
C381   C     0.15591   0.52425   0.24841   0.00000  Uiso   1.00
C382   C     0.15306   0.97562   0.24743   0.00000  Uiso   1.00
Cu383  Cu    0.16667   0.74999   0.29821   0.00000  Uiso   1.00
Cu384  Cu    0.16667   0.75000   0.20178   0.00000  Uiso   1.00
H385   H     0.24108   0.77881   0.04290   0.00000  Uiso   1.00
H386   H     0.13686   0.68446   0.46235   0.00000  Uiso   1.00
N387   N     0.16667   0.75001   0.12934   0.00000  Uiso   1.00
N388   N     0.16667   0.74999   0.37065   0.00000  Uiso   1.00
O389   O     0.16667   0.68572   0.29071   0.00000  Uiso   1.00
O390   O     0.16666   0.81427   0.20928   0.00000  Uiso   1.00
O391   O     0.16667   0.68573   0.20928   0.00000  Uiso   1.00
O392   O     0.16666   0.81427   0.29072   0.00000  Uiso   1.00
O393   O     0.09161   0.74999   0.28132   0.00000  Uiso   1.00
O394   O     0.24172   0.75000   0.21868   0.00000  Uiso   1.00
O395   O     0.09161   0.75000   0.19988   0.00000  Uiso   1.00
O396   O     0.24172   0.75000   0.30011   0.00000  Uiso   1.00
C397   C     0.32719   0.71109   0.19601   0.00000  Uiso   1.00
C398   C     0.32528   0.72385   0.14684   0.00000  Uiso   1.00
C399   C     0.30500   0.69548   0.11185   0.00000  Uiso   1.00
C400   C     0.28678   0.65419   0.12558   0.00000  Uiso   1.00
C401   C     0.28902   0.64108   0.17442   0.00000  Uiso   1.00
C402   C     0.30934   0.66931   0.20957   0.00000  Uiso   1.00
H403   H     0.00526   0.75601   0.13568   0.00000  Uiso   1.00
H404   H     0.30267   0.70582   0.07413   0.00000  Uiso   1.00
H405   H     0.27083   0.63243   0.09836   0.00000  Uiso   1.00
H406   H     0.27486   0.60910   0.18507   0.00000  Uiso   1.00
H407   H     0.31092   0.65883   0.24729   0.00000  Uiso   1.00
C408   C     0.00602   0.78905   0.30324   0.00000  Uiso   1.00
C409   C     0.02064   0.83156   0.28856   0.00000  Uiso   1.00
C410   C     0.03873   0.86138   0.32287   0.00000  Uiso   1.00
C411   C     0.04241   0.84899   0.37196   0.00000  Uiso   1.00
C412   C     0.02826   0.80667   0.38683   0.00000  Uiso   1.00
C413   C     0.00993   0.77675   0.35265   0.00000  Uiso   1.00
H414   H     0.01778   0.84156   0.25060   0.00000  Uiso   1.00
H415   H     0.04966   0.89416   0.31142   0.00000  Uiso   1.00
H416   H     0.05599   0.87227   0.39845   0.00000  Uiso   1.00
H417   H     0.03132   0.79717   0.42483   0.00000  Uiso   1.00
H418   H     0.33236   0.74407   0.36459   0.00000  Uiso   1.00
H419   H     0.19721   0.52398   0.31975   0.00000  Uiso   1.00
H420   H     0.14748   0.97305   0.16949   0.00000  Uiso   1.00
C421   C     0.19842   0.60636   0.33992   0.00000  Uiso   1.00
C422   C     0.24103   0.63368   0.34629   0.00000  Uiso   1.00
C423   C     0.25484   0.65104   0.39109   0.00000  Uiso   1.00
C424   C     0.22739   0.63980   0.43013   0.00000  Uiso   1.00
C425   C     0.18662   0.61077   0.42458   0.00000  Uiso   1.00
C426   C     0.17184   0.59433   0.37951   0.00000  Uiso   1.00
H427   H     0.26240   0.64258   0.31631   0.00000  Uiso   1.00
H428   H     0.28649   0.67347   0.39499   0.00000  Uiso   1.00
H429   H     0.23672   0.65412   0.46465   0.00000  Uiso   1.00
H430   H     0.16557   0.60206   0.45483   0.00000  Uiso   1.00
H431   H     0.13918   0.57280   0.37522   0.00000  Uiso   1.00
C432   C     0.13742   0.88855   0.15627   0.00000  Uiso   1.00
C433   C     0.17494   0.88575   0.12480   0.00000  Uiso   1.00
C434   C     0.16417   0.86511   0.08143   0.00000  Uiso   1.00
C435   C     0.11574   0.84789   0.06870   0.00000  Uiso   1.00
C436   C     0.07806   0.85083   0.09992   0.00000  Uiso   1.00
C437   C     0.08886   0.87103   0.14378   0.00000  Uiso   1.00
H438   H     0.21274   0.89853   0.13442   0.00000  Uiso   1.00
H439   H     0.19418   0.86139   0.05867   0.00000  Uiso   1.00
H440   H     0.10762   0.83162   0.03511   0.00000  Uiso   1.00
H441   H     0.04073   0.83711   0.09036   0.00000  Uiso   1.00
H442   H     0.05969   0.87275   0.16813   0.00000  Uiso   1.00
H443   H     0.12490   0.61687   0.17893   0.00000  Uiso   1.00
H444   H     0.16222   0.88606   0.32488   0.00000  Uiso   1.00
H445   H     0.11541   0.53818   0.17727   0.00000  Uiso   1.00
H446   H     0.15354   0.96429   0.32518   0.00000  Uiso   1.00
H447   H     0.23735   0.78264   0.12939   0.00000  Uiso   1.00
H448   H     0.13040   0.68842   0.37539   0.00000  Uiso   1.00
H449   H     0.09902   0.71370   0.12099   0.00000  Uiso   1.00
H450   H     0.20424   0.81091   0.37512   0.00000  Uiso   1.00
C451   C     0.08831   0.69993   0.02992   0.00000  Uiso   1.00
C452   C     0.04428   0.71797   0.00436   0.00000  Uiso   1.00
C453   C     0.00581   0.69014   0.48596   0.00000  Uiso   1.00
C454   C     0.01164   0.64435   0.49275   0.00000  Uiso   1.00
C455   C     0.05531   0.62643   0.01870   0.00000  Uiso   1.00
C456   C     0.09338   0.65413   0.03780   0.00000  Uiso   1.00
H457   H     0.03937   0.75328   0.49982   0.00000  Uiso   1.00
H458   H     0.30470   0.70449   0.46742   0.00000  Uiso   1.00
H459   H     0.31593   0.62221   0.47860   0.00000  Uiso   1.00
H460   H     0.05947   0.59113   0.02430   0.00000  Uiso   1.00
H461   H     0.12704   0.64002   0.05841   0.00000  Uiso   1.00
C462   C     0.20664   0.82780   0.46513   0.00000  Uiso   1.00
C463   C     0.17359   0.86416   0.46241   0.00000  Uiso   1.00
C464   C     0.19264   0.90610   0.47202   0.00000  Uiso   1.00
C465   C     0.24484   0.91201   0.48414   0.00000  Uiso   1.00
C466   C     0.27816   0.87617   0.48568   0.00000  Uiso   1.00
C467   C     0.25930   0.83440   0.47517   0.00000  Uiso   1.00
H468   H     0.13329   0.86009   0.45209   0.00000  Uiso   1.00
H469   H     0.16695   0.93398   0.47008   0.00000  Uiso   1.00
H470   H     0.25952   0.94443   0.49178   0.00000  Uiso   1.00
H471   H     0.31869   0.88090   0.49407   0.00000  Uiso   1.00
H472   H     0.28566   0.80725   0.47432   0.00000  Uiso   1.00
C473   C     0.49939   0.66495   0.25086   0.00000  Uiso   1.00
C474   C     0.49710   0.83495   0.24880   0.00000  Uiso   1.00
C475   C     0.54082   0.76662   0.05753   0.00000  Uiso   1.00
C476   C     0.48191   0.71459   0.44542   0.00000  Uiso   1.00
C477   C     0.53958   0.76768   0.10771   0.00000  Uiso   1.00
C478   C     0.47985   0.71583   0.39498   0.00000  Uiso   1.00
C479   C     0.46188   0.72988   0.10273   0.00000  Uiso   1.00
C480   C     0.52109   0.78416   0.39504   0.00000  Uiso   1.00
C481   C     0.46117   0.72809   0.05242   0.00000  Uiso   1.00
C482   C     0.52108   0.78607   0.44541   0.00000  Uiso   1.00
C483   C     0.50035   0.74862   0.02765   0.00000  Uiso   1.00
C484   C     0.50108   0.75017   0.47263   0.00000  Uiso   1.00
C485   C     0.40170   0.74874   0.23826   0.00000  Uiso   1.00
C486   C     0.59832   0.75101   0.26174   0.00000  Uiso   1.00
C487   C     0.34754   0.74170   0.23351   0.00000  Uiso   1.00
C488   C     0.65256   0.75766   0.26655   0.00000  Uiso   1.00
C489   C     0.51295   0.54386   0.28934   0.00000  Uiso   1.00
C490   C     0.48309   0.95440   0.20361   0.00000  Uiso   1.00
C491   C     0.51447   0.58940   0.29244   0.00000  Uiso   1.00
C492   C     0.48262   0.90857   0.20302   0.00000  Uiso   1.00
C493   C     0.49649   0.61659   0.25172   0.00000  Uiso   1.00
C494   C     0.49082   0.88317   0.24688   0.00000  Uiso   1.00
C495   C     0.47383   0.59694   0.21022   0.00000  Uiso   1.00
C496   C     0.49197   0.90444   0.29048   0.00000  Uiso   1.00
C497   C     0.46893   0.55150   0.20904   0.00000  Uiso   1.00
C498   C     0.48803   0.94980   0.29068   0.00000  Uiso   1.00
C499   C     0.48925   0.52425   0.24841   0.00000  Uiso   1.00
C500   C     0.48640   0.97562   0.24743   0.00000  Uiso   1.00
Cu501  Cu    0.50000   0.74999   0.29821   0.00000  Uiso   1.00
Cu502  Cu    0.50000   0.75000   0.20178   0.00000  Uiso   1.00
H503   H     0.57442   0.77881   0.04290   0.00000  Uiso   1.00
H504   H     0.47020   0.68446   0.46235   0.00000  Uiso   1.00
N505   N     0.50000   0.75001   0.12934   0.00000  Uiso   1.00
N506   N     0.50000   0.74999   0.37065   0.00000  Uiso   1.00
O507   O     0.50000   0.68572   0.29071   0.00000  Uiso   1.00
O508   O     0.50000   0.81427   0.20928   0.00000  Uiso   1.00
O509   O     0.50000   0.68573   0.20928   0.00000  Uiso   1.00
O510   O     0.50000   0.81427   0.29072   0.00000  Uiso   1.00
O511   O     0.42495   0.74999   0.28132   0.00000  Uiso   1.00
O512   O     0.57505   0.75000   0.21868   0.00000  Uiso   1.00
O513   O     0.42495   0.75000   0.19988   0.00000  Uiso   1.00
O514   O     0.57505   0.75000   0.30011   0.00000  Uiso   1.00
C515   C     0.66053   0.71109   0.19601   0.00000  Uiso   1.00
C516   C     0.65861   0.72385   0.14684   0.00000  Uiso   1.00
C517   C     0.63833   0.69548   0.11185   0.00000  Uiso   1.00
C518   C     0.62011   0.65419   0.12558   0.00000  Uiso   1.00
C519   C     0.62235   0.64108   0.17442   0.00000  Uiso   1.00
C520   C     0.64267   0.66931   0.20957   0.00000  Uiso   1.00
H521   H     0.33860   0.75601   0.13568   0.00000  Uiso   1.00
H522   H     0.63601   0.70582   0.07413   0.00000  Uiso   1.00
H523   H     0.60417   0.63243   0.09836   0.00000  Uiso   1.00
H524   H     0.60819   0.60910   0.18507   0.00000  Uiso   1.00
H525   H     0.64426   0.65883   0.24729   0.00000  Uiso   1.00
C526   C     0.33936   0.78905   0.30324   0.00000  Uiso   1.00
C527   C     0.35397   0.83156   0.28856   0.00000  Uiso   1.00
C528   C     0.37206   0.86138   0.32287   0.00000  Uiso   1.00
C529   C     0.37575   0.84899   0.37196   0.00000  Uiso   1.00
C530   C     0.36159   0.80667   0.38683   0.00000  Uiso   1.00
C531   C     0.34327   0.77675   0.35265   0.00000  Uiso   1.00
H532   H     0.35111   0.84156   0.25060   0.00000  Uiso   1.00
H533   H     0.38299   0.89416   0.31142   0.00000  Uiso   1.00
H534   H     0.38932   0.87227   0.39845   0.00000  Uiso   1.00
H535   H     0.36466   0.79717   0.42483   0.00000  Uiso   1.00
H536   H     0.66569   0.74407   0.36459   0.00000  Uiso   1.00
H537   H     0.53054   0.52398   0.31975   0.00000  Uiso   1.00
H538   H     0.48082   0.97305   0.16949   0.00000  Uiso   1.00
C539   C     0.53175   0.60636   0.33992   0.00000  Uiso   1.00
C540   C     0.57436   0.63368   0.34629   0.00000  Uiso   1.00
C541   C     0.58817   0.65104   0.39109   0.00000  Uiso   1.00
C542   C     0.56073   0.63980   0.43013   0.00000  Uiso   1.00
C543   C     0.51995   0.61077   0.42458   0.00000  Uiso   1.00
C544   C     0.50518   0.59433   0.37951   0.00000  Uiso   1.00
H545   H     0.59573   0.64258   0.31631   0.00000  Uiso   1.00
H546   H     0.61982   0.67347   0.39499   0.00000  Uiso   1.00
H547   H     0.57005   0.65412   0.46465   0.00000  Uiso   1.00
H548   H     0.49890   0.60206   0.45483   0.00000  Uiso   1.00
H549   H     0.47252   0.57280   0.37522   0.00000  Uiso   1.00
C550   C     0.47076   0.88855   0.15627   0.00000  Uiso   1.00
C551   C     0.50827   0.88575   0.12480   0.00000  Uiso   1.00
C552   C     0.49750   0.86511   0.08143   0.00000  Uiso   1.00
C553   C     0.44907   0.84789   0.06870   0.00000  Uiso   1.00
C554   C     0.41139   0.85083   0.09992   0.00000  Uiso   1.00
C555   C     0.42219   0.87103   0.14378   0.00000  Uiso   1.00
H556   H     0.54607   0.89853   0.13442   0.00000  Uiso   1.00
H557   H     0.52751   0.86139   0.05867   0.00000  Uiso   1.00
H558   H     0.44095   0.83162   0.03511   0.00000  Uiso   1.00
H559   H     0.37407   0.83711   0.09036   0.00000  Uiso   1.00
H560   H     0.39302   0.87275   0.16813   0.00000  Uiso   1.00
H561   H     0.45824   0.61687   0.17893   0.00000  Uiso   1.00
H562   H     0.49555   0.88606   0.32488   0.00000  Uiso   1.00
H563   H     0.44874   0.53818   0.17727   0.00000  Uiso   1.00
H564   H     0.48688   0.96429   0.32518   0.00000  Uiso   1.00
H565   H     0.57069   0.78264   0.12939   0.00000  Uiso   1.00
H566   H     0.46373   0.68842   0.37539   0.00000  Uiso   1.00
H567   H     0.43236   0.71370   0.12099   0.00000  Uiso   1.00
H568   H     0.53757   0.81091   0.37512   0.00000  Uiso   1.00
C569   C     0.42164   0.69993   0.02992   0.00000  Uiso   1.00
C570   C     0.37762   0.71797   0.00436   0.00000  Uiso   1.00
C571   C     0.33915   0.69014   0.48596   0.00000  Uiso   1.00
C572   C     0.34497   0.64435   0.49275   0.00000  Uiso   1.00
C573   C     0.38865   0.62643   0.01870   0.00000  Uiso   1.00
C574   C     0.42671   0.65413   0.03780   0.00000  Uiso   1.00
H575   H     0.37270   0.75328   0.49982   0.00000  Uiso   1.00
H576   H     0.63803   0.70449   0.46742   0.00000  Uiso   1.00
H577   H     0.64927   0.62221   0.47860   0.00000  Uiso   1.00
H578   H     0.39281   0.59113   0.02430   0.00000  Uiso   1.00
H579   H     0.46038   0.64002   0.05841   0.00000  Uiso   1.00
C580   C     0.53997   0.82780   0.46513   0.00000  Uiso   1.00
C581   C     0.50693   0.86416   0.46241   0.00000  Uiso   1.00
C582   C     0.52598   0.90610   0.47202   0.00000  Uiso   1.00
C583   C     0.57817   0.91201   0.48414   0.00000  Uiso   1.00
C584   C     0.61149   0.87617   0.48568   0.00000  Uiso   1.00
C585   C     0.59263   0.83440   0.47517   0.00000  Uiso   1.00
H586   H     0.46663   0.86009   0.45209   0.00000  Uiso   1.00
H587   H     0.50028   0.93398   0.47008   0.00000  Uiso   1.00
H588   H     0.59285   0.94443   0.49178   0.00000  Uiso   1.00
H589   H     0.65202   0.88090   0.49407   0.00000  Uiso   1.00
H590   H     0.61899   0.80725   0.47432   0.00000  Uiso   1.00
C591   C     0.83273   0.66495   0.25086   0.00000  Uiso   1.00
C592   C     0.83043   0.83495   0.24880   0.00000  Uiso   1.00
C593   C     0.87415   0.76662   0.05753   0.00000  Uiso   1.00
C594   C     0.81525   0.71459   0.44542   0.00000  Uiso   1.00
C595   C     0.87292   0.76768   0.10771   0.00000  Uiso   1.00
C596   C     0.81318   0.71583   0.39498   0.00000  Uiso   1.00
C597   C     0.79521   0.72988   0.10273   0.00000  Uiso   1.00
C598   C     0.85442   0.78416   0.39504   0.00000  Uiso   1.00
C599   C     0.79450   0.72809   0.05242   0.00000  Uiso   1.00
C600   C     0.85441   0.78607   0.44541   0.00000  Uiso   1.00
C601   C     0.83369   0.74862   0.02765   0.00000  Uiso   1.00
C602   C     0.83442   0.75017   0.47263   0.00000  Uiso   1.00
C603   C     0.73504   0.74874   0.23826   0.00000  Uiso   1.00
C604   C     0.93166   0.75101   0.26174   0.00000  Uiso   1.00
C605   C     0.68087   0.74170   0.23351   0.00000  Uiso   1.00
C606   C     0.98589   0.75766   0.26655   0.00000  Uiso   1.00
C607   C     0.84629   0.54386   0.28934   0.00000  Uiso   1.00
C608   C     0.81642   0.95440   0.20361   0.00000  Uiso   1.00
C609   C     0.84781   0.58940   0.29244   0.00000  Uiso   1.00
C610   C     0.81596   0.90857   0.20302   0.00000  Uiso   1.00
C611   C     0.82983   0.61659   0.25172   0.00000  Uiso   1.00
C612   C     0.82415   0.88317   0.24688   0.00000  Uiso   1.00
C613   C     0.80717   0.59694   0.21022   0.00000  Uiso   1.00
C614   C     0.82530   0.90444   0.29048   0.00000  Uiso   1.00
C615   C     0.80226   0.55150   0.20904   0.00000  Uiso   1.00
C616   C     0.82136   0.94980   0.29068   0.00000  Uiso   1.00
C617   C     0.82258   0.52425   0.24841   0.00000  Uiso   1.00
C618   C     0.81973   0.97562   0.24743   0.00000  Uiso   1.00
Cu619  Cu    0.83333   0.74999   0.29821   0.00000  Uiso   1.00
Cu620  Cu    0.83333   0.75000   0.20178   0.00000  Uiso   1.00
H621   H     0.90775   0.77881   0.04290   0.00000  Uiso   1.00
H622   H     0.80353   0.68446   0.46235   0.00000  Uiso   1.00
N623   N     0.83333   0.75001   0.12934   0.00000  Uiso   1.00
N624   N     0.83333   0.74999   0.37065   0.00000  Uiso   1.00
O625   O     0.83334   0.68572   0.29071   0.00000  Uiso   1.00
O626   O     0.83333   0.81427   0.20928   0.00000  Uiso   1.00
O627   O     0.83334   0.68573   0.20928   0.00000  Uiso   1.00
O628   O     0.83333   0.81427   0.29072   0.00000  Uiso   1.00
O629   O     0.75828   0.74999   0.28132   0.00000  Uiso   1.00
O630   O     0.90839   0.75000   0.21868   0.00000  Uiso   1.00
O631   O     0.75828   0.75000   0.19988   0.00000  Uiso   1.00
O632   O     0.90839   0.75000   0.30011   0.00000  Uiso   1.00
C633   C     0.99386   0.71109   0.19601   0.00000  Uiso   1.00
C634   C     0.99194   0.72385   0.14684   0.00000  Uiso   1.00
C635   C     0.97166   0.69548   0.11185   0.00000  Uiso   1.00
C636   C     0.95345   0.65419   0.12558   0.00000  Uiso   1.00
C637   C     0.95568   0.64108   0.17442   0.00000  Uiso   1.00
C638   C     0.97600   0.66931   0.20957   0.00000  Uiso   1.00
H639   H     0.67193   0.75601   0.13568   0.00000  Uiso   1.00
H640   H     0.96934   0.70582   0.07413   0.00000  Uiso   1.00
H641   H     0.93750   0.63243   0.09836   0.00000  Uiso   1.00
H642   H     0.94153   0.60910   0.18507   0.00000  Uiso   1.00
H643   H     0.97759   0.65883   0.24729   0.00000  Uiso   1.00
C644   C     0.67269   0.78905   0.30324   0.00000  Uiso   1.00
C645   C     0.68730   0.83156   0.28856   0.00000  Uiso   1.00
C646   C     0.70539   0.86138   0.32287   0.00000  Uiso   1.00
C647   C     0.70908   0.84899   0.37196   0.00000  Uiso   1.00
C648   C     0.69492   0.80667   0.38683   0.00000  Uiso   1.00
C649   C     0.67660   0.77675   0.35265   0.00000  Uiso   1.00
H650   H     0.68445   0.84156   0.25060   0.00000  Uiso   1.00
H651   H     0.71632   0.89416   0.31142   0.00000  Uiso   1.00
H652   H     0.72266   0.87227   0.39845   0.00000  Uiso   1.00
H653   H     0.69799   0.79717   0.42483   0.00000  Uiso   1.00
H654   H     0.99903   0.74407   0.36459   0.00000  Uiso   1.00
H655   H     0.86387   0.52398   0.31975   0.00000  Uiso   1.00
H656   H     0.81415   0.97305   0.16949   0.00000  Uiso   1.00
C657   C     0.86509   0.60636   0.33992   0.00000  Uiso   1.00
C658   C     0.90770   0.63368   0.34629   0.00000  Uiso   1.00
C659   C     0.92150   0.65104   0.39109   0.00000  Uiso   1.00
C660   C     0.89406   0.63980   0.43013   0.00000  Uiso   1.00
C661   C     0.85329   0.61077   0.42458   0.00000  Uiso   1.00
C662   C     0.83851   0.59433   0.37951   0.00000  Uiso   1.00
H663   H     0.92906   0.64258   0.31631   0.00000  Uiso   1.00
H664   H     0.95316   0.67347   0.39499   0.00000  Uiso   1.00
H665   H     0.90338   0.65412   0.46465   0.00000  Uiso   1.00
H666   H     0.83224   0.60206   0.45483   0.00000  Uiso   1.00
H667   H     0.80585   0.57280   0.37522   0.00000  Uiso   1.00
C668   C     0.80409   0.88855   0.15627   0.00000  Uiso   1.00
C669   C     0.84160   0.88575   0.12480   0.00000  Uiso   1.00
C670   C     0.83084   0.86511   0.08143   0.00000  Uiso   1.00
C671   C     0.78240   0.84789   0.06870   0.00000  Uiso   1.00
C672   C     0.74473   0.85083   0.09992   0.00000  Uiso   1.00
C673   C     0.75552   0.87103   0.14378   0.00000  Uiso   1.00
H674   H     0.87941   0.89853   0.13442   0.00000  Uiso   1.00
H675   H     0.86084   0.86139   0.05867   0.00000  Uiso   1.00
H676   H     0.77428   0.83162   0.03511   0.00000  Uiso   1.00
H677   H     0.70740   0.83711   0.09036   0.00000  Uiso   1.00
H678   H     0.72636   0.87275   0.16813   0.00000  Uiso   1.00
H679   H     0.79157   0.61687   0.17893   0.00000  Uiso   1.00
H680   H     0.82888   0.88606   0.32488   0.00000  Uiso   1.00
H681   H     0.78208   0.53818   0.17727   0.00000  Uiso   1.00
H682   H     0.82021   0.96429   0.32518   0.00000  Uiso   1.00
H683   H     0.90402   0.78264   0.12939   0.00000  Uiso   1.00
H684   H     0.79707   0.68842   0.37539   0.00000  Uiso   1.00
H685   H     0.76569   0.71370   0.12099   0.00000  Uiso   1.00
H686   H     0.87090   0.81091   0.37512   0.00000  Uiso   1.00
C687   C     0.75498   0.69993   0.02992   0.00000  Uiso   1.00
C688   C     0.71095   0.71797   0.00436   0.00000  Uiso   1.00
C689   C     0.67248   0.69014   0.48596   0.00000  Uiso   1.00
C690   C     0.67830   0.64435   0.49275   0.00000  Uiso   1.00
C691   C     0.72198   0.62643   0.01870   0.00000  Uiso   1.00
C692   C     0.76005   0.65413   0.03780   0.00000  Uiso   1.00
H693   H     0.70603   0.75328   0.49982   0.00000  Uiso   1.00
H694   H     0.97136   0.70449   0.46742   0.00000  Uiso   1.00
H695   H     0.98260   0.62221   0.47860   0.00000  Uiso   1.00
H696   H     0.72614   0.59113   0.02430   0.00000  Uiso   1.00
H697   H     0.79371   0.64002   0.05841   0.00000  Uiso   1.00
C698   C     0.87331   0.82780   0.46513   0.00000  Uiso   1.00
C699   C     0.84026   0.86416   0.46241   0.00000  Uiso   1.00
C700   C     0.85931   0.90610   0.47202   0.00000  Uiso   1.00
C701   C     0.91151   0.91201   0.48414   0.00000  Uiso   1.00
C702   C     0.94483   0.87617   0.48568   0.00000  Uiso   1.00
C703   C     0.92596   0.83440   0.47517   0.00000  Uiso   1.00
H704   H     0.79996   0.86009   0.45209   0.00000  Uiso   1.00
H705   H     0.83362   0.93398   0.47008   0.00000  Uiso   1.00
H706   H     0.92618   0.94443   0.49178   0.00000  Uiso   1.00
H707   H     0.98536   0.88090   0.49407   0.00000  Uiso   1.00
H708   H     0.95233   0.80725   0.47432   0.00000  Uiso   1.00
C709   C     0.16606   0.16495   0.75086   0.00000  Uiso   1.00
C710   C     0.16376   0.33495   0.74880   0.00000  Uiso   1.00
C711   C     0.20749   0.26662   0.55753   0.00000  Uiso   1.00
C712   C     0.14858   0.21459   0.94542   0.00000  Uiso   1.00
C713   C     0.20625   0.26768   0.60771   0.00000  Uiso   1.00
C714   C     0.14651   0.21583   0.89498   0.00000  Uiso   1.00
C715   C     0.12855   0.22988   0.60273   0.00000  Uiso   1.00
C716   C     0.18775   0.28416   0.89504   0.00000  Uiso   1.00
C717   C     0.12783   0.22809   0.55242   0.00000  Uiso   1.00
C718   C     0.18774   0.28607   0.94541   0.00000  Uiso   1.00
C719   C     0.16702   0.24862   0.52765   0.00000  Uiso   1.00
C720   C     0.16775   0.25017   0.97263   0.00000  Uiso   1.00
C721   C     0.06837   0.24874   0.73826   0.00000  Uiso   1.00
C722   C     0.26499   0.25101   0.76174   0.00000  Uiso   1.00
C723   C     0.01421   0.24170   0.73351   0.00000  Uiso   1.00
C724   C     0.31922   0.25766   0.76655   0.00000  Uiso   1.00
C725   C     0.17962   0.04386   0.78934   0.00000  Uiso   1.00
C726   C     0.14976   0.45440   0.70361   0.00000  Uiso   1.00
C727   C     0.18114   0.08940   0.79244   0.00000  Uiso   1.00
C728   C     0.14929   0.40857   0.70302   0.00000  Uiso   1.00
C729   C     0.16316   0.11659   0.75172   0.00000  Uiso   1.00
C730   C     0.15749   0.38317   0.74688   0.00000  Uiso   1.00
C731   C     0.14050   0.09694   0.71022   0.00000  Uiso   1.00
C732   C     0.15863   0.40444   0.79048   0.00000  Uiso   1.00
C733   C     0.13560   0.05150   0.70904   0.00000  Uiso   1.00
C734   C     0.15470   0.44980   0.79068   0.00000  Uiso   1.00
C735   C     0.15591   0.02425   0.74841   0.00000  Uiso   1.00
C736   C     0.15306   0.47562   0.74743   0.00000  Uiso   1.00
Cu737  Cu    0.16667   0.24999   0.79821   0.00000  Uiso   1.00
Cu738  Cu    0.16667   0.25000   0.70178   0.00000  Uiso   1.00
H739   H     0.24108   0.27881   0.54290   0.00000  Uiso   1.00
H740   H     0.13686   0.18446   0.96235   0.00000  Uiso   1.00
N741   N     0.16667   0.25001   0.62934   0.00000  Uiso   1.00
N742   N     0.16667   0.24999   0.87065   0.00000  Uiso   1.00
O743   O     0.16667   0.18572   0.79071   0.00000  Uiso   1.00
O744   O     0.16666   0.31427   0.70928   0.00000  Uiso   1.00
O745   O     0.16667   0.18573   0.70928   0.00000  Uiso   1.00
O746   O     0.16666   0.31427   0.79072   0.00000  Uiso   1.00
O747   O     0.09161   0.24999   0.78132   0.00000  Uiso   1.00
O748   O     0.24172   0.25000   0.71868   0.00000  Uiso   1.00
O749   O     0.09161   0.25000   0.69988   0.00000  Uiso   1.00
O750   O     0.24172   0.25000   0.80011   0.00000  Uiso   1.00
C751   C     0.32719   0.21109   0.69601   0.00000  Uiso   1.00
C752   C     0.32528   0.22385   0.64684   0.00000  Uiso   1.00
C753   C     0.30500   0.19548   0.61185   0.00000  Uiso   1.00
C754   C     0.28678   0.15419   0.62558   0.00000  Uiso   1.00
C755   C     0.28902   0.14108   0.67442   0.00000  Uiso   1.00
C756   C     0.30934   0.16931   0.70957   0.00000  Uiso   1.00
H757   H     0.00526   0.25601   0.63568   0.00000  Uiso   1.00
H758   H     0.30267   0.20582   0.57413   0.00000  Uiso   1.00
H759   H     0.27083   0.13243   0.59836   0.00000  Uiso   1.00
H760   H     0.27486   0.10910   0.68507   0.00000  Uiso   1.00
H761   H     0.31092   0.15883   0.74729   0.00000  Uiso   1.00
C762   C     0.00602   0.28905   0.80324   0.00000  Uiso   1.00
C763   C     0.02064   0.33156   0.78856   0.00000  Uiso   1.00
C764   C     0.03873   0.36138   0.82287   0.00000  Uiso   1.00
C765   C     0.04241   0.34899   0.87196   0.00000  Uiso   1.00
C766   C     0.02826   0.30667   0.88683   0.00000  Uiso   1.00
C767   C     0.00993   0.27675   0.85265   0.00000  Uiso   1.00
H768   H     0.01778   0.34156   0.75060   0.00000  Uiso   1.00
H769   H     0.04966   0.39416   0.81142   0.00000  Uiso   1.00
H770   H     0.05599   0.37227   0.89845   0.00000  Uiso   1.00
H771   H     0.03132   0.29717   0.92483   0.00000  Uiso   1.00
H772   H     0.33236   0.24407   0.86459   0.00000  Uiso   1.00
H773   H     0.19721   0.02398   0.81975   0.00000  Uiso   1.00
H774   H     0.14748   0.47305   0.66949   0.00000  Uiso   1.00
C775   C     0.19842   0.10636   0.83992   0.00000  Uiso   1.00
C776   C     0.24103   0.13368   0.84629   0.00000  Uiso   1.00
C777   C     0.25484   0.15104   0.89109   0.00000  Uiso   1.00
C778   C     0.22739   0.13980   0.93013   0.00000  Uiso   1.00
C779   C     0.18662   0.11077   0.92458   0.00000  Uiso   1.00
C780   C     0.17184   0.09433   0.87951   0.00000  Uiso   1.00
H781   H     0.26240   0.14258   0.81631   0.00000  Uiso   1.00
H782   H     0.28649   0.17347   0.89499   0.00000  Uiso   1.00
H783   H     0.23672   0.15412   0.96465   0.00000  Uiso   1.00
H784   H     0.16557   0.10206   0.95483   0.00000  Uiso   1.00
H785   H     0.13918   0.07280   0.87522   0.00000  Uiso   1.00
C786   C     0.13742   0.38855   0.65627   0.00000  Uiso   1.00
C787   C     0.17494   0.38575   0.62480   0.00000  Uiso   1.00
C788   C     0.16417   0.36511   0.58143   0.00000  Uiso   1.00
C789   C     0.11574   0.34789   0.56870   0.00000  Uiso   1.00
C790   C     0.07806   0.35083   0.59992   0.00000  Uiso   1.00
C791   C     0.08886   0.37103   0.64378   0.00000  Uiso   1.00
H792   H     0.21274   0.39853   0.63442   0.00000  Uiso   1.00
H793   H     0.19418   0.36139   0.55867   0.00000  Uiso   1.00
H794   H     0.10762   0.33162   0.53511   0.00000  Uiso   1.00
H795   H     0.04073   0.33711   0.59036   0.00000  Uiso   1.00
H796   H     0.05969   0.37275   0.66813   0.00000  Uiso   1.00
H797   H     0.12490   0.11687   0.67893   0.00000  Uiso   1.00
H798   H     0.16222   0.38606   0.82488   0.00000  Uiso   1.00
H799   H     0.11541   0.03818   0.67727   0.00000  Uiso   1.00
H800   H     0.15354   0.46429   0.82518   0.00000  Uiso   1.00
H801   H     0.23735   0.28264   0.62939   0.00000  Uiso   1.00
H802   H     0.13040   0.18842   0.87539   0.00000  Uiso   1.00
H803   H     0.09902   0.21370   0.62099   0.00000  Uiso   1.00
H804   H     0.20424   0.31091   0.87512   0.00000  Uiso   1.00
C805   C     0.08831   0.19993   0.52992   0.00000  Uiso   1.00
C806   C     0.04428   0.21797   0.50436   0.00000  Uiso   1.00
C807   C     0.00581   0.19014   0.98596   0.00000  Uiso   1.00
C808   C     0.01164   0.14435   0.99275   0.00000  Uiso   1.00
C809   C     0.05531   0.12643   0.51870   0.00000  Uiso   1.00
C810   C     0.09338   0.15413   0.53780   0.00000  Uiso   1.00
H811   H     0.03937   0.25328   0.99982   0.00000  Uiso   1.00
H812   H     0.30470   0.20449   0.96742   0.00000  Uiso   1.00
H813   H     0.31593   0.12221   0.97860   0.00000  Uiso   1.00
H814   H     0.05947   0.09113   0.52430   0.00000  Uiso   1.00
H815   H     0.12704   0.14002   0.55841   0.00000  Uiso   1.00
C816   C     0.20664   0.32780   0.96513   0.00000  Uiso   1.00
C817   C     0.17359   0.36416   0.96241   0.00000  Uiso   1.00
C818   C     0.19264   0.40610   0.97202   0.00000  Uiso   1.00
C819   C     0.24484   0.41201   0.98414   0.00000  Uiso   1.00
C820   C     0.27816   0.37617   0.98568   0.00000  Uiso   1.00
C821   C     0.25930   0.33440   0.97517   0.00000  Uiso   1.00
H822   H     0.13329   0.36009   0.95209   0.00000  Uiso   1.00
H823   H     0.16695   0.43398   0.97008   0.00000  Uiso   1.00
H824   H     0.25952   0.44443   0.99178   0.00000  Uiso   1.00
H825   H     0.31869   0.38090   0.99407   0.00000  Uiso   1.00
H826   H     0.28566   0.30725   0.97432   0.00000  Uiso   1.00
C827   C     0.49939   0.16495   0.75086   0.00000  Uiso   1.00
C828   C     0.49710   0.33495   0.74880   0.00000  Uiso   1.00
C829   C     0.54082   0.26662   0.55753   0.00000  Uiso   1.00
C830   C     0.48191   0.21459   0.94542   0.00000  Uiso   1.00
C831   C     0.53958   0.26768   0.60771   0.00000  Uiso   1.00
C832   C     0.47985   0.21583   0.89498   0.00000  Uiso   1.00
C833   C     0.46188   0.22988   0.60273   0.00000  Uiso   1.00
C834   C     0.52109   0.28416   0.89504   0.00000  Uiso   1.00
C835   C     0.46117   0.22809   0.55242   0.00000  Uiso   1.00
C836   C     0.52108   0.28607   0.94541   0.00000  Uiso   1.00
C837   C     0.50035   0.24862   0.52765   0.00000  Uiso   1.00
C838   C     0.50108   0.25017   0.97263   0.00000  Uiso   1.00
C839   C     0.40170   0.24874   0.73826   0.00000  Uiso   1.00
C840   C     0.59832   0.25101   0.76174   0.00000  Uiso   1.00
C841   C     0.34754   0.24170   0.73351   0.00000  Uiso   1.00
C842   C     0.65256   0.25766   0.76655   0.00000  Uiso   1.00
C843   C     0.51295   0.04386   0.78934   0.00000  Uiso   1.00
C844   C     0.48309   0.45440   0.70361   0.00000  Uiso   1.00
C845   C     0.51447   0.08940   0.79244   0.00000  Uiso   1.00
C846   C     0.48262   0.40857   0.70302   0.00000  Uiso   1.00
C847   C     0.49649   0.11659   0.75172   0.00000  Uiso   1.00
C848   C     0.49082   0.38317   0.74688   0.00000  Uiso   1.00
C849   C     0.47383   0.09694   0.71022   0.00000  Uiso   1.00
C850   C     0.49197   0.40444   0.79048   0.00000  Uiso   1.00
C851   C     0.46893   0.05150   0.70904   0.00000  Uiso   1.00
C852   C     0.48803   0.44980   0.79068   0.00000  Uiso   1.00
C853   C     0.48925   0.02425   0.74841   0.00000  Uiso   1.00
C854   C     0.48640   0.47562   0.74743   0.00000  Uiso   1.00
Cu855  Cu    0.50000   0.24999   0.79821   0.00000  Uiso   1.00
Cu856  Cu    0.50000   0.25000   0.70178   0.00000  Uiso   1.00
H857   H     0.57442   0.27881   0.54290   0.00000  Uiso   1.00
H858   H     0.47020   0.18446   0.96235   0.00000  Uiso   1.00
N859   N     0.50000   0.25001   0.62934   0.00000  Uiso   1.00
N860   N     0.50000   0.24999   0.87065   0.00000  Uiso   1.00
O861   O     0.50000   0.18572   0.79071   0.00000  Uiso   1.00
O862   O     0.50000   0.31427   0.70928   0.00000  Uiso   1.00
O863   O     0.50000   0.18573   0.70928   0.00000  Uiso   1.00
O864   O     0.50000   0.31427   0.79072   0.00000  Uiso   1.00
O865   O     0.42495   0.24999   0.78132   0.00000  Uiso   1.00
O866   O     0.57505   0.25000   0.71868   0.00000  Uiso   1.00
O867   O     0.42495   0.25000   0.69988   0.00000  Uiso   1.00
O868   O     0.57505   0.25000   0.80011   0.00000  Uiso   1.00
C869   C     0.66053   0.21109   0.69601   0.00000  Uiso   1.00
C870   C     0.65861   0.22385   0.64684   0.00000  Uiso   1.00
C871   C     0.63833   0.19548   0.61185   0.00000  Uiso   1.00
C872   C     0.62011   0.15419   0.62558   0.00000  Uiso   1.00
C873   C     0.62235   0.14108   0.67442   0.00000  Uiso   1.00
C874   C     0.64267   0.16931   0.70957   0.00000  Uiso   1.00
H875   H     0.33860   0.25601   0.63568   0.00000  Uiso   1.00
H876   H     0.63601   0.20582   0.57413   0.00000  Uiso   1.00
H877   H     0.60417   0.13243   0.59836   0.00000  Uiso   1.00
H878   H     0.60819   0.10910   0.68507   0.00000  Uiso   1.00
H879   H     0.64426   0.15883   0.74729   0.00000  Uiso   1.00
C880   C     0.33936   0.28905   0.80324   0.00000  Uiso   1.00
C881   C     0.35397   0.33156   0.78856   0.00000  Uiso   1.00
C882   C     0.37206   0.36138   0.82287   0.00000  Uiso   1.00
C883   C     0.37575   0.34899   0.87196   0.00000  Uiso   1.00
C884   C     0.36159   0.30667   0.88683   0.00000  Uiso   1.00
C885   C     0.34327   0.27675   0.85265   0.00000  Uiso   1.00
H886   H     0.35111   0.34156   0.75060   0.00000  Uiso   1.00
H887   H     0.38299   0.39416   0.81142   0.00000  Uiso   1.00
H888   H     0.38932   0.37227   0.89845   0.00000  Uiso   1.00
H889   H     0.36466   0.29717   0.92483   0.00000  Uiso   1.00
H890   H     0.66569   0.24407   0.86459   0.00000  Uiso   1.00
H891   H     0.53054   0.02398   0.81975   0.00000  Uiso   1.00
H892   H     0.48082   0.47305   0.66949   0.00000  Uiso   1.00
C893   C     0.53175   0.10636   0.83992   0.00000  Uiso   1.00
C894   C     0.57436   0.13368   0.84629   0.00000  Uiso   1.00
C895   C     0.58817   0.15104   0.89109   0.00000  Uiso   1.00
C896   C     0.56073   0.13980   0.93013   0.00000  Uiso   1.00
C897   C     0.51995   0.11077   0.92458   0.00000  Uiso   1.00
C898   C     0.50518   0.09433   0.87951   0.00000  Uiso   1.00
H899   H     0.59573   0.14258   0.81631   0.00000  Uiso   1.00
H900   H     0.61982   0.17347   0.89499   0.00000  Uiso   1.00
H901   H     0.57005   0.15412   0.96465   0.00000  Uiso   1.00
H902   H     0.49890   0.10206   0.95483   0.00000  Uiso   1.00
H903   H     0.47252   0.07280   0.87522   0.00000  Uiso   1.00
C904   C     0.47076   0.38855   0.65627   0.00000  Uiso   1.00
C905   C     0.50827   0.38575   0.62480   0.00000  Uiso   1.00
C906   C     0.49750   0.36511   0.58143   0.00000  Uiso   1.00
C907   C     0.44907   0.34789   0.56870   0.00000  Uiso   1.00
C908   C     0.41139   0.35083   0.59992   0.00000  Uiso   1.00
C909   C     0.42219   0.37103   0.64378   0.00000  Uiso   1.00
H910   H     0.54607   0.39853   0.63442   0.00000  Uiso   1.00
H911   H     0.52751   0.36139   0.55867   0.00000  Uiso   1.00
H912   H     0.44095   0.33162   0.53511   0.00000  Uiso   1.00
H913   H     0.37407   0.33711   0.59036   0.00000  Uiso   1.00
H914   H     0.39302   0.37275   0.66813   0.00000  Uiso   1.00
H915   H     0.45824   0.11687   0.67893   0.00000  Uiso   1.00
H916   H     0.49555   0.38606   0.82488   0.00000  Uiso   1.00
H917   H     0.44874   0.03818   0.67727   0.00000  Uiso   1.00
H918   H     0.48688   0.46429   0.82518   0.00000  Uiso   1.00
H919   H     0.57069   0.28264   0.62939   0.00000  Uiso   1.00
H920   H     0.46373   0.18842   0.87539   0.00000  Uiso   1.00
H921   H     0.43236   0.21370   0.62099   0.00000  Uiso   1.00
H922   H     0.53757   0.31091   0.87512   0.00000  Uiso   1.00
C923   C     0.42164   0.19993   0.52992   0.00000  Uiso   1.00
C924   C     0.37762   0.21797   0.50436   0.00000  Uiso   1.00
C925   C     0.33915   0.19014   0.98596   0.00000  Uiso   1.00
C926   C     0.34497   0.14435   0.99275   0.00000  Uiso   1.00
C927   C     0.38865   0.12643   0.51870   0.00000  Uiso   1.00
C928   C     0.42671   0.15413   0.53780   0.00000  Uiso   1.00
H929   H     0.37270   0.25328   0.99982   0.00000  Uiso   1.00
H930   H     0.63803   0.20449   0.96742   0.00000  Uiso   1.00
H931   H     0.64927   0.12221   0.97860   0.00000  Uiso   1.00
H932   H     0.39281   0.09113   0.52430   0.00000  Uiso   1.00
H933   H     0.46038   0.14002   0.55841   0.00000  Uiso   1.00
C934   C     0.53997   0.32780   0.96513   0.00000  Uiso   1.00
C935   C     0.50693   0.36416   0.96241   0.00000  Uiso   1.00
C936   C     0.52598   0.40610   0.97202   0.00000  Uiso   1.00
C937   C     0.57817   0.41201   0.98414   0.00000  Uiso   1.00
C938   C     0.61149   0.37617   0.98568   0.00000  Uiso   1.00
C939   C     0.59263   0.33440   0.97517   0.00000  Uiso   1.00
H940   H     0.46663   0.36009   0.95209   0.00000  Uiso   1.00
H941   H     0.50028   0.43398   0.97008   0.00000  Uiso   1.00
H942   H     0.59285   0.44443   0.99178   0.00000  Uiso   1.00
H943   H     0.65202   0.38090   0.99407   0.00000  Uiso   1.00
H944   H     0.61899   0.30725   0.97432   0.00000  Uiso   1.00
C945   C     0.83273   0.16495   0.75086   0.00000  Uiso   1.00
C946   C     0.83043   0.33495   0.74880   0.00000  Uiso   1.00
C947   C     0.87415   0.26662   0.55753   0.00000  Uiso   1.00
C948   C     0.81525   0.21459   0.94542   0.00000  Uiso   1.00
C949   C     0.87292   0.26768   0.60771   0.00000  Uiso   1.00
C950   C     0.81318   0.21583   0.89498   0.00000  Uiso   1.00
C951   C     0.79521   0.22988   0.60273   0.00000  Uiso   1.00
C952   C     0.85442   0.28416   0.89504   0.00000  Uiso   1.00
C953   C     0.79450   0.22809   0.55242   0.00000  Uiso   1.00
C954   C     0.85441   0.28607   0.94541   0.00000  Uiso   1.00
C955   C     0.83369   0.24862   0.52765   0.00000  Uiso   1.00
C956   C     0.83442   0.25017   0.97263   0.00000  Uiso   1.00
C957   C     0.73504   0.24874   0.73826   0.00000  Uiso   1.00
C958   C     0.93166   0.25101   0.76174   0.00000  Uiso   1.00
C959   C     0.68087   0.24170   0.73351   0.00000  Uiso   1.00
C960   C     0.98589   0.25766   0.76655   0.00000  Uiso   1.00
C961   C     0.84629   0.04386   0.78934   0.00000  Uiso   1.00
C962   C     0.81642   0.45440   0.70361   0.00000  Uiso   1.00
C963   C     0.84781   0.08940   0.79244   0.00000  Uiso   1.00
C964   C     0.81596   0.40857   0.70302   0.00000  Uiso   1.00
C965   C     0.82983   0.11659   0.75172   0.00000  Uiso   1.00
C966   C     0.82415   0.38317   0.74688   0.00000  Uiso   1.00
C967   C     0.80717   0.09694   0.71022   0.00000  Uiso   1.00
C968   C     0.82530   0.40444   0.79048   0.00000  Uiso   1.00
C969   C     0.80226   0.05150   0.70904   0.00000  Uiso   1.00
C970   C     0.82136   0.44980   0.79068   0.00000  Uiso   1.00
C971   C     0.82258   0.02425   0.74841   0.00000  Uiso   1.00
C972   C     0.81973   0.47562   0.74743   0.00000  Uiso   1.00
Cu973  Cu    0.83333   0.24999   0.79821   0.00000  Uiso   1.00
Cu974  Cu    0.83333   0.25000   0.70178   0.00000  Uiso   1.00
H975   H     0.90775   0.27881   0.54290   0.00000  Uiso   1.00
H976   H     0.80353   0.18446   0.96235   0.00000  Uiso   1.00
N977   N     0.83333   0.25001   0.62934   0.00000  Uiso   1.00
N978   N     0.83333   0.24999   0.87065   0.00000  Uiso   1.00
O979   O     0.83334   0.18572   0.79071   0.00000  Uiso   1.00
O980   O     0.83333   0.31427   0.70928   0.00000  Uiso   1.00
O981   O     0.83334   0.18573   0.70928   0.00000  Uiso   1.00
O982   O     0.83333   0.31427   0.79072   0.00000  Uiso   1.00
O983   O     0.75828   0.24999   0.78132   0.00000  Uiso   1.00
O984   O     0.90839   0.25000   0.71868   0.00000  Uiso   1.00
O985   O     0.75828   0.25000   0.69988   0.00000  Uiso   1.00
O986   O     0.90839   0.25000   0.80011   0.00000  Uiso   1.00
C987   C     0.99386   0.21109   0.69601   0.00000  Uiso   1.00
C988   C     0.99194   0.22385   0.64684   0.00000  Uiso   1.00
C989   C     0.97166   0.19548   0.61185   0.00000  Uiso   1.00
C990   C     0.95345   0.15419   0.62558   0.00000  Uiso   1.00
C991   C     0.95568   0.14108   0.67442   0.00000  Uiso   1.00
C992   C     0.97600   0.16931   0.70957   0.00000  Uiso   1.00
H993   H     0.67193   0.25601   0.63568   0.00000  Uiso   1.00
H994   H     0.96934   0.20582   0.57413   0.00000  Uiso   1.00
H995   H     0.93750   0.13243   0.59836   0.00000  Uiso   1.00
H996   H     0.94153   0.10910   0.68507   0.00000  Uiso   1.00
H997   H     0.97759   0.15883   0.74729   0.00000  Uiso   1.00
C998   C     0.67269   0.28905   0.80324   0.00000  Uiso   1.00
C999   C     0.68730   0.33156   0.78856   0.00000  Uiso   1.00
C1000  C     0.70539   0.36138   0.82287   0.00000  Uiso   1.00
C1001  C     0.70908   0.34899   0.87196   0.00000  Uiso   1.00
C1002  C     0.69492   0.30667   0.88683   0.00000  Uiso   1.00
C1003  C     0.67660   0.27675   0.85265   0.00000  Uiso   1.00
H1004  H     0.68445   0.34156   0.75060   0.00000  Uiso   1.00
H1005  H     0.71632   0.39416   0.81142   0.00000  Uiso   1.00
H1006  H     0.72266   0.37227   0.89845   0.00000  Uiso   1.00
H1007  H     0.69799   0.29717   0.92483   0.00000  Uiso   1.00
H1008  H     0.99903   0.24407   0.86459   0.00000  Uiso   1.00
H1009  H     0.86387   0.02398   0.81975   0.00000  Uiso   1.00
H1010  H     0.81415   0.47305   0.66949   0.00000  Uiso   1.00
C1011  C     0.86509   0.10636   0.83992   0.00000  Uiso   1.00
C1012  C     0.90770   0.13368   0.84629   0.00000  Uiso   1.00
C1013  C     0.92150   0.15104   0.89109   0.00000  Uiso   1.00
C1014  C     0.89406   0.13980   0.93013   0.00000  Uiso   1.00
C1015  C     0.85329   0.11077   0.92458   0.00000  Uiso   1.00
C1016  C     0.83851   0.09433   0.87951   0.00000  Uiso   1.00
H1017  H     0.92906   0.14258   0.81631   0.00000  Uiso   1.00
H1018  H     0.95316   0.17347   0.89499   0.00000  Uiso   1.00
H1019  H     0.90338   0.15412   0.96465   0.00000  Uiso   1.00
H1020  H     0.83224   0.10206   0.95483   0.00000  Uiso   1.00
H1021  H     0.80585   0.07280   0.87522   0.00000  Uiso   1.00
C1022  C     0.80409   0.38855   0.65627   0.00000  Uiso   1.00
C1023  C     0.84160   0.38575   0.62480   0.00000  Uiso   1.00
C1024  C     0.83084   0.36511   0.58143   0.00000  Uiso   1.00
C1025  C     0.78240   0.34789   0.56870   0.00000  Uiso   1.00
C1026  C     0.74473   0.35083   0.59992   0.00000  Uiso   1.00
C1027  C     0.75552   0.37103   0.64378   0.00000  Uiso   1.00
H1028  H     0.87941   0.39853   0.63442   0.00000  Uiso   1.00
H1029  H     0.86084   0.36139   0.55867   0.00000  Uiso   1.00
H1030  H     0.77428   0.33162   0.53511   0.00000  Uiso   1.00
H1031  H     0.70740   0.33711   0.59036   0.00000  Uiso   1.00
H1032  H     0.72636   0.37275   0.66813   0.00000  Uiso   1.00
H1033  H     0.79157   0.11687   0.67893   0.00000  Uiso   1.00
H1034  H     0.82888   0.38606   0.82488   0.00000  Uiso   1.00
H1035  H     0.78208   0.03818   0.67727   0.00000  Uiso   1.00
H1036  H     0.82021   0.46429   0.82518   0.00000  Uiso   1.00
H1037  H     0.90402   0.28264   0.62939   0.00000  Uiso   1.00
H1038  H     0.79707   0.18842   0.87539   0.00000  Uiso   1.00
H1039  H     0.76569   0.21370   0.62099   0.00000  Uiso   1.00
H1040  H     0.87090   0.31091   0.87512   0.00000  Uiso   1.00
C1041  C     0.75498   0.19993   0.52992   0.00000  Uiso   1.00
C1042  C     0.71095   0.21797   0.50436   0.00000  Uiso   1.00
C1043  C     0.67248   0.19014   0.98596   0.00000  Uiso   1.00
C1044  C     0.67830   0.14435   0.99275   0.00000  Uiso   1.00
C1045  C     0.72198   0.12643   0.51870   0.00000  Uiso   1.00
C1046  C     0.76005   0.15413   0.53780   0.00000  Uiso   1.00
H1047  H     0.70603   0.25328   0.99982   0.00000  Uiso   1.00
H1048  H     0.97136   0.20449   0.96742   0.00000  Uiso   1.00
H1049  H     0.98260   0.12221   0.97860   0.00000  Uiso   1.00
H1050  H     0.72614   0.09113   0.52430   0.00000  Uiso   1.00
H1051  H     0.79371   0.14002   0.55841   0.00000  Uiso   1.00
C1052  C     0.87331   0.32780   0.96513   0.00000  Uiso   1.00
C1053  C     0.84026   0.36416   0.96241   0.00000  Uiso   1.00
C1054  C     0.85931   0.40610   0.97202   0.00000  Uiso   1.00
C1055  C     0.91151   0.41201   0.98414   0.00000  Uiso   1.00
C1056  C     0.94483   0.37617   0.98568   0.00000  Uiso   1.00
C1057  C     0.92596   0.33440   0.97517   0.00000  Uiso   1.00
H1058  H     0.79996   0.36009   0.95209   0.00000  Uiso   1.00
H1059  H     0.83362   0.43398   0.97008   0.00000  Uiso   1.00
H1060  H     0.92618   0.44443   0.99178   0.00000  Uiso   1.00
H1061  H     0.98536   0.38090   0.99407   0.00000  Uiso   1.00
H1062  H     0.95233   0.30725   0.97432   0.00000  Uiso   1.00
C1063  C     0.16606   0.66495   0.75086   0.00000  Uiso   1.00
C1064  C     0.16376   0.83495   0.74880   0.00000  Uiso   1.00
C1065  C     0.20749   0.76662   0.55753   0.00000  Uiso   1.00
C1066  C     0.14858   0.71459   0.94542   0.00000  Uiso   1.00
C1067  C     0.20625   0.76768   0.60771   0.00000  Uiso   1.00
C1068  C     0.14651   0.71583   0.89498   0.00000  Uiso   1.00
C1069  C     0.12855   0.72988   0.60273   0.00000  Uiso   1.00
C1070  C     0.18775   0.78416   0.89504   0.00000  Uiso   1.00
C1071  C     0.12783   0.72809   0.55242   0.00000  Uiso   1.00
C1072  C     0.18774   0.78607   0.94541   0.00000  Uiso   1.00
C1073  C     0.16702   0.74862   0.52765   0.00000  Uiso   1.00
C1074  C     0.16775   0.75017   0.97263   0.00000  Uiso   1.00
C1075  C     0.06837   0.74874   0.73826   0.00000  Uiso   1.00
C1076  C     0.26499   0.75101   0.76174   0.00000  Uiso   1.00
C1077  C     0.01421   0.74170   0.73351   0.00000  Uiso   1.00
C1078  C     0.31922   0.75766   0.76655   0.00000  Uiso   1.00
C1079  C     0.17962   0.54386   0.78934   0.00000  Uiso   1.00
C1080  C     0.14976   0.95440   0.70361   0.00000  Uiso   1.00
C1081  C     0.18114   0.58940   0.79244   0.00000  Uiso   1.00
C1082  C     0.14929   0.90857   0.70302   0.00000  Uiso   1.00
C1083  C     0.16316   0.61659   0.75172   0.00000  Uiso   1.00
C1084  C     0.15749   0.88317   0.74688   0.00000  Uiso   1.00
C1085  C     0.14050   0.59694   0.71022   0.00000  Uiso   1.00
C1086  C     0.15863   0.90444   0.79048   0.00000  Uiso   1.00
C1087  C     0.13560   0.55150   0.70904   0.00000  Uiso   1.00
C1088  C     0.15470   0.94980   0.79068   0.00000  Uiso   1.00
C1089  C     0.15591   0.52425   0.74841   0.00000  Uiso   1.00
C1090  C     0.15306   0.97562   0.74743   0.00000  Uiso   1.00
Cu1091 Cu    0.16667   0.74999   0.79821   0.00000  Uiso   1.00
Cu1092 Cu    0.16667   0.75000   0.70178   0.00000  Uiso   1.00
H1093  H     0.24108   0.77881   0.54290   0.00000  Uiso   1.00
H1094  H     0.13686   0.68446   0.96235   0.00000  Uiso   1.00
N1095  N     0.16667   0.75001   0.62934   0.00000  Uiso   1.00
N1096  N     0.16667   0.74999   0.87065   0.00000  Uiso   1.00
O1097  O     0.16667   0.68572   0.79071   0.00000  Uiso   1.00
O1098  O     0.16666   0.81427   0.70928   0.00000  Uiso   1.00
O1099  O     0.16667   0.68573   0.70928   0.00000  Uiso   1.00
O1100  O     0.16666   0.81427   0.79072   0.00000  Uiso   1.00
O1101  O     0.09161   0.74999   0.78132   0.00000  Uiso   1.00
O1102  O     0.24172   0.75000   0.71868   0.00000  Uiso   1.00
O1103  O     0.09161   0.75000   0.69988   0.00000  Uiso   1.00
O1104  O     0.24172   0.75000   0.80011   0.00000  Uiso   1.00
C1105  C     0.32719   0.71109   0.69601   0.00000  Uiso   1.00
C1106  C     0.32528   0.72385   0.64684   0.00000  Uiso   1.00
C1107  C     0.30500   0.69548   0.61185   0.00000  Uiso   1.00
C1108  C     0.28678   0.65419   0.62558   0.00000  Uiso   1.00
C1109  C     0.28902   0.64108   0.67442   0.00000  Uiso   1.00
C1110  C     0.30934   0.66931   0.70957   0.00000  Uiso   1.00
H1111  H     0.00526   0.75601   0.63568   0.00000  Uiso   1.00
H1112  H     0.30267   0.70582   0.57413   0.00000  Uiso   1.00
H1113  H     0.27083   0.63243   0.59836   0.00000  Uiso   1.00
H1114  H     0.27486   0.60910   0.68507   0.00000  Uiso   1.00
H1115  H     0.31092   0.65883   0.74729   0.00000  Uiso   1.00
C1116  C     0.00602   0.78905   0.80324   0.00000  Uiso   1.00
C1117  C     0.02064   0.83156   0.78856   0.00000  Uiso   1.00
C1118  C     0.03873   0.86138   0.82287   0.00000  Uiso   1.00
C1119  C     0.04241   0.84899   0.87196   0.00000  Uiso   1.00
C1120  C     0.02826   0.80667   0.88683   0.00000  Uiso   1.00
C1121  C     0.00993   0.77675   0.85265   0.00000  Uiso   1.00
H1122  H     0.01778   0.84156   0.75060   0.00000  Uiso   1.00
H1123  H     0.04966   0.89416   0.81142   0.00000  Uiso   1.00
H1124  H     0.05599   0.87227   0.89845   0.00000  Uiso   1.00
H1125  H     0.03132   0.79717   0.92483   0.00000  Uiso   1.00
H1126  H     0.33236   0.74407   0.86459   0.00000  Uiso   1.00
H1127  H     0.19721   0.52398   0.81975   0.00000  Uiso   1.00
H1128  H     0.14748   0.97305   0.66949   0.00000  Uiso   1.00
C1129  C     0.19842   0.60636   0.83992   0.00000  Uiso   1.00
C1130  C     0.24103   0.63368   0.84629   0.00000  Uiso   1.00
C1131  C     0.25484   0.65104   0.89109   0.00000  Uiso   1.00
C1132  C     0.22739   0.63980   0.93013   0.00000  Uiso   1.00
C1133  C     0.18662   0.61077   0.92458   0.00000  Uiso   1.00
C1134  C     0.17184   0.59433   0.87951   0.00000  Uiso   1.00
H1135  H     0.26240   0.64258   0.81631   0.00000  Uiso   1.00
H1136  H     0.28649   0.67347   0.89499   0.00000  Uiso   1.00
H1137  H     0.23672   0.65412   0.96465   0.00000  Uiso   1.00
H1138  H     0.16557   0.60206   0.95483   0.00000  Uiso   1.00
H1139  H     0.13918   0.57280   0.87522   0.00000  Uiso   1.00
C1140  C     0.13742   0.88855   0.65627   0.00000  Uiso   1.00
C1141  C     0.17494   0.88575   0.62480   0.00000  Uiso   1.00
C1142  C     0.16417   0.86511   0.58143   0.00000  Uiso   1.00
C1143  C     0.11574   0.84789   0.56870   0.00000  Uiso   1.00
C1144  C     0.07806   0.85083   0.59992   0.00000  Uiso   1.00
C1145  C     0.08886   0.87103   0.64378   0.00000  Uiso   1.00
H1146  H     0.21274   0.89853   0.63442   0.00000  Uiso   1.00
H1147  H     0.19418   0.86139   0.55867   0.00000  Uiso   1.00
H1148  H     0.10762   0.83162   0.53511   0.00000  Uiso   1.00
H1149  H     0.04073   0.83711   0.59036   0.00000  Uiso   1.00
H1150  H     0.05969   0.87275   0.66813   0.00000  Uiso   1.00
H1151  H     0.12490   0.61687   0.67893   0.00000  Uiso   1.00
H1152  H     0.16222   0.88606   0.82488   0.00000  Uiso   1.00
H1153  H     0.11541   0.53818   0.67727   0.00000  Uiso   1.00
H1154  H     0.15354   0.96429   0.82518   0.00000  Uiso   1.00
H1155  H     0.23735   0.78264   0.62939   0.00000  Uiso   1.00
H1156  H     0.13040   0.68842   0.87539   0.00000  Uiso   1.00
H1157  H     0.09902   0.71370   0.62099   0.00000  Uiso   1.00
H1158  H     0.20424   0.81091   0.87512   0.00000  Uiso   1.00
C1159  C     0.08831   0.69993   0.52992   0.00000  Uiso   1.00
C1160  C     0.04428   0.71797   0.50436   0.00000  Uiso   1.00
C1161  C     0.00581   0.69014   0.98596   0.00000  Uiso   1.00
C1162  C     0.01164   0.64435   0.99275   0.00000  Uiso   1.00
C1163  C     0.05531   0.62643   0.51870   0.00000  Uiso   1.00
C1164  C     0.09338   0.65413   0.53780   0.00000  Uiso   1.00
H1165  H     0.03937   0.75328   0.99982   0.00000  Uiso   1.00
H1166  H     0.30470   0.70449   0.96742   0.00000  Uiso   1.00
H1167  H     0.31593   0.62221   0.97860   0.00000  Uiso   1.00
H1168  H     0.05947   0.59113   0.52430   0.00000  Uiso   1.00
H1169  H     0.12704   0.64002   0.55841   0.00000  Uiso   1.00
C1170  C     0.20664   0.82780   0.96513   0.00000  Uiso   1.00
C1171  C     0.17359   0.86416   0.96241   0.00000  Uiso   1.00
C1172  C     0.19264   0.90610   0.97202   0.00000  Uiso   1.00
C1173  C     0.24484   0.91201   0.98414   0.00000  Uiso   1.00
C1174  C     0.27816   0.87617   0.98568   0.00000  Uiso   1.00
C1175  C     0.25930   0.83440   0.97517   0.00000  Uiso   1.00
H1176  H     0.13329   0.86009   0.95209   0.00000  Uiso   1.00
H1177  H     0.16695   0.93398   0.97008   0.00000  Uiso   1.00
H1178  H     0.25952   0.94443   0.99178   0.00000  Uiso   1.00
H1179  H     0.31869   0.88090   0.99407   0.00000  Uiso   1.00
H1180  H     0.28566   0.80725   0.97432   0.00000  Uiso   1.00
C1181  C     0.49939   0.66495   0.75086   0.00000  Uiso   1.00
C1182  C     0.49710   0.83495   0.74880   0.00000  Uiso   1.00
C1183  C     0.54082   0.76662   0.55753   0.00000  Uiso   1.00
C1184  C     0.48191   0.71459   0.94542   0.00000  Uiso   1.00
C1185  C     0.53958   0.76768   0.60771   0.00000  Uiso   1.00
C1186  C     0.47985   0.71583   0.89498   0.00000  Uiso   1.00
C1187  C     0.46188   0.72988   0.60273   0.00000  Uiso   1.00
C1188  C     0.52109   0.78416   0.89504   0.00000  Uiso   1.00
C1189  C     0.46117   0.72809   0.55242   0.00000  Uiso   1.00
C1190  C     0.52108   0.78607   0.94541   0.00000  Uiso   1.00
C1191  C     0.50035   0.74862   0.52765   0.00000  Uiso   1.00
C1192  C     0.50108   0.75017   0.97263   0.00000  Uiso   1.00
C1193  C     0.40170   0.74874   0.73826   0.00000  Uiso   1.00
C1194  C     0.59832   0.75101   0.76174   0.00000  Uiso   1.00
C1195  C     0.34754   0.74170   0.73351   0.00000  Uiso   1.00
C1196  C     0.65256   0.75766   0.76655   0.00000  Uiso   1.00
C1197  C     0.51295   0.54386   0.78934   0.00000  Uiso   1.00
C1198  C     0.48309   0.95440   0.70361   0.00000  Uiso   1.00
C1199  C     0.51447   0.58940   0.79244   0.00000  Uiso   1.00
C1200  C     0.48262   0.90857   0.70302   0.00000  Uiso   1.00
C1201  C     0.49649   0.61659   0.75172   0.00000  Uiso   1.00
C1202  C     0.49082   0.88317   0.74688   0.00000  Uiso   1.00
C1203  C     0.47383   0.59694   0.71022   0.00000  Uiso   1.00
C1204  C     0.49197   0.90444   0.79048   0.00000  Uiso   1.00
C1205  C     0.46893   0.55150   0.70904   0.00000  Uiso   1.00
C1206  C     0.48803   0.94980   0.79068   0.00000  Uiso   1.00
C1207  C     0.48925   0.52425   0.74841   0.00000  Uiso   1.00
C1208  C     0.48640   0.97562   0.74743   0.00000  Uiso   1.00
Cu1209 Cu    0.50000   0.74999   0.79821   0.00000  Uiso   1.00
Cu1210 Cu    0.50000   0.75000   0.70178   0.00000  Uiso   1.00
H1211  H     0.57442   0.77881   0.54290   0.00000  Uiso   1.00
H1212  H     0.47020   0.68446   0.96235   0.00000  Uiso   1.00
N1213  N     0.50000   0.75001   0.62934   0.00000  Uiso   1.00
N1214  N     0.50000   0.74999   0.87065   0.00000  Uiso   1.00
O1215  O     0.50000   0.68572   0.79071   0.00000  Uiso   1.00
O1216  O     0.50000   0.81427   0.70928   0.00000  Uiso   1.00
O1217  O     0.50000   0.68573   0.70928   0.00000  Uiso   1.00
O1218  O     0.50000   0.81427   0.79072   0.00000  Uiso   1.00
O1219  O     0.42495   0.74999   0.78132   0.00000  Uiso   1.00
O1220  O     0.57505   0.75000   0.71868   0.00000  Uiso   1.00
O1221  O     0.42495   0.75000   0.69988   0.00000  Uiso   1.00
O1222  O     0.57505   0.75000   0.80011   0.00000  Uiso   1.00
C1223  C     0.66053   0.71109   0.69601   0.00000  Uiso   1.00
C1224  C     0.65861   0.72385   0.64684   0.00000  Uiso   1.00
C1225  C     0.63833   0.69548   0.61185   0.00000  Uiso   1.00
C1226  C     0.62011   0.65419   0.62558   0.00000  Uiso   1.00
C1227  C     0.62235   0.64108   0.67442   0.00000  Uiso   1.00
C1228  C     0.64267   0.66931   0.70957   0.00000  Uiso   1.00
H1229  H     0.33860   0.75601   0.63568   0.00000  Uiso   1.00
H1230  H     0.63601   0.70582   0.57413   0.00000  Uiso   1.00
H1231  H     0.60417   0.63243   0.59836   0.00000  Uiso   1.00
H1232  H     0.60819   0.60910   0.68507   0.00000  Uiso   1.00
H1233  H     0.64426   0.65883   0.74729   0.00000  Uiso   1.00
C1234  C     0.33936   0.78905   0.80324   0.00000  Uiso   1.00
C1235  C     0.35397   0.83156   0.78856   0.00000  Uiso   1.00
C1236  C     0.37206   0.86138   0.82287   0.00000  Uiso   1.00
C1237  C     0.37575   0.84899   0.87196   0.00000  Uiso   1.00
C1238  C     0.36159   0.80667   0.88683   0.00000  Uiso   1.00
C1239  C     0.34327   0.77675   0.85265   0.00000  Uiso   1.00
H1240  H     0.35111   0.84156   0.75060   0.00000  Uiso   1.00
H1241  H     0.38299   0.89416   0.81142   0.00000  Uiso   1.00
H1242  H     0.38932   0.87227   0.89845   0.00000  Uiso   1.00
H1243  H     0.36466   0.79717   0.92483   0.00000  Uiso   1.00
H1244  H     0.66569   0.74407   0.86459   0.00000  Uiso   1.00
H1245  H     0.53054   0.52398   0.81975   0.00000  Uiso   1.00
H1246  H     0.48082   0.97305   0.66949   0.00000  Uiso   1.00
C1247  C     0.53175   0.60636   0.83992   0.00000  Uiso   1.00
C1248  C     0.57436   0.63368   0.84629   0.00000  Uiso   1.00
C1249  C     0.58817   0.65104   0.89109   0.00000  Uiso   1.00
C1250  C     0.56073   0.63980   0.93013   0.00000  Uiso   1.00
C1251  C     0.51995   0.61077   0.92458   0.00000  Uiso   1.00
C1252  C     0.50518   0.59433   0.87951   0.00000  Uiso   1.00
H1253  H     0.59573   0.64258   0.81631   0.00000  Uiso   1.00
H1254  H     0.61982   0.67347   0.89499   0.00000  Uiso   1.00
H1255  H     0.57005   0.65412   0.96465   0.00000  Uiso   1.00
H1256  H     0.49890   0.60206   0.95483   0.00000  Uiso   1.00
H1257  H     0.47252   0.57280   0.87522   0.00000  Uiso   1.00
C1258  C     0.47076   0.88855   0.65627   0.00000  Uiso   1.00
C1259  C     0.50827   0.88575   0.62480   0.00000  Uiso   1.00
C1260  C     0.49750   0.86511   0.58143   0.00000  Uiso   1.00
C1261  C     0.44907   0.84789   0.56870   0.00000  Uiso   1.00
C1262  C     0.41139   0.85083   0.59992   0.00000  Uiso   1.00
C1263  C     0.42219   0.87103   0.64378   0.00000  Uiso   1.00
H1264  H     0.54607   0.89853   0.63442   0.00000  Uiso   1.00
H1265  H     0.52751   0.86139   0.55867   0.00000  Uiso   1.00
H1266  H     0.44095   0.83162   0.53511   0.00000  Uiso   1.00
H1267  H     0.37407   0.83711   0.59036   0.00000  Uiso   1.00
H1268  H     0.39302   0.87275   0.66813   0.00000  Uiso   1.00
H1269  H     0.45824   0.61687   0.67893   0.00000  Uiso   1.00
H1270  H     0.49555   0.88606   0.82488   0.00000  Uiso   1.00
H1271  H     0.44874   0.53818   0.67727   0.00000  Uiso   1.00
H1272  H     0.48688   0.96429   0.82518   0.00000  Uiso   1.00
H1273  H     0.57069   0.78264   0.62939   0.00000  Uiso   1.00
H1274  H     0.46373   0.68842   0.87539   0.00000  Uiso   1.00
H1275  H     0.43236   0.71370   0.62099   0.00000  Uiso   1.00
H1276  H     0.53757   0.81091   0.87512   0.00000  Uiso   1.00
C1277  C     0.42164   0.69993   0.52992   0.00000  Uiso   1.00
C1278  C     0.37762   0.71797   0.50436   0.00000  Uiso   1.00
C1279  C     0.33915   0.69014   0.98596   0.00000  Uiso   1.00
C1280  C     0.34497   0.64435   0.99275   0.00000  Uiso   1.00
C1281  C     0.38865   0.62643   0.51870   0.00000  Uiso   1.00
C1282  C     0.42671   0.65413   0.53780   0.00000  Uiso   1.00
H1283  H     0.37270   0.75328   0.99982   0.00000  Uiso   1.00
H1284  H     0.63803   0.70449   0.96742   0.00000  Uiso   1.00
H1285  H     0.64927   0.62221   0.97860   0.00000  Uiso   1.00
H1286  H     0.39281   0.59113   0.52430   0.00000  Uiso   1.00
H1287  H     0.46038   0.64002   0.55841   0.00000  Uiso   1.00
C1288  C     0.53997   0.82780   0.96513   0.00000  Uiso   1.00
C1289  C     0.50693   0.86416   0.96241   0.00000  Uiso   1.00
C1290  C     0.52598   0.90610   0.97202   0.00000  Uiso   1.00
C1291  C     0.57817   0.91201   0.98414   0.00000  Uiso   1.00
C1292  C     0.61149   0.87617   0.98568   0.00000  Uiso   1.00
C1293  C     0.59263   0.83440   0.97517   0.00000  Uiso   1.00
H1294  H     0.46663   0.86009   0.95209   0.00000  Uiso   1.00
H1295  H     0.50028   0.93398   0.97008   0.00000  Uiso   1.00
H1296  H     0.59285   0.94443   0.99178   0.00000  Uiso   1.00
H1297  H     0.65202   0.88090   0.99407   0.00000  Uiso   1.00
H1298  H     0.61899   0.80725   0.97432   0.00000  Uiso   1.00
C1299  C     0.83273   0.66495   0.75086   0.00000  Uiso   1.00
C1300  C     0.83043   0.83495   0.74880   0.00000  Uiso   1.00
C1301  C     0.87415   0.76662   0.55753   0.00000  Uiso   1.00
C1302  C     0.81525   0.71459   0.94542   0.00000  Uiso   1.00
C1303  C     0.87292   0.76768   0.60771   0.00000  Uiso   1.00
C1304  C     0.81318   0.71583   0.89498   0.00000  Uiso   1.00
C1305  C     0.79521   0.72988   0.60273   0.00000  Uiso   1.00
C1306  C     0.85442   0.78416   0.89504   0.00000  Uiso   1.00
C1307  C     0.79450   0.72809   0.55242   0.00000  Uiso   1.00
C1308  C     0.85441   0.78607   0.94541   0.00000  Uiso   1.00
C1309  C     0.83369   0.74862   0.52765   0.00000  Uiso   1.00
C1310  C     0.83442   0.75017   0.97263   0.00000  Uiso   1.00
C1311  C     0.73504   0.74874   0.73826   0.00000  Uiso   1.00
C1312  C     0.93166   0.75101   0.76174   0.00000  Uiso   1.00
C1313  C     0.68087   0.74170   0.73351   0.00000  Uiso   1.00
C1314  C     0.98589   0.75766   0.76655   0.00000  Uiso   1.00
C1315  C     0.84629   0.54386   0.78934   0.00000  Uiso   1.00
C1316  C     0.81642   0.95440   0.70361   0.00000  Uiso   1.00
C1317  C     0.84781   0.58940   0.79244   0.00000  Uiso   1.00
C1318  C     0.81596   0.90857   0.70302   0.00000  Uiso   1.00
C1319  C     0.82983   0.61659   0.75172   0.00000  Uiso   1.00
C1320  C     0.82415   0.88317   0.74688   0.00000  Uiso   1.00
C1321  C     0.80717   0.59694   0.71022   0.00000  Uiso   1.00
C1322  C     0.82530   0.90444   0.79048   0.00000  Uiso   1.00
C1323  C     0.80226   0.55150   0.70904   0.00000  Uiso   1.00
C1324  C     0.82136   0.94980   0.79068   0.00000  Uiso   1.00
C1325  C     0.82258   0.52425   0.74841   0.00000  Uiso   1.00
C1326  C     0.81973   0.97562   0.74743   0.00000  Uiso   1.00
Cu1327 Cu    0.83333   0.74999   0.79821   0.00000  Uiso   1.00
Cu1328 Cu    0.83333   0.75000   0.70178   0.00000  Uiso   1.00
H1329  H     0.90775   0.77881   0.54290   0.00000  Uiso   1.00
H1330  H     0.80353   0.68446   0.96235   0.00000  Uiso   1.00
N1331  N     0.83333   0.75001   0.62934   0.00000  Uiso   1.00
N1332  N     0.83333   0.74999   0.87065   0.00000  Uiso   1.00
O1333  O     0.83334   0.68572   0.79071   0.00000  Uiso   1.00
O1334  O     0.83333   0.81427   0.70928   0.00000  Uiso   1.00
O1335  O     0.83334   0.68573   0.70928   0.00000  Uiso   1.00
O1336  O     0.83333   0.81427   0.79072   0.00000  Uiso   1.00
O1337  O     0.75828   0.74999   0.78132   0.00000  Uiso   1.00
O1338  O     0.90839   0.75000   0.71868   0.00000  Uiso   1.00
O1339  O     0.75828   0.75000   0.69988   0.00000  Uiso   1.00
O1340  O     0.90839   0.75000   0.80011   0.00000  Uiso   1.00
C1341  C     0.99386   0.71109   0.69601   0.00000  Uiso   1.00
C1342  C     0.99194   0.72385   0.64684   0.00000  Uiso   1.00
C1343  C     0.97166   0.69548   0.61185   0.00000  Uiso   1.00
C1344  C     0.95345   0.65419   0.62558   0.00000  Uiso   1.00
C1345  C     0.95568   0.64108   0.67442   0.00000  Uiso   1.00
C1346  C     0.97600   0.66931   0.70957   0.00000  Uiso   1.00
H1347  H     0.67193   0.75601   0.63568   0.00000  Uiso   1.00
H1348  H     0.96934   0.70582   0.57413   0.00000  Uiso   1.00
H1349  H     0.93750   0.63243   0.59836   0.00000  Uiso   1.00
H1350  H     0.94153   0.60910   0.68507   0.00000  Uiso   1.00
H1351  H     0.97759   0.65883   0.74729   0.00000  Uiso   1.00
C1352  C     0.67269   0.78905   0.80324   0.00000  Uiso   1.00
C1353  C     0.68730   0.83156   0.78856   0.00000  Uiso   1.00
C1354  C     0.70539   0.86138   0.82287   0.00000  Uiso   1.00
C1355  C     0.70908   0.84899   0.87196   0.00000  Uiso   1.00
C1356  C     0.69492   0.80667   0.88683   0.00000  Uiso   1.00
C1357  C     0.67660   0.77675   0.85265   0.00000  Uiso   1.00
H1358  H     0.68445   0.84156   0.75060   0.00000  Uiso   1.00
H1359  H     0.71632   0.89416   0.81142   0.00000  Uiso   1.00
H1360  H     0.72266   0.87227   0.89845   0.00000  Uiso   1.00
H1361  H     0.69799   0.79717   0.92483   0.00000  Uiso   1.00
H1362  H     0.99903   0.74407   0.86459   0.00000  Uiso   1.00
H1363  H     0.86387   0.52398   0.81975   0.00000  Uiso   1.00
H1364  H     0.81415   0.97305   0.66949   0.00000  Uiso   1.00
C1365  C     0.86509   0.60636   0.83992   0.00000  Uiso   1.00
C1366  C     0.90770   0.63368   0.84629   0.00000  Uiso   1.00
C1367  C     0.92150   0.65104   0.89109   0.00000  Uiso   1.00
C1368  C     0.89406   0.63980   0.93013   0.00000  Uiso   1.00
C1369  C     0.85329   0.61077   0.92458   0.00000  Uiso   1.00
C1370  C     0.83851   0.59433   0.87951   0.00000  Uiso   1.00
H1371  H     0.92906   0.64258   0.81631   0.00000  Uiso   1.00
H1372  H     0.95316   0.67347   0.89499   0.00000  Uiso   1.00
H1373  H     0.90338   0.65412   0.96465   0.00000  Uiso   1.00
H1374  H     0.83224   0.60206   0.95483   0.00000  Uiso   1.00
H1375  H     0.80585   0.57280   0.87522   0.00000  Uiso   1.00
C1376  C     0.80409   0.88855   0.65627   0.00000  Uiso   1.00
C1377  C     0.84160   0.88575   0.62480   0.00000  Uiso   1.00
C1378  C     0.83084   0.86511   0.58143   0.00000  Uiso   1.00
C1379  C     0.78240   0.84789   0.56870   0.00000  Uiso   1.00
C1380  C     0.74473   0.85083   0.59992   0.00000  Uiso   1.00
C1381  C     0.75552   0.87103   0.64378   0.00000  Uiso   1.00
H1382  H     0.87941   0.89853   0.63442   0.00000  Uiso   1.00
H1383  H     0.86084   0.86139   0.55867   0.00000  Uiso   1.00
H1384  H     0.77428   0.83162   0.53511   0.00000  Uiso   1.00
H1385  H     0.70740   0.83711   0.59036   0.00000  Uiso   1.00
H1386  H     0.72636   0.87275   0.66813   0.00000  Uiso   1.00
H1387  H     0.79157   0.61687   0.67893   0.00000  Uiso   1.00
H1388  H     0.82888   0.88606   0.82488   0.00000  Uiso   1.00
H1389  H     0.78208   0.53818   0.67727   0.00000  Uiso   1.00
H1390  H     0.82021   0.96429   0.82518   0.00000  Uiso   1.00
H1391  H     0.90402   0.78264   0.62939   0.00000  Uiso   1.00
H1392  H     0.79707   0.68842   0.87539   0.00000  Uiso   1.00
H1393  H     0.76569   0.71370   0.62099   0.00000  Uiso   1.00
H1394  H     0.87090   0.81091   0.87512   0.00000  Uiso   1.00
C1395  C     0.75498   0.69993   0.52992   0.00000  Uiso   1.00
C1396  C     0.71095   0.71797   0.50436   0.00000  Uiso   1.00
C1397  C     0.67248   0.69014   0.98596   0.00000  Uiso   1.00
C1398  C     0.67830   0.64435   0.99275   0.00000  Uiso   1.00
C1399  C     0.72198   0.62643   0.51870   0.00000  Uiso   1.00
C1400  C     0.76005   0.65413   0.53780   0.00000  Uiso   1.00
H1401  H     0.70603   0.75328   0.99982   0.00000  Uiso   1.00
H1402  H     0.97136   0.70449   0.96742   0.00000  Uiso   1.00
H1403  H     0.98260   0.62221   0.97860   0.00000  Uiso   1.00
H1404  H     0.72614   0.59113   0.52430   0.00000  Uiso   1.00
H1405  H     0.79371   0.64002   0.55841   0.00000  Uiso   1.00
C1406  C     0.87331   0.82780   0.96513   0.00000  Uiso   1.00
C1407  C     0.84026   0.86416   0.96241   0.00000  Uiso   1.00
C1408  C     0.85931   0.90610   0.97202   0.00000  Uiso   1.00
C1409  C     0.91151   0.91201   0.98414   0.00000  Uiso   1.00
C1410  C     0.94483   0.87617   0.98568   0.00000  Uiso   1.00
C1411  C     0.92596   0.83440   0.97517   0.00000  Uiso   1.00
H1412  H     0.79996   0.86009   0.95209   0.00000  Uiso   1.00
H1413  H     0.83362   0.93398   0.97008   0.00000  Uiso   1.00
H1414  H     0.92618   0.94443   0.99178   0.00000  Uiso   1.00
H1415  H     0.98536   0.88090   0.99407   0.00000  Uiso   1.00
H1416  H     0.95233   0.80725   0.97432   0.00000  Uiso   1.00
loop_
_geom_bond_atom_site_label_1
_geom_bond_atom_site_label_2
_geom_bond_distance
_geom_bond_site_symmetry_2
_ccdc_geom_bond_type
C1     C21     1.473   .     S
C1     O37     1.297   .     A
C1     O35     1.304   .     A
C2     C22     1.475   .     S
C2     O38     1.297   .     A
C2     O36     1.304   .     A
C3     H31     1.075   .     S
C3     C5      1.406   .     A
C3     C11     1.411   .     A
C4     C12     1.414   .     A
C4     C6      1.402   .     A
C4     H32     1.072   .     S
C5     N33     1.361   .     A
C5     H93     1.081   .     S
C6     H94     1.081   .     S
C6     N34     1.355   .     A
C7     N33     1.351   .     A
C7     C9      1.406   .     A
C7     H95     1.083   .     S
C8     H96     1.082   .     S
C8     N34     1.357   .     A
C8     C10     1.410   .     A
C9     C11     1.433   .     A
C9     C97     1.459   .     S
C10    C108    1.474   .     S
C10    C12     1.435   .     A
C11    C720    1.536   1_554 S
C12    C719    1.536   .     S
C13    O41     1.289   .     A
C13    C15     1.440   .     S
C13    O39     1.292   .     A
C14    O42     1.290   .     A
C14    C16     1.440   .     S
C14    O40     1.292   .     A
C15    C252    1.354   1_455 S
C15    C279    1.491   1_455 S
C16    C133    1.354   .     S
C16    C172    1.490   .     S
C17    C27     1.402   .     A
C17    H65     1.082   .     S
C17    C19     1.393   .     A
C18    C20     1.396   .     A
C18    C28     1.404   .     A
C18    H66     1.082   .     S
C19    C21     1.414   .     A
C19    C67     1.472   .     S
C20    C22     1.414   .     A
C20    C78     1.469   .     S
C21    C23     1.405   .     A
C22    C24     1.402   .     A
C23    H89     1.084   .     S
C23    C25     1.390   .     A
C24    C26     1.385   .     A
C24    H90     1.083   .     S
C25    H91     1.081   .     S
C25    C27     1.405   .     A
C26    H92     1.081   .     S
C26    C28     1.406   .     A
C27    C382    1.483   1_545 S
C28    C381    1.483   .     S
Cu29   O42     1.978   .     S
Cu29   Cu30    2.691   .     S
Cu29   O38     1.958   .     S
Cu29   O39     1.989   .     S
Cu29   O35     1.977   .     S
Cu29   N34     2.022   .     S
Cu30   O41     1.978   .     S
Cu30   O37     1.958   .     S
Cu30   O40     1.989   .     S
Cu30   N33     2.022   .     S
Cu30   O36     1.977   .     S
C43    C48     1.406   .     A
C43    C44     1.404   .     A
C43    C133    1.491   .     S
C44    C45     1.398   .     A
C44    H167    1.083   .     S
C45    C46     1.397   .     A
C45    H50     1.080   .     S
C46    C47     1.398   .     A
C46    H51     1.082   .     S
C47    C48     1.398   .     A
C47    H52     1.082   .     S
C48    H53     1.082   .     S
H49    C280    1.083   1_455 S
C54    C59     1.405   .     A
C54    C55     1.405   .     A
C54    C252    1.490   1_455 S
C55    C56     1.398   .     A
C55    H60     1.083   .     S
C56    C57     1.397   .     A
C56    H61     1.082   .     S
C57    H62     1.082   .     S
C57    C58     1.398   .     A
C58    H63     1.081   .     S
C58    C59     1.399   .     A
C59    H300    1.083   1_455 S
H64    C177    1.083   .     S
C67    C72     1.406   .     A
C67    C68     1.400   .     A
C68    C69     1.393   .     A
C68    H73     1.082   .     S
C69    H74     1.079   .     S
C69    C70     1.401   .     A
C70    C71     1.394   .     A
C70    H75     1.080   .     S
C71    C72     1.392   .     A
C71    H76     1.083   .     S
C72    H77     1.083   .     S
C78    C83     1.405   .     A
C78    C79     1.398   .     A
C79    H84     1.083   .     S
C79    C80     1.392   .     A
C80    H85     1.077   .     S
C80    C81     1.400   .     A
C81    H86     1.082   .     S
C81    C82     1.397   .     A
C82    H87     1.083   .     S
C82    C83     1.398   .     A
C83    H88     1.083   .     S
C97    C98     1.396   .     A
C97    C102    1.405   .     A
C98    C807    1.394   1_554 S
C98    H811    1.082   1_554 S
C99    C100    1.404   .     A
C99    C806    1.394   .     S
C99    H340    1.080   1_455 S
C100   C809    1.392   .     S
C100   H341    1.076   1_455 S
C101   C102    1.391   .     A
C101   H106    1.082   .     S
C101   C808    1.392   1_554 S
C102   H107    1.084   .     S
H103   C806    1.082   .     S
H104   C217    1.080   .     S
H105   C218    1.076   .     S
C108   C109    1.404   .     A
C108   C113    1.406   .     A
C109   H114    1.082   .     S
C109   C110    1.399   .     A
C110   C111    1.398   .     A
C110   H115    1.082   .     S
C111   C112    1.398   .     A
C111   H116    1.082   .     S
C112   H117    1.083   .     S
C112   C113    1.398   .     A
C113   H118    1.083   .     S
C119   C139    1.473   .     S
C119   O155    1.297   .     A
C119   O153    1.304   .     A
C120   C140    1.475   .     S
C120   O156    1.297   .     A
C120   O154    1.304   .     A
C121   H149    1.075   .     S
C121   C123    1.406   .     A
C121   C129    1.411   .     A
C122   C130    1.414   .     A
C122   C124    1.402   .     A
C122   H150    1.072   .     S
C123   N151    1.361   .     A
C123   H211    1.081   .     S
C124   H212    1.081   .     S
C124   N152    1.355   .     A
C125   N151    1.351   .     A
C125   C127    1.406   .     A
C125   H213    1.083   .     S
C126   H214    1.082   .     S
C126   N152    1.357   .     A
C126   C128    1.410   .     A
C127   C129    1.433   .     A
C127   C215    1.459   .     S
C128   C226    1.474   .     S
C128   C130    1.435   .     A
C129   C838    1.536   1_554 S
C130   C837    1.536   .     S
C131   O159    1.289   .     A
C131   C133    1.440   .     S
C131   O157    1.292   .     A
C132   O160    1.290   .     A
C132   C134    1.440   .     S
C132   O158    1.292   .     A
C134   C251    1.354   .     S
C134   C290    1.490   .     S
C135   C145    1.402   .     A
C135   H183    1.082   .     S
C135   C137    1.393   .     A
C136   C138    1.396   .     A
C136   C146    1.404   .     A
C136   H184    1.082   .     S
C137   C139    1.414   .     A
C137   C185    1.472   .     S
C138   C140    1.414   .     A
C138   C196    1.469   .     S
C139   C141    1.405   .     A
C140   C142    1.402   .     A
C141   H207    1.084   .     S
C141   C143    1.390   .     A
C142   C144    1.385   .     A
C142   H208    1.083   .     S
C143   H209    1.081   .     S
C143   C145    1.405   .     A
C144   H210    1.081   .     S
C144   C146    1.406   .     A
C145   C500    1.483   1_545 S
C146   C499    1.483   .     S
Cu147  O160    1.978   .     S
Cu147  Cu148   2.691   .     S
Cu147  O156    1.958   .     S
Cu147  O157    1.989   .     S
Cu147  O153    1.977   .     S
Cu147  N152    2.022   .     S
Cu148  O159    1.978   .     S
Cu148  O155    1.958   .     S
Cu148  O158    1.989   .     S
Cu148  N151    2.022   .     S
Cu148  O154    1.977   .     S
C161   C166    1.406   .     A
C161   C162    1.404   .     A
C161   C251    1.491   .     S
C162   C163    1.398   .     A
C162   H285    1.083   .     S
C163   C164    1.397   .     A
C163   H168    1.080   .     S
C164   C165    1.398   .     A
C164   H169    1.082   .     S
C165   C166    1.398   .     A
C165   H170    1.082   .     S
C166   H171    1.082   .     S
C172   C177    1.405   .     A
C172   C173    1.405   .     A
C173   C174    1.398   .     A
C173   H178    1.083   .     S
C174   C175    1.397   .     A
C174   H179    1.082   .     S
C175   H180    1.082   .     S
C175   C176    1.398   .     A
C176   H181    1.081   .     S
C176   C177    1.399   .     A
H182   C295    1.083   .     S
C185   C190    1.406   .     A
C185   C186    1.400   .     A
C186   C187    1.393   .     A
C186   H191    1.082   .     S
C187   H192    1.079   .     S
C187   C188    1.401   .     A
C188   C189    1.394   .     A
C188   H193    1.080   .     S
C189   C190    1.392   .     A
C189   H194    1.083   .     S
C190   H195    1.083   .     S
C196   C201    1.405   .     A
C196   C197    1.398   .     A
C197   H202    1.083   .     S
C197   C198    1.392   .     A
C198   H203    1.077   .     S
C198   C199    1.400   .     A
C199   H204    1.082   .     S
C199   C200    1.397   .     A
C200   H205    1.083   .     S
C200   C201    1.398   .     A
C201   H206    1.083   .     S
C215   C216    1.396   .     A
C215   C220    1.405   .     A
C216   C925    1.394   1_554 S
C216   H929    1.082   1_554 S
C217   C218    1.404   .     A
C217   C924    1.394   .     S
C218   C927    1.392   .     S
C219   C220    1.391   .     A
C219   H224    1.082   .     S
C219   C926    1.392   1_554 S
C220   H225    1.084   .     S
H221   C924    1.082   .     S
H222   C335    1.080   .     S
H223   C336    1.076   .     S
C226   C227    1.404   .     A
C226   C231    1.406   .     A
C227   H232    1.082   .     S
C227   C228    1.399   .     A
C228   C229    1.398   .     A
C228   H233    1.082   .     S
C229   C230    1.398   .     A
C229   H234    1.082   .     S
C230   H235    1.083   .     S
C230   C231    1.398   .     A
C231   H236    1.083   .     S
C237   C257    1.473   .     S
C237   O273    1.297   .     A
C237   O271    1.304   .     A
C238   C258    1.475   .     S
C238   O274    1.297   .     A
C238   O272    1.304   .     A
C239   H267    1.075   .     S
C239   C241    1.406   .     A
C239   C247    1.411   .     A
C240   C248    1.414   .     A
C240   C242    1.402   .     A
C240   H268    1.072   .     S
C241   N269    1.361   .     A
C241   H329    1.081   .     S
C242   H330    1.081   .     S
C242   N270    1.355   .     A
C243   N269    1.351   .     A
C243   C245    1.406   .     A
C243   H331    1.083   .     S
C244   H332    1.082   .     S
C244   N270    1.357   .     A
C244   C246    1.410   .     A
C245   C247    1.433   .     A
C245   C333    1.459   .     S
C246   C344    1.474   .     S
C246   C248    1.435   .     A
C247   C956    1.536   1_554 S
C248   C955    1.536   .     S
C249   O277    1.289   .     A
C249   C251    1.440   .     S
C249   O275    1.292   .     A
C250   O278    1.290   .     A
C250   C252    1.440   .     S
C250   O276    1.292   .     A
C252   C15     1.354   1_655 S
C252   C54     1.490   1_655 S
C253   C263    1.402   .     A
C253   H301    1.082   .     S
C253   C255    1.393   .     A
C254   C256    1.396   .     A
C254   C264    1.404   .     A
C254   H302    1.082   .     S
C255   C257    1.414   .     A
C255   C303    1.472   .     S
C256   C258    1.414   .     A
C256   C314    1.469   .     S
C257   C259    1.405   .     A
C258   C260    1.402   .     A
C259   H325    1.084   .     S
C259   C261    1.390   .     A
C260   C262    1.385   .     A
C260   H326    1.083   .     S
C261   H327    1.081   .     S
C261   C263    1.405   .     A
C262   H328    1.081   .     S
C262   C264    1.406   .     A
C263   C618    1.483   1_545 S
C264   C617    1.483   .     S
Cu265  O278    1.978   .     S
Cu265  Cu266   2.691   .     S
Cu265  O274    1.958   .     S
Cu265  O275    1.989   .     S
Cu265  O271    1.977   .     S
Cu265  N270    2.022   .     S
Cu266  O277    1.978   .     S
Cu266  O273    1.958   .     S
Cu266  O276    1.989   .     S
Cu266  N269    2.022   .     S
Cu266  O272    1.977   .     S
C279   C284    1.406   .     A
C279   C280    1.404   .     A
C279   C15     1.491   1_655 S
C280   C281    1.398   .     A
C280   H49     1.083   1_655 S
C281   C282    1.397   .     A
C281   H286    1.080   .     S
C282   C283    1.398   .     A
C282   H287    1.082   .     S
C283   C284    1.398   .     A
C283   H288    1.082   .     S
C284   H289    1.082   .     S
C290   C295    1.405   .     A
C290   C291    1.405   .     A
C291   C292    1.398   .     A
C291   H296    1.083   .     S
C292   C293    1.397   .     A
C292   H297    1.082   .     S
C293   H298    1.082   .     S
C293   C294    1.398   .     A
C294   H299    1.081   .     S
C294   C295    1.399   .     A
H300   C59     1.083   1_655 S
C303   C308    1.406   .     A
C303   C304    1.400   .     A
C304   C305    1.393   .     A
C304   H309    1.082   .     S
C305   H310    1.079   .     S
C305   C306    1.401   .     A
C306   C307    1.394   .     A
C306   H311    1.080   .     S
C307   C308    1.392   .     A
C307   H312    1.083   .     S
C308   H313    1.083   .     S
C314   C319    1.405   .     A
C314   C315    1.398   .     A
C315   H320    1.083   .     S
C315   C316    1.392   .     A
C316   H321    1.077   .     S
C316   C317    1.400   .     A
C317   H322    1.082   .     S
C317   C318    1.397   .     A
C318   H323    1.083   .     S
C318   C319    1.398   .     A
C319   H324    1.083   .     S
C333   C334    1.396   .     A
C333   C338    1.405   .     A
C334   C1043   1.394   1_554 S
C334   H1047   1.082   1_554 S
C335   C336    1.404   .     A
C335   C1042   1.394   .     S
C336   C1045   1.392   .     S
C337   C338    1.391   .     A
C337   H342    1.082   .     S
C337   C1044   1.392   1_554 S
C338   H343    1.084   .     S
H339   C1042   1.082   .     S
H340   C99     1.080   1_655 S
H341   C100    1.076   1_655 S
C344   C345    1.404   .     A
C344   C349    1.406   .     A
C345   H350    1.082   .     S
C345   C346    1.399   .     A
C346   C347    1.398   .     A
C346   H351    1.082   .     S
C347   C348    1.398   .     A
C347   H352    1.082   .     S
C348   H353    1.083   .     S
C348   C349    1.398   .     A
C349   H354    1.083   .     S
C355   C375    1.473   .     S
C355   O391    1.297   .     A
C355   O389    1.304   .     A
C356   C376    1.475   .     S
C356   O392    1.297   .     A
C356   O390    1.304   .     A
C357   H385    1.075   .     S
C357   C359    1.406   .     A
C357   C365    1.411   .     A
C358   C366    1.414   .     A
C358   C360    1.402   .     A
C358   H386    1.072   .     S
C359   N387    1.361   .     A
C359   H447    1.081   .     S
C360   H448    1.081   .     S
C360   N388    1.355   .     A
C361   N387    1.351   .     A
C361   C363    1.406   .     A
C361   H449    1.083   .     S
C362   H450    1.082   .     S
C362   N388    1.357   .     A
C362   C364    1.410   .     A
C363   C365    1.433   .     A
C363   C451    1.459   .     S
C364   C462    1.474   .     S
C364   C366    1.435   .     A
C365   C1074   1.536   1_554 S
C366   C1073   1.536   .     S
C367   O395    1.289   .     A
C367   C369    1.440   .     S
C367   O393    1.292   .     A
C368   O396    1.290   .     A
C368   C370    1.440   .     S
C368   O394    1.292   .     A
C369   C606    1.354   1_455 S
C369   C633    1.491   1_455 S
C370   C487    1.354   .     S
C370   C526    1.490   .     S
C371   C381    1.402   .     A
C371   H419    1.082   .     S
C371   C373    1.393   .     A
C372   C374    1.396   .     A
C372   C382    1.404   .     A
C372   H420    1.082   .     S
C373   C375    1.414   .     A
C373   C421    1.472   .     S
C374   C376    1.414   .     A
C374   C432    1.469   .     S
C375   C377    1.405   .     A
C376   C378    1.402   .     A
C377   H443    1.084   .     S
C377   C379    1.390   .     A
C378   C380    1.385   .     A
C378   H444    1.083   .     S
C379   H445    1.081   .     S
C379   C381    1.405   .     A
C380   H446    1.081   .     S
C380   C382    1.406   .     A
C382   C27     1.483   1_565 S
Cu383  O396    1.978   .     S
Cu383  Cu384   2.691   .     S
Cu383  O392    1.958   .     S
Cu383  O393    1.989   .     S
Cu383  O389    1.977   .     S
Cu383  N388    2.022   .     S
Cu384  O395    1.978   .     S
Cu384  O391    1.958   .     S
Cu384  O394    1.989   .     S
Cu384  N387    2.022   .     S
Cu384  O390    1.977   .     S
C397   C402    1.406   .     A
C397   C398    1.404   .     A
C397   C487    1.491   .     S
C398   C399    1.398   .     A
C398   H521    1.083   .     S
C399   C400    1.397   .     A
C399   H404    1.080   .     S
C400   C401    1.398   .     A
C400   H405    1.082   .     S
C401   C402    1.398   .     A
C401   H406    1.082   .     S
C402   H407    1.082   .     S
H403   C634    1.083   1_455 S
C408   C413    1.405   .     A
C408   C409    1.405   .     A
C408   C606    1.490   1_455 S
C409   C410    1.398   .     A
C409   H414    1.083   .     S
C410   C411    1.397   .     A
C410   H415    1.082   .     S
C411   H416    1.082   .     S
C411   C412    1.398   .     A
C412   H417    1.081   .     S
C412   C413    1.399   .     A
C413   H654    1.083   1_455 S
H418   C531    1.083   .     S
C421   C426    1.406   .     A
C421   C422    1.400   .     A
C422   C423    1.393   .     A
C422   H427    1.082   .     S
C423   H428    1.079   .     S
C423   C424    1.401   .     A
C424   C425    1.394   .     A
C424   H429    1.080   .     S
C425   C426    1.392   .     A
C425   H430    1.083   .     S
C426   H431    1.083   .     S
C432   C437    1.405   .     A
C432   C433    1.398   .     A
C433   H438    1.083   .     S
C433   C434    1.392   .     A
C434   H439    1.077   .     S
C434   C435    1.400   .     A
C435   H440    1.082   .     S
C435   C436    1.397   .     A
C436   H441    1.083   .     S
C436   C437    1.398   .     A
C437   H442    1.083   .     S
C451   C452    1.396   .     A
C451   C456    1.405   .     A
C452   C1161   1.394   1_554 S
C452   H1165   1.082   1_554 S
C453   C454    1.404   .     A
C453   C1160   1.394   .     S
C453   H694    1.080   1_455 S
C454   C1163   1.392   .     S
C454   H695    1.076   1_455 S
C455   C456    1.391   .     A
C455   H460    1.082   .     S
C455   C1162   1.392   1_554 S
C456   H461    1.084   .     S
H457   C1160   1.082   .     S
H458   C571    1.080   .     S
H459   C572    1.076   .     S
C462   C463    1.404   .     A
C462   C467    1.406   .     A
C463   H468    1.082   .     S
C463   C464    1.399   .     A
C464   C465    1.398   .     A
C464   H469    1.082   .     S
C465   C466    1.398   .     A
C465   H470    1.082   .     S
C466   H471    1.083   .     S
C466   C467    1.398   .     A
C467   H472    1.083   .     S
C473   C493    1.473   .     S
C473   O509    1.297   .     A
C473   O507    1.304   .     A
C474   C494    1.475   .     S
C474   O510    1.297   .     A
C474   O508    1.304   .     A
C475   H503    1.075   .     S
C475   C477    1.406   .     A
C475   C483    1.411   .     A
C476   C484    1.414   .     A
C476   C478    1.402   .     A
C476   H504    1.072   .     S
C477   N505    1.361   .     A
C477   H565    1.081   .     S
C478   H566    1.081   .     S
C478   N506    1.355   .     A
C479   N505    1.351   .     A
C479   C481    1.406   .     A
C479   H567    1.083   .     S
C480   H568    1.082   .     S
C480   N506    1.357   .     A
C480   C482    1.410   .     A
C481   C483    1.433   .     A
C481   C569    1.459   .     S
C482   C580    1.474   .     S
C482   C484    1.435   .     A
C483   C1192   1.536   1_554 S
C484   C1191   1.536   .     S
C485   O513    1.289   .     A
C485   C487    1.440   .     S
C485   O511    1.292   .     A
C486   O514    1.290   .     A
C486   C488    1.440   .     S
C486   O512    1.292   .     A
C488   C605    1.354   .     S
C488   C644    1.490   .     S
C489   C499    1.402   .     A
C489   H537    1.082   .     S
C489   C491    1.393   .     A
C490   C492    1.396   .     A
C490   C500    1.404   .     A
C490   H538    1.082   .     S
C491   C493    1.414   .     A
C491   C539    1.472   .     S
C492   C494    1.414   .     A
C492   C550    1.469   .     S
C493   C495    1.405   .     A
C494   C496    1.402   .     A
C495   H561    1.084   .     S
C495   C497    1.390   .     A
C496   C498    1.385   .     A
C496   H562    1.083   .     S
C497   H563    1.081   .     S
C497   C499    1.405   .     A
C498   H564    1.081   .     S
C498   C500    1.406   .     A
C500   C145    1.483   1_565 S
Cu501  O514    1.978   .     S
Cu501  Cu502   2.691   .     S
Cu501  O510    1.958   .     S
Cu501  O511    1.989   .     S
Cu501  O507    1.977   .     S
Cu501  N506    2.022   .     S
Cu502  O513    1.978   .     S
Cu502  O509    1.958   .     S
Cu502  O512    1.989   .     S
Cu502  N505    2.022   .     S
Cu502  O508    1.977   .     S
C515   C520    1.406   .     A
C515   C516    1.404   .     A
C515   C605    1.491   .     S
C516   C517    1.398   .     A
C516   H639    1.083   .     S
C517   C518    1.397   .     A
C517   H522    1.080   .     S
C518   C519    1.398   .     A
C518   H523    1.082   .     S
C519   C520    1.398   .     A
C519   H524    1.082   .     S
C520   H525    1.082   .     S
C526   C531    1.405   .     A
C526   C527    1.405   .     A
C527   C528    1.398   .     A
C527   H532    1.083   .     S
C528   C529    1.397   .     A
C528   H533    1.082   .     S
C529   H534    1.082   .     S
C529   C530    1.398   .     A
C530   H535    1.081   .     S
C530   C531    1.399   .     A
H536   C649    1.083   .     S
C539   C544    1.406   .     A
C539   C540    1.400   .     A
C540   C541    1.393   .     A
C540   H545    1.082   .     S
C541   H546    1.079   .     S
C541   C542    1.401   .     A
C542   C543    1.394   .     A
C542   H547    1.080   .     S
C543   C544    1.392   .     A
C543   H548    1.083   .     S
C544   H549    1.083   .     S
C550   C555    1.405   .     A
C550   C551    1.398   .     A
C551   H556    1.083   .     S
C551   C552    1.392   .     A
C552   H557    1.077   .     S
C552   C553    1.400   .     A
C553   H558    1.082   .     S
C553   C554    1.397   .     A
C554   H559    1.083   .     S
C554   C555    1.398   .     A
C555   H560    1.083   .     S
C569   C570    1.396   .     A
C569   C574    1.405   .     A
C570   C1279   1.394   1_554 S
C570   H1283   1.082   1_554 S
C571   C572    1.404   .     A
C571   C1278   1.394   .     S
C572   C1281   1.392   .     S
C573   C574    1.391   .     A
C573   H578    1.082   .     S
C573   C1280   1.392   1_554 S
C574   H579    1.084   .     S
H575   C1278   1.082   .     S
H576   C689    1.080   .     S
H577   C690    1.076   .     S
C580   C581    1.404   .     A
C580   C585    1.406   .     A
C581   H586    1.082   .     S
C581   C582    1.399   .     A
C582   C583    1.398   .     A
C582   H587    1.082   .     S
C583   C584    1.398   .     A
C583   H588    1.082   .     S
C584   H589    1.083   .     S
C584   C585    1.398   .     A
C585   H590    1.083   .     S
C591   C611    1.473   .     S
C591   O627    1.297   .     A
C591   O625    1.304   .     A
C592   C612    1.475   .     S
C592   O628    1.297   .     A
C592   O626    1.304   .     A
C593   H621    1.075   .     S
C593   C595    1.406   .     A
C593   C601    1.411   .     A
C594   C602    1.414   .     A
C594   C596    1.402   .     A
C594   H622    1.072   .     S
C595   N623    1.361   .     A
C595   H683    1.081   .     S
C596   H684    1.081   .     S
C596   N624    1.355   .     A
C597   N623    1.351   .     A
C597   C599    1.406   .     A
C597   H685    1.083   .     S
C598   H686    1.082   .     S
C598   N624    1.357   .     A
C598   C600    1.410   .     A
C599   C601    1.433   .     A
C599   C687    1.459   .     S
C600   C698    1.474   .     S
C600   C602    1.435   .     A
C601   C1310   1.536   1_554 S
C602   C1309   1.536   .     S
C603   O631    1.289   .     A
C603   C605    1.440   .     S
C603   O629    1.292   .     A
C604   O632    1.290   .     A
C604   C606    1.440   .     S
C604   O630    1.292   .     A
C606   C369    1.354   1_655 S
C606   C408    1.490   1_655 S
C607   C617    1.402   .     A
C607   H655    1.082   .     S
C607   C609    1.393   .     A
C608   C610    1.396   .     A
C608   C618    1.404   .     A
C608   H656    1.082   .     S
C609   C611    1.414   .     A
C609   C657    1.472   .     S
C610   C612    1.414   .     A
C610   C668    1.469   .     S
C611   C613    1.405   .     A
C612   C614    1.402   .     A
C613   H679    1.084   .     S
C613   C615    1.390   .     A
C614   C616    1.385   .     A
C614   H680    1.083   .     S
C615   H681    1.081   .     S
C615   C617    1.405   .     A
C616   H682    1.081   .     S
C616   C618    1.406   .     A
C618   C263    1.483   1_565 S
Cu619  O632    1.978   .     S
Cu619  Cu620   2.691   .     S
Cu619  O628    1.958   .     S
Cu619  O629    1.989   .     S
Cu619  O625    1.977   .     S
Cu619  N624    2.022   .     S
Cu620  O631    1.978   .     S
Cu620  O627    1.958   .     S
Cu620  O630    1.989   .     S
Cu620  N623    2.022   .     S
Cu620  O626    1.977   .     S
C633   C638    1.406   .     A
C633   C634    1.404   .     A
C633   C369    1.491   1_655 S
C634   C635    1.398   .     A
C634   H403    1.083   1_655 S
C635   C636    1.397   .     A
C635   H640    1.080   .     S
C636   C637    1.398   .     A
C636   H641    1.082   .     S
C637   C638    1.398   .     A
C637   H642    1.082   .     S
C638   H643    1.082   .     S
C644   C649    1.405   .     A
C644   C645    1.405   .     A
C645   C646    1.398   .     A
C645   H650    1.083   .     S
C646   C647    1.397   .     A
C646   H651    1.082   .     S
C647   H652    1.082   .     S
C647   C648    1.398   .     A
C648   H653    1.081   .     S
C648   C649    1.399   .     A
H654   C413    1.083   1_655 S
C657   C662    1.406   .     A
C657   C658    1.400   .     A
C658   C659    1.393   .     A
C658   H663    1.082   .     S
C659   H664    1.079   .     S
C659   C660    1.401   .     A
C660   C661    1.394   .     A
C660   H665    1.080   .     S
C661   C662    1.392   .     A
C661   H666    1.083   .     S
C662   H667    1.083   .     S
C668   C673    1.405   .     A
C668   C669    1.398   .     A
C669   H674    1.083   .     S
C669   C670    1.392   .     A
C670   H675    1.077   .     S
C670   C671    1.400   .     A
C671   H676    1.082   .     S
C671   C672    1.397   .     A
C672   H677    1.083   .     S
C672   C673    1.398   .     A
C673   H678    1.083   .     S
C687   C688    1.396   .     A
C687   C692    1.405   .     A
C688   C1397   1.394   1_554 S
C688   H1401   1.082   1_554 S
C689   C690    1.404   .     A
C689   C1396   1.394   .     S
C690   C1399   1.392   .     S
C691   C692    1.391   .     A
C691   H696    1.082   .     S
C691   C1398   1.392   1_554 S
C692   H697    1.084   .     S
H693   C1396   1.082   .     S
H694   C453    1.080   1_655 S
H695   C454    1.076   1_655 S
C698   C699    1.404   .     A
C698   C703    1.406   .     A
C699   H704    1.082   .     S
C699   C700    1.399   .     A
C700   C701    1.398   .     A
C700   H705    1.082   .     S
C701   C702    1.398   .     A
C701   H706    1.082   .     S
C702   H707    1.083   .     S
C702   C703    1.398   .     A
C703   H708    1.083   .     S
C709   C729    1.473   .     S
C709   O745    1.297   .     A
C709   O743    1.304   .     A
C710   C730    1.475   .     S
C710   O746    1.297   .     A
C710   O744    1.304   .     A
C711   H739    1.075   .     S
C711   C713    1.406   .     A
C711   C719    1.411   .     A
C712   C720    1.414   .     A
C712   C714    1.402   .     A
C712   H740    1.072   .     S
C713   N741    1.361   .     A
C713   H801    1.081   .     S
C714   H802    1.081   .     S
C714   N742    1.355   .     A
C715   N741    1.351   .     A
C715   C717    1.406   .     A
C715   H803    1.083   .     S
C716   H804    1.082   .     S
C716   N742    1.357   .     A
C716   C718    1.410   .     A
C717   C719    1.433   .     A
C717   C805    1.459   .     S
C718   C816    1.474   .     S
C718   C720    1.435   .     A
C720   C11     1.536   1_556 S
C721   O749    1.289   .     A
C721   C723    1.440   .     S
C721   O747    1.292   .     A
C722   O750    1.290   .     A
C722   C724    1.440   .     S
C722   O748    1.292   .     A
C723   C960    1.354   1_455 S
C723   C987    1.491   1_455 S
C724   C841    1.354   .     S
C724   C880    1.490   .     S
C725   C735    1.402   .     A
C725   H773    1.082   .     S
C725   C727    1.393   .     A
C726   C728    1.396   .     A
C726   C736    1.404   .     A
C726   H774    1.082   .     S
C727   C729    1.414   .     A
C727   C775    1.472   .     S
C728   C730    1.414   .     A
C728   C786    1.469   .     S
C729   C731    1.405   .     A
C730   C732    1.402   .     A
C731   H797    1.084   .     S
C731   C733    1.390   .     A
C732   C734    1.385   .     A
C732   H798    1.083   .     S
C733   H799    1.081   .     S
C733   C735    1.405   .     A
C734   H800    1.081   .     S
C734   C736    1.406   .     A
C735   C1090   1.483   1_545 S
C736   C1089   1.483   .     S
Cu737  O750    1.978   .     S
Cu737  Cu738   2.691   .     S
Cu737  O746    1.958   .     S
Cu737  O747    1.989   .     S
Cu737  O743    1.977   .     S
Cu737  N742    2.022   .     S
Cu738  O749    1.978   .     S
Cu738  O745    1.958   .     S
Cu738  O748    1.989   .     S
Cu738  N741    2.022   .     S
Cu738  O744    1.977   .     S
C751   C756    1.406   .     A
C751   C752    1.404   .     A
C751   C841    1.491   .     S
C752   C753    1.398   .     A
C752   H875    1.083   .     S
C753   C754    1.397   .     A
C753   H758    1.080   .     S
C754   C755    1.398   .     A
C754   H759    1.082   .     S
C755   C756    1.398   .     A
C755   H760    1.082   .     S
C756   H761    1.082   .     S
H757   C988    1.083   1_455 S
C762   C767    1.405   .     A
C762   C763    1.405   .     A
C762   C960    1.490   1_455 S
C763   C764    1.398   .     A
C763   H768    1.083   .     S
C764   C765    1.397   .     A
C764   H769    1.082   .     S
C765   H770    1.082   .     S
C765   C766    1.398   .     A
C766   H771    1.081   .     S
C766   C767    1.399   .     A
C767   H1008   1.083   1_455 S
H772   C885    1.083   .     S
C775   C780    1.406   .     A
C775   C776    1.400   .     A
C776   C777    1.393   .     A
C776   H781    1.082   .     S
C777   H782    1.079   .     S
C777   C778    1.401   .     A
C778   C779    1.394   .     A
C778   H783    1.080   .     S
C779   C780    1.392   .     A
C779   H784    1.083   .     S
C780   H785    1.083   .     S
C786   C791    1.405   .     A
C786   C787    1.398   .     A
C787   H792    1.083   .     S
C787   C788    1.392   .     A
C788   H793    1.077   .     S
C788   C789    1.400   .     A
C789   H794    1.082   .     S
C789   C790    1.397   .     A
C790   H795    1.083   .     S
C790   C791    1.398   .     A
C791   H796    1.083   .     S
C805   C806    1.396   .     A
C805   C810    1.405   .     A
C807   C808    1.404   .     A
C807   C98     1.394   1_556 S
C807   H1048   1.080   1_455 S
C808   C101    1.392   1_556 S
C808   H1049   1.076   1_455 S
C809   C810    1.391   .     A
C809   H814    1.082   .     S
C810   H815    1.084   .     S
H811   C98     1.082   1_556 S
H812   C925    1.080   .     S
H813   C926    1.076   .     S
C816   C817    1.404   .     A
C816   C821    1.406   .     A
C817   H822    1.082   .     S
C817   C818    1.399   .     A
C818   C819    1.398   .     A
C818   H823    1.082   .     S
C819   C820    1.398   .     A
C819   H824    1.082   .     S
C820   H825    1.083   .     S
C820   C821    1.398   .     A
C821   H826    1.083   .     S
C827   C847    1.473   .     S
C827   O863    1.297   .     A
C827   O861    1.304   .     A
C828   C848    1.475   .     S
C828   O864    1.297   .     A
C828   O862    1.304   .     A
C829   H857    1.075   .     S
C829   C831    1.406   .     A
C829   C837    1.411   .     A
C830   C838    1.414   .     A
C830   C832    1.402   .     A
C830   H858    1.072   .     S
C831   N859    1.361   .     A
C831   H919    1.081   .     S
C832   H920    1.081   .     S
C832   N860    1.355   .     A
C833   N859    1.351   .     A
C833   C835    1.406   .     A
C833   H921    1.083   .     S
C834   H922    1.082   .     S
C834   N860    1.357   .     A
C834   C836    1.410   .     A
C835   C837    1.433   .     A
C835   C923    1.459   .     S
C836   C934    1.474   .     S
C836   C838    1.435   .     A
C838   C129    1.536   1_556 S
C839   O867    1.289   .     A
C839   C841    1.440   .     S
C839   O865    1.292   .     A
C840   O868    1.290   .     A
C840   C842    1.440   .     S
C840   O866    1.292   .     A
C842   C959    1.354   .     S
C842   C998    1.490   .     S
C843   C853    1.402   .     A
C843   H891    1.082   .     S
C843   C845    1.393   .     A
C844   C846    1.396   .     A
C844   C854    1.404   .     A
C844   H892    1.082   .     S
C845   C847    1.414   .     A
C845   C893    1.472   .     S
C846   C848    1.414   .     A
C846   C904    1.469   .     S
C847   C849    1.405   .     A
C848   C850    1.402   .     A
C849   H915    1.084   .     S
C849   C851    1.390   .     A
C850   C852    1.385   .     A
C850   H916    1.083   .     S
C851   H917    1.081   .     S
C851   C853    1.405   .     A
C852   H918    1.081   .     S
C852   C854    1.406   .     A
C853   C1208   1.483   1_545 S
C854   C1207   1.483   .     S
Cu855  O868    1.978   .     S
Cu855  Cu856   2.691   .     S
Cu855  O864    1.958   .     S
Cu855  O865    1.989   .     S
Cu855  O861    1.977   .     S
Cu855  N860    2.022   .     S
Cu856  O867    1.978   .     S
Cu856  O863    1.958   .     S
Cu856  O866    1.989   .     S
Cu856  N859    2.022   .     S
Cu856  O862    1.977   .     S
C869   C874    1.406   .     A
C869   C870    1.404   .     A
C869   C959    1.491   .     S
C870   C871    1.398   .     A
C870   H993    1.083   .     S
C871   C872    1.397   .     A
C871   H876    1.080   .     S
C872   C873    1.398   .     A
C872   H877    1.082   .     S
C873   C874    1.398   .     A
C873   H878    1.082   .     S
C874   H879    1.082   .     S
C880   C885    1.405   .     A
C880   C881    1.405   .     A
C881   C882    1.398   .     A
C881   H886    1.083   .     S
C882   C883    1.397   .     A
C882   H887    1.082   .     S
C883   H888    1.082   .     S
C883   C884    1.398   .     A
C884   H889    1.081   .     S
C884   C885    1.399   .     A
H890   C1003   1.083   .     S
C893   C898    1.406   .     A
C893   C894    1.400   .     A
C894   C895    1.393   .     A
C894   H899    1.082   .     S
C895   H900    1.079   .     S
C895   C896    1.401   .     A
C896   C897    1.394   .     A
C896   H901    1.080   .     S
C897   C898    1.392   .     A
C897   H902    1.083   .     S
C898   H903    1.083   .     S
C904   C909    1.405   .     A
C904   C905    1.398   .     A
C905   H910    1.083   .     S
C905   C906    1.392   .     A
C906   H911    1.077   .     S
C906   C907    1.400   .     A
C907   H912    1.082   .     S
C907   C908    1.397   .     A
C908   H913    1.083   .     S
C908   C909    1.398   .     A
C909   H914    1.083   .     S
C923   C924    1.396   .     A
C923   C928    1.405   .     A
C925   C926    1.404   .     A
C925   C216    1.394   1_556 S
C926   C219    1.392   1_556 S
C927   C928    1.391   .     A
C927   H932    1.082   .     S
C928   H933    1.084   .     S
H929   C216    1.082   1_556 S
H930   C1043   1.080   .     S
H931   C1044   1.076   .     S
C934   C935    1.404   .     A
C934   C939    1.406   .     A
C935   H940    1.082   .     S
C935   C936    1.399   .     A
C936   C937    1.398   .     A
C936   H941    1.082   .     S
C937   C938    1.398   .     A
C937   H942    1.082   .     S
C938   H943    1.083   .     S
C938   C939    1.398   .     A
C939   H944    1.083   .     S
C945   C965    1.473   .     S
C945   O981    1.297   .     A
C945   O979    1.304   .     A
C946   C966    1.475   .     S
C946   O982    1.297   .     A
C946   O980    1.304   .     A
C947   H975    1.075   .     S
C947   C949    1.406   .     A
C947   C955    1.411   .     A
C948   C956    1.414   .     A
C948   C950    1.402   .     A
C948   H976    1.072   .     S
C949   N977    1.361   .     A
C949   H1037   1.081   .     S
C950   H1038   1.081   .     S
C950   N978    1.355   .     A
C951   N977    1.351   .     A
C951   C953    1.406   .     A
C951   H1039   1.083   .     S
C952   H1040   1.082   .     S
C952   N978    1.357   .     A
C952   C954    1.410   .     A
C953   C955    1.433   .     A
C953   C1041   1.459   .     S
C954   C1052   1.474   .     S
C954   C956    1.435   .     A
C956   C247    1.536   1_556 S
C957   O985    1.289   .     A
C957   C959    1.440   .     S
C957   O983    1.292   .     A
C958   O986    1.290   .     A
C958   C960    1.440   .     S
C958   O984    1.292   .     A
C960   C723    1.354   1_655 S
C960   C762    1.490   1_655 S
C961   C971    1.402   .     A
C961   H1009   1.082   .     S
C961   C963    1.393   .     A
C962   C964    1.396   .     A
C962   C972    1.404   .     A
C962   H1010   1.082   .     S
C963   C965    1.414   .     A
C963   C1011   1.472   .     S
C964   C966    1.414   .     A
C964   C1022   1.469   .     S
C965   C967    1.405   .     A
C966   C968    1.402   .     A
C967   H1033   1.084   .     S
C967   C969    1.390   .     A
C968   C970    1.385   .     A
C968   H1034   1.083   .     S
C969   H1035   1.081   .     S
C969   C971    1.405   .     A
C970   H1036   1.081   .     S
C970   C972    1.406   .     A
C971   C1326   1.483   1_545 S
C972   C1325   1.483   .     S
Cu973  O986    1.978   .     S
Cu973  Cu974   2.691   .     S
Cu973  O982    1.958   .     S
Cu973  O983    1.989   .     S
Cu973  O979    1.977   .     S
Cu973  N978    2.022   .     S
Cu974  O985    1.978   .     S
Cu974  O981    1.958   .     S
Cu974  O984    1.989   .     S
Cu974  N977    2.022   .     S
Cu974  O980    1.977   .     S
C987   C992    1.406   .     A
C987   C988    1.404   .     A
C987   C723    1.491   1_655 S
C988   C989    1.398   .     A
C988   H757    1.083   1_655 S
C989   C990    1.397   .     A
C989   H994    1.080   .     S
C990   C991    1.398   .     A
C990   H995    1.082   .     S
C991   C992    1.398   .     A
C991   H996    1.082   .     S
C992   H997    1.082   .     S
C998   C1003   1.405   .     A
C998   C999    1.405   .     A
C999   C1000   1.398   .     A
C999   H1004   1.083   .     S
C1000  C1001   1.397   .     A
C1000  H1005   1.082   .     S
C1001  H1006   1.082   .     S
C1001  C1002   1.398   .     A
C1002  H1007   1.081   .     S
C1002  C1003   1.399   .     A
H1008  C767    1.083   1_655 S
C1011  C1016   1.406   .     A
C1011  C1012   1.400   .     A
C1012  C1013   1.393   .     A
C1012  H1017   1.082   .     S
C1013  H1018   1.079   .     S
C1013  C1014   1.401   .     A
C1014  C1015   1.394   .     A
C1014  H1019   1.080   .     S
C1015  C1016   1.392   .     A
C1015  H1020   1.083   .     S
C1016  H1021   1.083   .     S
C1022  C1027   1.405   .     A
C1022  C1023   1.398   .     A
C1023  H1028   1.083   .     S
C1023  C1024   1.392   .     A
C1024  H1029   1.077   .     S
C1024  C1025   1.400   .     A
C1025  H1030   1.082   .     S
C1025  C1026   1.397   .     A
C1026  H1031   1.083   .     S
C1026  C1027   1.398   .     A
C1027  H1032   1.083   .     S
C1041  C1042   1.396   .     A
C1041  C1046   1.405   .     A
C1043  C1044   1.404   .     A
C1043  C334    1.394   1_556 S
C1044  C337    1.392   1_556 S
C1045  C1046   1.391   .     A
C1045  H1050   1.082   .     S
C1046  H1051   1.084   .     S
H1047  C334    1.082   1_556 S
H1048  C807    1.080   1_655 S
H1049  C808    1.076   1_655 S
C1052  C1053   1.404   .     A
C1052  C1057   1.406   .     A
C1053  H1058   1.082   .     S
C1053  C1054   1.399   .     A
C1054  C1055   1.398   .     A
C1054  H1059   1.082   .     S
C1055  C1056   1.398   .     A
C1055  H1060   1.082   .     S
C1056  H1061   1.083   .     S
C1056  C1057   1.398   .     A
C1057  H1062   1.083   .     S
C1063  C1083   1.473   .     S
C1063  O1099   1.297   .     A
C1063  O1097   1.304   .     A
C1064  C1084   1.475   .     S
C1064  O1100   1.297   .     A
C1064  O1098   1.304   .     A
C1065  H1093   1.075   .     S
C1065  C1067   1.406   .     A
C1065  C1073   1.411   .     A
C1066  C1074   1.414   .     A
C1066  C1068   1.402   .     A
C1066  H1094   1.072   .     S
C1067  N1095   1.361   .     A
C1067  H1155   1.081   .     S
C1068  H1156   1.081   .     S
C1068  N1096   1.355   .     A
C1069  N1095   1.351   .     A
C1069  C1071   1.406   .     A
C1069  H1157   1.083   .     S
C1070  H1158   1.082   .     S
C1070  N1096   1.357   .     A
C1070  C1072   1.410   .     A
C1071  C1073   1.433   .     A
C1071  C1159   1.459   .     S
C1072  C1170   1.474   .     S
C1072  C1074   1.435   .     A
C1074  C365    1.536   1_556 S
C1075  O1103   1.289   .     A
C1075  C1077   1.440   .     S
C1075  O1101   1.292   .     A
C1076  O1104   1.290   .     A
C1076  C1078   1.440   .     S
C1076  O1102   1.292   .     A
C1077  C1314   1.354   1_455 S
C1077  C1341   1.491   1_455 S
C1078  C1195   1.354   .     S
C1078  C1234   1.490   .     S
C1079  C1089   1.402   .     A
C1079  H1127   1.082   .     S
C1079  C1081   1.393   .     A
C1080  C1082   1.396   .     A
C1080  C1090   1.404   .     A
C1080  H1128   1.082   .     S
C1081  C1083   1.414   .     A
C1081  C1129   1.472   .     S
C1082  C1084   1.414   .     A
C1082  C1140   1.469   .     S
C1083  C1085   1.405   .     A
C1084  C1086   1.402   .     A
C1085  H1151   1.084   .     S
C1085  C1087   1.390   .     A
C1086  C1088   1.385   .     A
C1086  H1152   1.083   .     S
C1087  H1153   1.081   .     S
C1087  C1089   1.405   .     A
C1088  H1154   1.081   .     S
C1088  C1090   1.406   .     A
C1090  C735    1.483   1_565 S
Cu1091 O1104   1.978   .     S
Cu1091 Cu1092  2.691   .     S
Cu1091 O1100   1.958   .     S
Cu1091 O1101   1.989   .     S
Cu1091 O1097   1.977   .     S
Cu1091 N1096   2.022   .     S
Cu1092 O1103   1.978   .     S
Cu1092 O1099   1.958   .     S
Cu1092 O1102   1.989   .     S
Cu1092 N1095   2.022   .     S
Cu1092 O1098   1.977   .     S
C1105  C1110   1.406   .     A
C1105  C1106   1.404   .     A
C1105  C1195   1.491   .     S
C1106  C1107   1.398   .     A
C1106  H1229   1.083   .     S
C1107  C1108   1.397   .     A
C1107  H1112   1.080   .     S
C1108  C1109   1.398   .     A
C1108  H1113   1.082   .     S
C1109  C1110   1.398   .     A
C1109  H1114   1.082   .     S
C1110  H1115   1.082   .     S
H1111  C1342   1.083   1_455 S
C1116  C1121   1.405   .     A
C1116  C1117   1.405   .     A
C1116  C1314   1.490   1_455 S
C1117  C1118   1.398   .     A
C1117  H1122   1.083   .     S
C1118  C1119   1.397   .     A
C1118  H1123   1.082   .     S
C1119  H1124   1.082   .     S
C1119  C1120   1.398   .     A
C1120  H1125   1.081   .     S
C1120  C1121   1.399   .     A
C1121  H1362   1.083   1_455 S
H1126  C1239   1.083   .     S
C1129  C1134   1.406   .     A
C1129  C1130   1.400   .     A
C1130  C1131   1.393   .     A
C1130  H1135   1.082   .     S
C1131  H1136   1.079   .     S
C1131  C1132   1.401   .     A
C1132  C1133   1.394   .     A
C1132  H1137   1.080   .     S
C1133  C1134   1.392   .     A
C1133  H1138   1.083   .     S
C1134  H1139   1.083   .     S
C1140  C1145   1.405   .     A
C1140  C1141   1.398   .     A
C1141  H1146   1.083   .     S
C1141  C1142   1.392   .     A
C1142  H1147   1.077   .     S
C1142  C1143   1.400   .     A
C1143  H1148   1.082   .     S
C1143  C1144   1.397   .     A
C1144  H1149   1.083   .     S
C1144  C1145   1.398   .     A
C1145  H1150   1.083   .     S
C1159  C1160   1.396   .     A
C1159  C1164   1.405   .     A
C1161  C1162   1.404   .     A
C1161  C452    1.394   1_556 S
C1161  H1402   1.080   1_455 S
C1162  C455    1.392   1_556 S
C1162  H1403   1.076   1_455 S
C1163  C1164   1.391   .     A
C1163  H1168   1.082   .     S
C1164  H1169   1.084   .     S
H1165  C452    1.082   1_556 S
H1166  C1279   1.080   .     S
H1167  C1280   1.076   .     S
C1170  C1171   1.404   .     A
C1170  C1175   1.406   .     A
C1171  H1176   1.082   .     S
C1171  C1172   1.399   .     A
C1172  C1173   1.398   .     A
C1172  H1177   1.082   .     S
C1173  C1174   1.398   .     A
C1173  H1178   1.082   .     S
C1174  H1179   1.083   .     S
C1174  C1175   1.398   .     A
C1175  H1180   1.083   .     S
C1181  C1201   1.473   .     S
C1181  O1217   1.297   .     A
C1181  O1215   1.304   .     A
C1182  C1202   1.475   .     S
C1182  O1218   1.297   .     A
C1182  O1216   1.304   .     A
C1183  H1211   1.075   .     S
C1183  C1185   1.406   .     A
C1183  C1191   1.411   .     A
C1184  C1192   1.414   .     A
C1184  C1186   1.402   .     A
C1184  H1212   1.072   .     S
C1185  N1213   1.361   .     A
C1185  H1273   1.081   .     S
C1186  H1274   1.081   .     S
C1186  N1214   1.355   .     A
C1187  N1213   1.351   .     A
C1187  C1189   1.406   .     A
C1187  H1275   1.083   .     S
C1188  H1276   1.082   .     S
C1188  N1214   1.357   .     A
C1188  C1190   1.410   .     A
C1189  C1191   1.433   .     A
C1189  C1277   1.459   .     S
C1190  C1288   1.474   .     S
C1190  C1192   1.435   .     A
C1192  C483    1.536   1_556 S
C1193  O1221   1.289   .     A
C1193  C1195   1.440   .     S
C1193  O1219   1.292   .     A
C1194  O1222   1.290   .     A
C1194  C1196   1.440   .     S
C1194  O1220   1.292   .     A
C1196  C1313   1.354   .     S
C1196  C1352   1.490   .     S
C1197  C1207   1.402   .     A
C1197  H1245   1.082   .     S
C1197  C1199   1.393   .     A
C1198  C1200   1.396   .     A
C1198  C1208   1.404   .     A
C1198  H1246   1.082   .     S
C1199  C1201   1.414   .     A
C1199  C1247   1.472   .     S
C1200  C1202   1.414   .     A
C1200  C1258   1.469   .     S
C1201  C1203   1.405   .     A
C1202  C1204   1.402   .     A
C1203  H1269   1.084   .     S
C1203  C1205   1.390   .     A
C1204  C1206   1.385   .     A
C1204  H1270   1.083   .     S
C1205  H1271   1.081   .     S
C1205  C1207   1.405   .     A
C1206  H1272   1.081   .     S
C1206  C1208   1.406   .     A
C1208  C853    1.483   1_565 S
Cu1209 O1222   1.978   .     S
Cu1209 Cu1210  2.691   .     S
Cu1209 O1218   1.958   .     S
Cu1209 O1219   1.989   .     S
Cu1209 O1215   1.977   .     S
Cu1209 N1214   2.022   .     S
Cu1210 O1221   1.978   .     S
Cu1210 O1217   1.958   .     S
Cu1210 O1220   1.989   .     S
Cu1210 N1213   2.022   .     S
Cu1210 O1216   1.977   .     S
C1223  C1228   1.406   .     A
C1223  C1224   1.404   .     A
C1223  C1313   1.491   .     S
C1224  C1225   1.398   .     A
C1224  H1347   1.083   .     S
C1225  C1226   1.397   .     A
C1225  H1230   1.080   .     S
C1226  C1227   1.398   .     A
C1226  H1231   1.082   .     S
C1227  C1228   1.398   .     A
C1227  H1232   1.082   .     S
C1228  H1233   1.082   .     S
C1234  C1239   1.405   .     A
C1234  C1235   1.405   .     A
C1235  C1236   1.398   .     A
C1235  H1240   1.083   .     S
C1236  C1237   1.397   .     A
C1236  H1241   1.082   .     S
C1237  H1242   1.082   .     S
C1237  C1238   1.398   .     A
C1238  H1243   1.081   .     S
C1238  C1239   1.399   .     A
H1244  C1357   1.083   .     S
C1247  C1252   1.406   .     A
C1247  C1248   1.400   .     A
C1248  C1249   1.393   .     A
C1248  H1253   1.082   .     S
C1249  H1254   1.079   .     S
C1249  C1250   1.401   .     A
C1250  C1251   1.394   .     A
C1250  H1255   1.080   .     S
C1251  C1252   1.392   .     A
C1251  H1256   1.083   .     S
C1252  H1257   1.083   .     S
C1258  C1263   1.405   .     A
C1258  C1259   1.398   .     A
C1259  H1264   1.083   .     S
C1259  C1260   1.392   .     A
C1260  H1265   1.077   .     S
C1260  C1261   1.400   .     A
C1261  H1266   1.082   .     S
C1261  C1262   1.397   .     A
C1262  H1267   1.083   .     S
C1262  C1263   1.398   .     A
C1263  H1268   1.083   .     S
C1277  C1278   1.396   .     A
C1277  C1282   1.405   .     A
C1279  C1280   1.404   .     A
C1279  C570    1.394   1_556 S
C1280  C573    1.392   1_556 S
C1281  C1282   1.391   .     A
C1281  H1286   1.082   .     S
C1282  H1287   1.084   .     S
H1283  C570    1.082   1_556 S
H1284  C1397   1.080   .     S
H1285  C1398   1.076   .     S
C1288  C1289   1.404   .     A
C1288  C1293   1.406   .     A
C1289  H1294   1.082   .     S
C1289  C1290   1.399   .     A
C1290  C1291   1.398   .     A
C1290  H1295   1.082   .     S
C1291  C1292   1.398   .     A
C1291  H1296   1.082   .     S
C1292  H1297   1.083   .     S
C1292  C1293   1.398   .     A
C1293  H1298   1.083   .     S
C1299  C1319   1.473   .     S
C1299  O1335   1.297   .     A
C1299  O1333   1.304   .     A
C1300  C1320   1.475   .     S
C1300  O1336   1.297   .     A
C1300  O1334   1.304   .     A
C1301  H1329   1.075   .     S
C1301  C1303   1.406   .     A
C1301  C1309   1.411   .     A
C1302  C1310   1.414   .     A
C1302  C1304   1.402   .     A
C1302  H1330   1.072   .     S
C1303  N1331   1.361   .     A
C1303  H1391   1.081   .     S
C1304  H1392   1.081   .     S
C1304  N1332   1.355   .     A
C1305  N1331   1.351   .     A
C1305  C1307   1.406   .     A
C1305  H1393   1.083   .     S
C1306  H1394   1.082   .     S
C1306  N1332   1.357   .     A
C1306  C1308   1.410   .     A
C1307  C1309   1.433   .     A
C1307  C1395   1.459   .     S
C1308  C1406   1.474   .     S
C1308  C1310   1.435   .     A
C1310  C601    1.536   1_556 S
C1311  O1339   1.289   .     A
C1311  C1313   1.440   .     S
C1311  O1337   1.292   .     A
C1312  O1340   1.290   .     A
C1312  C1314   1.440   .     S
C1312  O1338   1.292   .     A
C1314  C1077   1.354   1_655 S
C1314  C1116   1.490   1_655 S
C1315  C1325   1.402   .     A
C1315  H1363   1.082   .     S
C1315  C1317   1.393   .     A
C1316  C1318   1.396   .     A
C1316  C1326   1.404   .     A
C1316  H1364   1.082   .     S
C1317  C1319   1.414   .     A
C1317  C1365   1.472   .     S
C1318  C1320   1.414   .     A
C1318  C1376   1.469   .     S
C1319  C1321   1.405   .     A
C1320  C1322   1.402   .     A
C1321  H1387   1.084   .     S
C1321  C1323   1.390   .     A
C1322  C1324   1.385   .     A
C1322  H1388   1.083   .     S
C1323  H1389   1.081   .     S
C1323  C1325   1.405   .     A
C1324  H1390   1.081   .     S
C1324  C1326   1.406   .     A
C1326  C971    1.483   1_565 S
Cu1327 O1340   1.978   .     S
Cu1327 Cu1328  2.691   .     S
Cu1327 O1336   1.958   .     S
Cu1327 O1337   1.989   .     S
Cu1327 O1333   1.977   .     S
Cu1327 N1332   2.022   .     S
Cu1328 O1339   1.978   .     S
Cu1328 O1335   1.958   .     S
Cu1328 O1338   1.989   .     S
Cu1328 N1331   2.022   .     S
Cu1328 O1334   1.977   .     S
C1341  C1346   1.406   .     A
C1341  C1342   1.404   .     A
C1341  C1077   1.491   1_655 S
C1342  C1343   1.398   .     A
C1342  H1111   1.083   1_655 S
C1343  C1344   1.397   .     A
C1343  H1348   1.080   .     S
C1344  C1345   1.398   .     A
C1344  H1349   1.082   .     S
C1345  C1346   1.398   .     A
C1345  H1350   1.082   .     S
C1346  H1351   1.082   .     S
C1352  C1357   1.405   .     A
C1352  C1353   1.405   .     A
C1353  C1354   1.398   .     A
C1353  H1358   1.083   .     S
C1354  C1355   1.397   .     A
C1354  H1359   1.082   .     S
C1355  H1360   1.082   .     S
C1355  C1356   1.398   .     A
C1356  H1361   1.081   .     S
C1356  C1357   1.399   .     A
H1362  C1121   1.083   1_655 S
C1365  C1370   1.406   .     A
C1365  C1366   1.400   .     A
C1366  C1367   1.393   .     A
C1366  H1371   1.082   .     S
C1367  H1372   1.079   .     S
C1367  C1368   1.401   .     A
C1368  C1369   1.394   .     A
C1368  H1373   1.080   .     S
C1369  C1370   1.392   .     A
C1369  H1374   1.083   .     S
C1370  H1375   1.083   .     S
C1376  C1381   1.405   .     A
C1376  C1377   1.398   .     A
C1377  H1382   1.083   .     S
C1377  C1378   1.392   .     A
C1378  H1383   1.077   .     S
C1378  C1379   1.400   .     A
C1379  H1384   1.082   .     S
C1379  C1380   1.397   .     A
C1380  H1385   1.083   .     S
C1380  C1381   1.398   .     A
C1381  H1386   1.083   .     S
C1395  C1396   1.396   .     A
C1395  C1400   1.405   .     A
C1397  C1398   1.404   .     A
C1397  C688    1.394   1_556 S
C1398  C691    1.392   1_556 S
C1399  C1400   1.391   .     A
C1399  H1404   1.082   .     S
C1400  H1405   1.084   .     S
H1401  C688    1.082   1_556 S
H1402  C1161   1.080   1_655 S
H1403  C1162   1.076   1_655 S
C1406  C1407   1.404   .     A
C1406  C1411   1.406   .     A
C1407  H1412   1.082   .     S
C1407  C1408   1.399   .     A
C1408  C1409   1.398   .     A
C1408  H1413   1.082   .     S
C1409  C1410   1.398   .     A
C1409  H1414   1.082   .     S
C1410  H1415   1.083   .     S
C1410  C1411   1.398   .     A
C1411  H1416   1.083   .     S
