data_str_m2_o10_o17_pcu_sym.175
_audit_creation_date              2020-01-03
_audit_creation_method            'Materials Studio'
_symmetry_space_group_name_H-M    'P1'
_symmetry_Int_Tables_number       1
_symmetry_cell_setting            triclinic
loop_
_symmetry_equiv_pos_as_xyz
  x,y,z
_cell_length_a                    29.9187
_cell_length_b                    26.0852
_cell_length_c                    22.3073
_cell_angle_alpha                 101.8796
_cell_angle_beta                  93.9754
_cell_angle_gamma                 92.3247
loop_
_atom_site_label
_atom_site_type_symbol
_atom_site_fract_x
_atom_site_fract_y
_atom_site_fract_z
_atom_site_U_iso_or_equiv
_atom_site_adp_type
_atom_site_occupancy
C1     C     0.24676   0.06695   0.15204   0.00000  Uiso   1.00
C2     C     0.25322   0.26638   0.18129   0.00000  Uiso   1.00
C3     C     0.01631   0.07377   0.11216   0.00000  Uiso   1.00
C4     C     0.48369   0.25957   0.22118   0.00000  Uiso   1.00
C5     C     0.23750   0.01215   0.14790   0.00000  Uiso   1.00
C6     C     0.26248   0.32119   0.18543   0.00000  Uiso   1.00
C7     C     0.16455   0.16639   0.16759   0.00000  Uiso   1.00
C8     C     0.33545   0.16695   0.16574   0.00000  Uiso   1.00
C9     C     0.40947   0.21238   0.19409   0.00000  Uiso   1.00
C10    C     0.09053   0.12096   0.13925   0.00000  Uiso   1.00
C11    C     0.38352   0.16779   0.16369   0.00000  Uiso   1.00
C12    C     0.11647   0.16555   0.16965   0.00000  Uiso   1.00
C13    C     0.40328   0.12355   0.13305   0.00000  Uiso   1.00
C14    C     0.09672   0.20978   0.20028   0.00000  Uiso   1.00
C15    C     0.44981   0.12256   0.13498   0.00000  Uiso   1.00
C16    C     0.05019   0.21077   0.19835   0.00000  Uiso   1.00
C17    C     0.47656   0.16751   0.16540   0.00000  Uiso   1.00
C18    C     0.02344   0.16583   0.16793   0.00000  Uiso   1.00
C19    C     0.45632   0.21395   0.19331   0.00000  Uiso   1.00
C20    C     0.04368   0.11938   0.14003   0.00000  Uiso   1.00
C21    C     0.46969   0.07662   0.10851   0.00000  Uiso   1.00
C22    C     0.03031   0.25671   0.22483   0.00000  Uiso   1.00
Cu23   Cu    0.25500   0.17246   0.22813   0.00000  Uiso   1.00
Cu24   Cu    0.24499   0.16087   0.10521   0.00000  Uiso   1.00
H25    H     0.39244   0.24498   0.21880   0.00000  Uiso   1.00
H26    H     0.10756   0.08836   0.11454   0.00000  Uiso   1.00
H27    H     0.38234   0.08920   0.11013   0.00000  Uiso   1.00
H28    H     0.11766   0.24413   0.22321   0.00000  Uiso   1.00
H29    H     0.44860   0.04206   0.08671   0.00000  Uiso   1.00
H30    H     0.05140   0.29127   0.24663   0.00000  Uiso   1.00
H31    H     0.21535   0.12600   0.31640   0.00000  Uiso   1.00
H32    H     0.28465   0.20733   0.01694   0.00000  Uiso   1.00
N33    N     0.23744   0.15214   0.01284   0.00000  Uiso   1.00
N34    N     0.26255   0.18119   0.32049   0.00000  Uiso   1.00
O35    O     0.25325   0.09538   0.20659   0.00000  Uiso   1.00
O36    O     0.24674   0.23796   0.12674   0.00000  Uiso   1.00
O37    O     0.24480   0.08559   0.10279   0.00000  Uiso   1.00
O38    O     0.25520   0.24774   0.23055   0.00000  Uiso   1.00
O39    O     0.18935   0.17155   0.21857   0.00000  Uiso   1.00
O40    O     0.31064   0.16179   0.11476   0.00000  Uiso   1.00
O41    O     0.18090   0.16176   0.11477   0.00000  Uiso   1.00
O42    O     0.31910   0.17157   0.21857   0.00000  Uiso   1.00
C43    C     0.03391   0.02161   0.08843   0.00000  Uiso   1.00
H44    H     0.01467   0.32727   0.05180   0.00000  Uiso   1.00
O45    O     0.06803   0.00743   0.11191   0.00000  Uiso   1.00
C46    C     0.46609   0.31172   0.24491   0.00000  Uiso   1.00
H47    H     0.48533   0.00606   0.28153   0.00000  Uiso   1.00
O48    O     0.43197   0.32591   0.22143   0.00000  Uiso   1.00
C49    C     0.19512   0.32138   0.11132   0.00000  Uiso   1.00
H50    H     0.17899   0.28576   0.11956   0.00000  Uiso   1.00
O51    O     0.17702   0.00872   0.07233   0.00000  Uiso   1.00
C52    C     0.30485   0.01196   0.22201   0.00000  Uiso   1.00
H53    H     0.32105   0.04750   0.21364   0.00000  Uiso   1.00
O54    O     0.32287   0.32473   0.26117   0.00000  Uiso   1.00
C55    C     0.74676   0.06695   0.15204   0.00000  Uiso   1.00
C56    C     0.75322   0.26638   0.18129   0.00000  Uiso   1.00
C57    C     0.51631   0.07377   0.11216   0.00000  Uiso   1.00
C58    C     0.98369   0.25957   0.22118   0.00000  Uiso   1.00
C59    C     0.73750   0.01215   0.14790   0.00000  Uiso   1.00
C60    C     0.76248   0.32119   0.18543   0.00000  Uiso   1.00
C61    C     0.66455   0.16639   0.16759   0.00000  Uiso   1.00
C62    C     0.83545   0.16695   0.16574   0.00000  Uiso   1.00
C63    C     0.90947   0.21238   0.19409   0.00000  Uiso   1.00
C64    C     0.59053   0.12096   0.13925   0.00000  Uiso   1.00
C65    C     0.88352   0.16779   0.16369   0.00000  Uiso   1.00
C66    C     0.61647   0.16555   0.16965   0.00000  Uiso   1.00
C67    C     0.90328   0.12355   0.13305   0.00000  Uiso   1.00
C68    C     0.59672   0.20978   0.20028   0.00000  Uiso   1.00
C69    C     0.94981   0.12256   0.13498   0.00000  Uiso   1.00
C70    C     0.55019   0.21077   0.19835   0.00000  Uiso   1.00
C71    C     0.97656   0.16751   0.16540   0.00000  Uiso   1.00
C72    C     0.52344   0.16583   0.16793   0.00000  Uiso   1.00
C73    C     0.95632   0.21395   0.19331   0.00000  Uiso   1.00
C74    C     0.54368   0.11938   0.14003   0.00000  Uiso   1.00
C75    C     0.96969   0.07662   0.10851   0.00000  Uiso   1.00
C76    C     0.53031   0.25671   0.22483   0.00000  Uiso   1.00
Cu77   Cu    0.75500   0.17246   0.22813   0.00000  Uiso   1.00
Cu78   Cu    0.74499   0.16087   0.10521   0.00000  Uiso   1.00
H79    H     0.89244   0.24498   0.21880   0.00000  Uiso   1.00
H80    H     0.60756   0.08836   0.11454   0.00000  Uiso   1.00
H81    H     0.88234   0.08920   0.11013   0.00000  Uiso   1.00
H82    H     0.61766   0.24413   0.22321   0.00000  Uiso   1.00
H83    H     0.94860   0.04206   0.08671   0.00000  Uiso   1.00
H84    H     0.55140   0.29127   0.24663   0.00000  Uiso   1.00
H85    H     0.71535   0.12600   0.31640   0.00000  Uiso   1.00
H86    H     0.78465   0.20733   0.01694   0.00000  Uiso   1.00
N87    N     0.73744   0.15214   0.01284   0.00000  Uiso   1.00
N88    N     0.76255   0.18119   0.32049   0.00000  Uiso   1.00
O89    O     0.75325   0.09538   0.20659   0.00000  Uiso   1.00
O90    O     0.74674   0.23796   0.12674   0.00000  Uiso   1.00
O91    O     0.74480   0.08559   0.10279   0.00000  Uiso   1.00
O92    O     0.75520   0.24774   0.23055   0.00000  Uiso   1.00
O93    O     0.68935   0.17155   0.21857   0.00000  Uiso   1.00
O94    O     0.81064   0.16179   0.11476   0.00000  Uiso   1.00
O95    O     0.68090   0.16176   0.11477   0.00000  Uiso   1.00
O96    O     0.81910   0.17157   0.21857   0.00000  Uiso   1.00
C97    C     0.53391   0.02161   0.08843   0.00000  Uiso   1.00
H98    H     0.51467   0.32727   0.05180   0.00000  Uiso   1.00
O99    O     0.56803   0.00743   0.11191   0.00000  Uiso   1.00
C100   C     0.96609   0.31172   0.24491   0.00000  Uiso   1.00
H101   H     0.98533   0.00606   0.28153   0.00000  Uiso   1.00
O102   O     0.93197   0.32591   0.22143   0.00000  Uiso   1.00
C103   C     0.69512   0.32138   0.11132   0.00000  Uiso   1.00
H104   H     0.67899   0.28576   0.11956   0.00000  Uiso   1.00
O105   O     0.67702   0.00872   0.07233   0.00000  Uiso   1.00
C106   C     0.80485   0.01196   0.22201   0.00000  Uiso   1.00
H107   H     0.82105   0.04750   0.21364   0.00000  Uiso   1.00
O108   O     0.82287   0.32473   0.26117   0.00000  Uiso   1.00
C109   C     0.24676   0.40029   0.15204   0.00000  Uiso   1.00
C110   C     0.25322   0.59971   0.18129   0.00000  Uiso   1.00
C111   C     0.01631   0.40710   0.11216   0.00000  Uiso   1.00
C112   C     0.48369   0.59290   0.22118   0.00000  Uiso   1.00
C113   C     0.23750   0.34548   0.14790   0.00000  Uiso   1.00
C114   C     0.26248   0.65452   0.18543   0.00000  Uiso   1.00
C115   C     0.16455   0.49972   0.16759   0.00000  Uiso   1.00
C116   C     0.33545   0.50028   0.16574   0.00000  Uiso   1.00
C117   C     0.40947   0.54571   0.19409   0.00000  Uiso   1.00
C118   C     0.09053   0.45429   0.13925   0.00000  Uiso   1.00
C119   C     0.38352   0.50112   0.16369   0.00000  Uiso   1.00
C120   C     0.11647   0.49888   0.16965   0.00000  Uiso   1.00
C121   C     0.40328   0.45689   0.13305   0.00000  Uiso   1.00
C122   C     0.09672   0.54312   0.20028   0.00000  Uiso   1.00
C123   C     0.44981   0.45590   0.13498   0.00000  Uiso   1.00
C124   C     0.05019   0.54410   0.19835   0.00000  Uiso   1.00
C125   C     0.47656   0.50084   0.16540   0.00000  Uiso   1.00
C126   C     0.02344   0.49916   0.16793   0.00000  Uiso   1.00
C127   C     0.45632   0.54729   0.19331   0.00000  Uiso   1.00
C128   C     0.04368   0.45272   0.14003   0.00000  Uiso   1.00
C129   C     0.46969   0.40996   0.10851   0.00000  Uiso   1.00
C130   C     0.03031   0.59004   0.22483   0.00000  Uiso   1.00
Cu131  Cu    0.25500   0.50579   0.22813   0.00000  Uiso   1.00
Cu132  Cu    0.24499   0.49421   0.10521   0.00000  Uiso   1.00
H133   H     0.39244   0.57831   0.21880   0.00000  Uiso   1.00
H134   H     0.10756   0.42169   0.11454   0.00000  Uiso   1.00
H135   H     0.38234   0.42254   0.11013   0.00000  Uiso   1.00
H136   H     0.11766   0.57746   0.22321   0.00000  Uiso   1.00
H137   H     0.44860   0.37540   0.08671   0.00000  Uiso   1.00
H138   H     0.05140   0.62461   0.24663   0.00000  Uiso   1.00
H139   H     0.21535   0.45933   0.31640   0.00000  Uiso   1.00
H140   H     0.28465   0.54067   0.01694   0.00000  Uiso   1.00
N141   N     0.23744   0.48547   0.01284   0.00000  Uiso   1.00
N142   N     0.26255   0.51453   0.32049   0.00000  Uiso   1.00
O143   O     0.25325   0.42871   0.20659   0.00000  Uiso   1.00
O144   O     0.24674   0.57129   0.12674   0.00000  Uiso   1.00
O145   O     0.24480   0.41892   0.10279   0.00000  Uiso   1.00
O146   O     0.25520   0.58108   0.23055   0.00000  Uiso   1.00
O147   O     0.18935   0.50488   0.21857   0.00000  Uiso   1.00
O148   O     0.31064   0.49512   0.11476   0.00000  Uiso   1.00
O149   O     0.18090   0.49510   0.11477   0.00000  Uiso   1.00
O150   O     0.31910   0.50490   0.21857   0.00000  Uiso   1.00
C151   C     0.03391   0.35494   0.08843   0.00000  Uiso   1.00
H152   H     0.01467   0.66061   0.05180   0.00000  Uiso   1.00
O153   O     0.06803   0.34076   0.11191   0.00000  Uiso   1.00
C154   C     0.46609   0.64506   0.24491   0.00000  Uiso   1.00
H155   H     0.48533   0.33940   0.28153   0.00000  Uiso   1.00
O156   O     0.43197   0.65924   0.22143   0.00000  Uiso   1.00
C157   C     0.19512   0.65471   0.11132   0.00000  Uiso   1.00
H158   H     0.17899   0.61909   0.11956   0.00000  Uiso   1.00
O159   O     0.17702   0.34205   0.07233   0.00000  Uiso   1.00
C160   C     0.30485   0.34530   0.22201   0.00000  Uiso   1.00
H161   H     0.32105   0.38083   0.21364   0.00000  Uiso   1.00
O162   O     0.32287   0.65807   0.26117   0.00000  Uiso   1.00
C163   C     0.74676   0.40029   0.15204   0.00000  Uiso   1.00
C164   C     0.75322   0.59971   0.18129   0.00000  Uiso   1.00
C165   C     0.51631   0.40710   0.11216   0.00000  Uiso   1.00
C166   C     0.98369   0.59290   0.22118   0.00000  Uiso   1.00
C167   C     0.73750   0.34548   0.14790   0.00000  Uiso   1.00
C168   C     0.76248   0.65452   0.18543   0.00000  Uiso   1.00
C169   C     0.66455   0.49972   0.16759   0.00000  Uiso   1.00
C170   C     0.83545   0.50028   0.16574   0.00000  Uiso   1.00
C171   C     0.90947   0.54571   0.19409   0.00000  Uiso   1.00
C172   C     0.59053   0.45429   0.13925   0.00000  Uiso   1.00
C173   C     0.88352   0.50112   0.16369   0.00000  Uiso   1.00
C174   C     0.61647   0.49888   0.16965   0.00000  Uiso   1.00
C175   C     0.90328   0.45689   0.13305   0.00000  Uiso   1.00
C176   C     0.59672   0.54312   0.20028   0.00000  Uiso   1.00
C177   C     0.94981   0.45590   0.13498   0.00000  Uiso   1.00
C178   C     0.55019   0.54410   0.19835   0.00000  Uiso   1.00
C179   C     0.97656   0.50084   0.16540   0.00000  Uiso   1.00
C180   C     0.52344   0.49916   0.16793   0.00000  Uiso   1.00
C181   C     0.95632   0.54729   0.19331   0.00000  Uiso   1.00
C182   C     0.54368   0.45272   0.14003   0.00000  Uiso   1.00
C183   C     0.96969   0.40996   0.10851   0.00000  Uiso   1.00
C184   C     0.53031   0.59004   0.22483   0.00000  Uiso   1.00
Cu185  Cu    0.75500   0.50579   0.22813   0.00000  Uiso   1.00
Cu186  Cu    0.74499   0.49421   0.10521   0.00000  Uiso   1.00
H187   H     0.89244   0.57831   0.21880   0.00000  Uiso   1.00
H188   H     0.60756   0.42169   0.11454   0.00000  Uiso   1.00
H189   H     0.88234   0.42254   0.11013   0.00000  Uiso   1.00
H190   H     0.61766   0.57746   0.22321   0.00000  Uiso   1.00
H191   H     0.94860   0.37540   0.08671   0.00000  Uiso   1.00
H192   H     0.55140   0.62461   0.24663   0.00000  Uiso   1.00
H193   H     0.71535   0.45933   0.31640   0.00000  Uiso   1.00
H194   H     0.78465   0.54067   0.01694   0.00000  Uiso   1.00
N195   N     0.73744   0.48547   0.01284   0.00000  Uiso   1.00
N196   N     0.76255   0.51453   0.32049   0.00000  Uiso   1.00
O197   O     0.75325   0.42871   0.20659   0.00000  Uiso   1.00
O198   O     0.74674   0.57129   0.12674   0.00000  Uiso   1.00
O199   O     0.74480   0.41892   0.10279   0.00000  Uiso   1.00
O200   O     0.75520   0.58108   0.23055   0.00000  Uiso   1.00
O201   O     0.68935   0.50488   0.21857   0.00000  Uiso   1.00
O202   O     0.81064   0.49512   0.11476   0.00000  Uiso   1.00
O203   O     0.68090   0.49510   0.11477   0.00000  Uiso   1.00
O204   O     0.81910   0.50490   0.21857   0.00000  Uiso   1.00
C205   C     0.53391   0.35494   0.08843   0.00000  Uiso   1.00
H206   H     0.51467   0.66061   0.05180   0.00000  Uiso   1.00
O207   O     0.56803   0.34076   0.11191   0.00000  Uiso   1.00
C208   C     0.96609   0.64506   0.24491   0.00000  Uiso   1.00
H209   H     0.98533   0.33940   0.28153   0.00000  Uiso   1.00
O210   O     0.93197   0.65924   0.22143   0.00000  Uiso   1.00
C211   C     0.69512   0.65471   0.11132   0.00000  Uiso   1.00
H212   H     0.67899   0.61909   0.11956   0.00000  Uiso   1.00
O213   O     0.67702   0.34205   0.07233   0.00000  Uiso   1.00
C214   C     0.80485   0.34530   0.22201   0.00000  Uiso   1.00
H215   H     0.82105   0.38083   0.21364   0.00000  Uiso   1.00
O216   O     0.82287   0.65807   0.26117   0.00000  Uiso   1.00
C217   C     0.24676   0.73362   0.15204   0.00000  Uiso   1.00
C218   C     0.25322   0.93305   0.18129   0.00000  Uiso   1.00
C219   C     0.01631   0.74043   0.11216   0.00000  Uiso   1.00
C220   C     0.48369   0.92624   0.22118   0.00000  Uiso   1.00
C221   C     0.23750   0.67881   0.14790   0.00000  Uiso   1.00
C222   C     0.26248   0.98785   0.18543   0.00000  Uiso   1.00
C223   C     0.16455   0.83305   0.16759   0.00000  Uiso   1.00
C224   C     0.33545   0.83361   0.16574   0.00000  Uiso   1.00
C225   C     0.40947   0.87905   0.19409   0.00000  Uiso   1.00
C226   C     0.09053   0.78762   0.13925   0.00000  Uiso   1.00
C227   C     0.38352   0.83445   0.16369   0.00000  Uiso   1.00
C228   C     0.11647   0.83221   0.16965   0.00000  Uiso   1.00
C229   C     0.40328   0.79022   0.13305   0.00000  Uiso   1.00
C230   C     0.09672   0.87645   0.20028   0.00000  Uiso   1.00
C231   C     0.44981   0.78923   0.13498   0.00000  Uiso   1.00
C232   C     0.05019   0.87744   0.19835   0.00000  Uiso   1.00
C233   C     0.47656   0.83417   0.16540   0.00000  Uiso   1.00
C234   C     0.02344   0.83250   0.16793   0.00000  Uiso   1.00
C235   C     0.45632   0.88062   0.19331   0.00000  Uiso   1.00
C236   C     0.04368   0.78605   0.14003   0.00000  Uiso   1.00
C237   C     0.46969   0.74329   0.10851   0.00000  Uiso   1.00
C238   C     0.03031   0.92338   0.22483   0.00000  Uiso   1.00
Cu239  Cu    0.25500   0.83913   0.22813   0.00000  Uiso   1.00
Cu240  Cu    0.24499   0.82754   0.10521   0.00000  Uiso   1.00
H241   H     0.39244   0.91165   0.21880   0.00000  Uiso   1.00
H242   H     0.10756   0.75502   0.11454   0.00000  Uiso   1.00
H243   H     0.38234   0.75587   0.11013   0.00000  Uiso   1.00
H244   H     0.11766   0.91080   0.22321   0.00000  Uiso   1.00
H245   H     0.44860   0.70873   0.08671   0.00000  Uiso   1.00
H246   H     0.05140   0.95794   0.24663   0.00000  Uiso   1.00
H247   H     0.21535   0.79267   0.31640   0.00000  Uiso   1.00
H248   H     0.28465   0.87400   0.01694   0.00000  Uiso   1.00
N249   N     0.23744   0.81881   0.01284   0.00000  Uiso   1.00
N250   N     0.26255   0.84786   0.32049   0.00000  Uiso   1.00
O251   O     0.25325   0.76204   0.20659   0.00000  Uiso   1.00
O252   O     0.24674   0.90462   0.12674   0.00000  Uiso   1.00
O253   O     0.24480   0.75226   0.10279   0.00000  Uiso   1.00
O254   O     0.25520   0.91441   0.23055   0.00000  Uiso   1.00
O255   O     0.18935   0.83821   0.21857   0.00000  Uiso   1.00
O256   O     0.31064   0.82845   0.11476   0.00000  Uiso   1.00
O257   O     0.18090   0.82843   0.11477   0.00000  Uiso   1.00
O258   O     0.31910   0.83824   0.21857   0.00000  Uiso   1.00
C259   C     0.03391   0.68828   0.08843   0.00000  Uiso   1.00
H260   H     0.01467   0.99394   0.05180   0.00000  Uiso   1.00
O261   O     0.06803   0.67410   0.11191   0.00000  Uiso   1.00
C262   C     0.46609   0.97839   0.24491   0.00000  Uiso   1.00
H263   H     0.48533   0.67273   0.28153   0.00000  Uiso   1.00
O264   O     0.43197   0.99257   0.22143   0.00000  Uiso   1.00
C265   C     0.19512   0.98805   0.11132   0.00000  Uiso   1.00
H266   H     0.17899   0.95243   0.11956   0.00000  Uiso   1.00
O267   O     0.17702   0.67538   0.07233   0.00000  Uiso   1.00
C268   C     0.30485   0.67863   0.22201   0.00000  Uiso   1.00
H269   H     0.32105   0.71417   0.21364   0.00000  Uiso   1.00
O270   O     0.32287   0.99140   0.26117   0.00000  Uiso   1.00
C271   C     0.74676   0.73362   0.15204   0.00000  Uiso   1.00
C272   C     0.75322   0.93305   0.18129   0.00000  Uiso   1.00
C273   C     0.51631   0.74043   0.11216   0.00000  Uiso   1.00
C274   C     0.98369   0.92624   0.22118   0.00000  Uiso   1.00
C275   C     0.73750   0.67881   0.14790   0.00000  Uiso   1.00
C276   C     0.76248   0.98785   0.18543   0.00000  Uiso   1.00
C277   C     0.66455   0.83305   0.16759   0.00000  Uiso   1.00
C278   C     0.83545   0.83361   0.16574   0.00000  Uiso   1.00
C279   C     0.90947   0.87905   0.19409   0.00000  Uiso   1.00
C280   C     0.59053   0.78762   0.13925   0.00000  Uiso   1.00
C281   C     0.88352   0.83445   0.16369   0.00000  Uiso   1.00
C282   C     0.61647   0.83221   0.16965   0.00000  Uiso   1.00
C283   C     0.90328   0.79022   0.13305   0.00000  Uiso   1.00
C284   C     0.59672   0.87645   0.20028   0.00000  Uiso   1.00
C285   C     0.94981   0.78923   0.13498   0.00000  Uiso   1.00
C286   C     0.55019   0.87744   0.19835   0.00000  Uiso   1.00
C287   C     0.97656   0.83417   0.16540   0.00000  Uiso   1.00
C288   C     0.52344   0.83250   0.16793   0.00000  Uiso   1.00
C289   C     0.95632   0.88062   0.19331   0.00000  Uiso   1.00
C290   C     0.54368   0.78605   0.14003   0.00000  Uiso   1.00
C291   C     0.96969   0.74329   0.10851   0.00000  Uiso   1.00
C292   C     0.53031   0.92338   0.22483   0.00000  Uiso   1.00
Cu293  Cu    0.75500   0.83913   0.22813   0.00000  Uiso   1.00
Cu294  Cu    0.74499   0.82754   0.10521   0.00000  Uiso   1.00
H295   H     0.89244   0.91165   0.21880   0.00000  Uiso   1.00
H296   H     0.60756   0.75502   0.11454   0.00000  Uiso   1.00
H297   H     0.88234   0.75587   0.11013   0.00000  Uiso   1.00
H298   H     0.61766   0.91080   0.22321   0.00000  Uiso   1.00
H299   H     0.94860   0.70873   0.08671   0.00000  Uiso   1.00
H300   H     0.55140   0.95794   0.24663   0.00000  Uiso   1.00
H301   H     0.71535   0.79267   0.31640   0.00000  Uiso   1.00
H302   H     0.78465   0.87400   0.01694   0.00000  Uiso   1.00
N303   N     0.73744   0.81881   0.01284   0.00000  Uiso   1.00
N304   N     0.76255   0.84786   0.32049   0.00000  Uiso   1.00
O305   O     0.75325   0.76204   0.20659   0.00000  Uiso   1.00
O306   O     0.74674   0.90462   0.12674   0.00000  Uiso   1.00
O307   O     0.74480   0.75226   0.10279   0.00000  Uiso   1.00
O308   O     0.75520   0.91441   0.23055   0.00000  Uiso   1.00
O309   O     0.68935   0.83821   0.21857   0.00000  Uiso   1.00
O310   O     0.81064   0.82845   0.11476   0.00000  Uiso   1.00
O311   O     0.68090   0.82843   0.11477   0.00000  Uiso   1.00
O312   O     0.81910   0.83824   0.21857   0.00000  Uiso   1.00
C313   C     0.53391   0.68828   0.08843   0.00000  Uiso   1.00
H314   H     0.51467   0.99394   0.05180   0.00000  Uiso   1.00
O315   O     0.56803   0.67410   0.11191   0.00000  Uiso   1.00
C316   C     0.96609   0.97839   0.24491   0.00000  Uiso   1.00
H317   H     0.98533   0.67273   0.28153   0.00000  Uiso   1.00
O318   O     0.93197   0.99257   0.22143   0.00000  Uiso   1.00
C319   C     0.69512   0.98805   0.11132   0.00000  Uiso   1.00
H320   H     0.67899   0.95243   0.11956   0.00000  Uiso   1.00
O321   O     0.67702   0.67538   0.07233   0.00000  Uiso   1.00
C322   C     0.80485   0.67863   0.22201   0.00000  Uiso   1.00
H323   H     0.82105   0.71417   0.21364   0.00000  Uiso   1.00
O324   O     0.82287   0.99140   0.26117   0.00000  Uiso   1.00
C325   C     0.24676   0.06695   0.48537   0.00000  Uiso   1.00
C326   C     0.25322   0.26638   0.51463   0.00000  Uiso   1.00
C327   C     0.01631   0.07377   0.44549   0.00000  Uiso   1.00
C328   C     0.48369   0.25957   0.55451   0.00000  Uiso   1.00
C329   C     0.23750   0.01215   0.48124   0.00000  Uiso   1.00
C330   C     0.26248   0.32119   0.51876   0.00000  Uiso   1.00
C331   C     0.16455   0.16639   0.50093   0.00000  Uiso   1.00
C332   C     0.33545   0.16695   0.49907   0.00000  Uiso   1.00
C333   C     0.40947   0.21238   0.52742   0.00000  Uiso   1.00
C334   C     0.09053   0.12096   0.47258   0.00000  Uiso   1.00
C335   C     0.38352   0.16779   0.49702   0.00000  Uiso   1.00
C336   C     0.11647   0.16555   0.50298   0.00000  Uiso   1.00
C337   C     0.40328   0.12355   0.46639   0.00000  Uiso   1.00
C338   C     0.09672   0.20978   0.53361   0.00000  Uiso   1.00
C339   C     0.44981   0.12256   0.46831   0.00000  Uiso   1.00
C340   C     0.05019   0.21077   0.53169   0.00000  Uiso   1.00
C341   C     0.47656   0.16751   0.49874   0.00000  Uiso   1.00
C342   C     0.02344   0.16583   0.50127   0.00000  Uiso   1.00
C343   C     0.45632   0.21395   0.52664   0.00000  Uiso   1.00
C344   C     0.04368   0.11938   0.47336   0.00000  Uiso   1.00
C345   C     0.46969   0.07662   0.44184   0.00000  Uiso   1.00
C346   C     0.03031   0.25671   0.55816   0.00000  Uiso   1.00
Cu347  Cu    0.25500   0.17246   0.56146   0.00000  Uiso   1.00
Cu348  Cu    0.24499   0.16087   0.43854   0.00000  Uiso   1.00
H349   H     0.39244   0.24498   0.55213   0.00000  Uiso   1.00
H350   H     0.10756   0.08836   0.44787   0.00000  Uiso   1.00
H351   H     0.38234   0.08920   0.44346   0.00000  Uiso   1.00
H352   H     0.11766   0.24413   0.55654   0.00000  Uiso   1.00
H353   H     0.44860   0.04206   0.42004   0.00000  Uiso   1.00
H354   H     0.05140   0.29127   0.57996   0.00000  Uiso   1.00
H355   H     0.21535   0.12600   0.64973   0.00000  Uiso   1.00
H356   H     0.28465   0.20733   0.35027   0.00000  Uiso   1.00
N357   N     0.23744   0.15214   0.34617   0.00000  Uiso   1.00
N358   N     0.26255   0.18119   0.65383   0.00000  Uiso   1.00
O359   O     0.25325   0.09538   0.53992   0.00000  Uiso   1.00
O360   O     0.24674   0.23796   0.46008   0.00000  Uiso   1.00
O361   O     0.24480   0.08559   0.43612   0.00000  Uiso   1.00
O362   O     0.25520   0.24774   0.56388   0.00000  Uiso   1.00
O363   O     0.18935   0.17155   0.55191   0.00000  Uiso   1.00
O364   O     0.31064   0.16179   0.44809   0.00000  Uiso   1.00
O365   O     0.18090   0.16176   0.44810   0.00000  Uiso   1.00
O366   O     0.31910   0.17157   0.55190   0.00000  Uiso   1.00
C367   C     0.03391   0.02161   0.42176   0.00000  Uiso   1.00
H368   H     0.01467   0.32727   0.38514   0.00000  Uiso   1.00
O369   O     0.06803   0.00743   0.44525   0.00000  Uiso   1.00
C370   C     0.46609   0.31172   0.57825   0.00000  Uiso   1.00
H371   H     0.48533   0.00606   0.61487   0.00000  Uiso   1.00
O372   O     0.43197   0.32591   0.55477   0.00000  Uiso   1.00
C373   C     0.19512   0.32138   0.44465   0.00000  Uiso   1.00
H374   H     0.17899   0.28576   0.45289   0.00000  Uiso   1.00
O375   O     0.17702   0.00872   0.40567   0.00000  Uiso   1.00
C376   C     0.30485   0.01196   0.55535   0.00000  Uiso   1.00
H377   H     0.32105   0.04750   0.54698   0.00000  Uiso   1.00
O378   O     0.32287   0.32473   0.59450   0.00000  Uiso   1.00
C379   C     0.74676   0.06695   0.48537   0.00000  Uiso   1.00
C380   C     0.75322   0.26638   0.51463   0.00000  Uiso   1.00
C381   C     0.51631   0.07377   0.44549   0.00000  Uiso   1.00
C382   C     0.98369   0.25957   0.55451   0.00000  Uiso   1.00
C383   C     0.73750   0.01215   0.48124   0.00000  Uiso   1.00
C384   C     0.76248   0.32119   0.51876   0.00000  Uiso   1.00
C385   C     0.66455   0.16639   0.50093   0.00000  Uiso   1.00
C386   C     0.83545   0.16695   0.49907   0.00000  Uiso   1.00
C387   C     0.90947   0.21238   0.52742   0.00000  Uiso   1.00
C388   C     0.59053   0.12096   0.47258   0.00000  Uiso   1.00
C389   C     0.88352   0.16779   0.49702   0.00000  Uiso   1.00
C390   C     0.61647   0.16555   0.50298   0.00000  Uiso   1.00
C391   C     0.90328   0.12355   0.46639   0.00000  Uiso   1.00
C392   C     0.59672   0.20978   0.53361   0.00000  Uiso   1.00
C393   C     0.94981   0.12256   0.46831   0.00000  Uiso   1.00
C394   C     0.55019   0.21077   0.53169   0.00000  Uiso   1.00
C395   C     0.97656   0.16751   0.49874   0.00000  Uiso   1.00
C396   C     0.52344   0.16583   0.50127   0.00000  Uiso   1.00
C397   C     0.95632   0.21395   0.52664   0.00000  Uiso   1.00
C398   C     0.54368   0.11938   0.47336   0.00000  Uiso   1.00
C399   C     0.96969   0.07662   0.44184   0.00000  Uiso   1.00
C400   C     0.53031   0.25671   0.55816   0.00000  Uiso   1.00
Cu401  Cu    0.75500   0.17246   0.56146   0.00000  Uiso   1.00
Cu402  Cu    0.74499   0.16087   0.43854   0.00000  Uiso   1.00
H403   H     0.89244   0.24498   0.55213   0.00000  Uiso   1.00
H404   H     0.60756   0.08836   0.44787   0.00000  Uiso   1.00
H405   H     0.88234   0.08920   0.44346   0.00000  Uiso   1.00
H406   H     0.61766   0.24413   0.55654   0.00000  Uiso   1.00
H407   H     0.94860   0.04206   0.42004   0.00000  Uiso   1.00
H408   H     0.55140   0.29127   0.57996   0.00000  Uiso   1.00
H409   H     0.71535   0.12600   0.64973   0.00000  Uiso   1.00
H410   H     0.78465   0.20733   0.35027   0.00000  Uiso   1.00
N411   N     0.73744   0.15214   0.34617   0.00000  Uiso   1.00
N412   N     0.76255   0.18119   0.65383   0.00000  Uiso   1.00
O413   O     0.75325   0.09538   0.53992   0.00000  Uiso   1.00
O414   O     0.74674   0.23796   0.46008   0.00000  Uiso   1.00
O415   O     0.74480   0.08559   0.43612   0.00000  Uiso   1.00
O416   O     0.75520   0.24774   0.56388   0.00000  Uiso   1.00
O417   O     0.68935   0.17155   0.55191   0.00000  Uiso   1.00
O418   O     0.81064   0.16179   0.44809   0.00000  Uiso   1.00
O419   O     0.68090   0.16176   0.44810   0.00000  Uiso   1.00
O420   O     0.81910   0.17157   0.55190   0.00000  Uiso   1.00
C421   C     0.53391   0.02161   0.42176   0.00000  Uiso   1.00
H422   H     0.51467   0.32727   0.38514   0.00000  Uiso   1.00
O423   O     0.56803   0.00743   0.44525   0.00000  Uiso   1.00
C424   C     0.96609   0.31172   0.57825   0.00000  Uiso   1.00
H425   H     0.98533   0.00606   0.61487   0.00000  Uiso   1.00
O426   O     0.93197   0.32591   0.55477   0.00000  Uiso   1.00
C427   C     0.69512   0.32138   0.44465   0.00000  Uiso   1.00
H428   H     0.67899   0.28576   0.45289   0.00000  Uiso   1.00
O429   O     0.67702   0.00872   0.40567   0.00000  Uiso   1.00
C430   C     0.80485   0.01196   0.55535   0.00000  Uiso   1.00
H431   H     0.82105   0.04750   0.54698   0.00000  Uiso   1.00
O432   O     0.82287   0.32473   0.59450   0.00000  Uiso   1.00
C433   C     0.24676   0.40029   0.48537   0.00000  Uiso   1.00
C434   C     0.25322   0.59971   0.51463   0.00000  Uiso   1.00
C435   C     0.01631   0.40710   0.44549   0.00000  Uiso   1.00
C436   C     0.48369   0.59290   0.55451   0.00000  Uiso   1.00
C437   C     0.23750   0.34548   0.48124   0.00000  Uiso   1.00
C438   C     0.26248   0.65452   0.51876   0.00000  Uiso   1.00
C439   C     0.16455   0.49972   0.50093   0.00000  Uiso   1.00
C440   C     0.33545   0.50028   0.49907   0.00000  Uiso   1.00
C441   C     0.40947   0.54571   0.52742   0.00000  Uiso   1.00
C442   C     0.09053   0.45429   0.47258   0.00000  Uiso   1.00
C443   C     0.38352   0.50112   0.49702   0.00000  Uiso   1.00
C444   C     0.11647   0.49888   0.50298   0.00000  Uiso   1.00
C445   C     0.40328   0.45689   0.46639   0.00000  Uiso   1.00
C446   C     0.09672   0.54312   0.53361   0.00000  Uiso   1.00
C447   C     0.44981   0.45590   0.46831   0.00000  Uiso   1.00
C448   C     0.05019   0.54410   0.53169   0.00000  Uiso   1.00
C449   C     0.47656   0.50084   0.49874   0.00000  Uiso   1.00
C450   C     0.02344   0.49916   0.50127   0.00000  Uiso   1.00
C451   C     0.45632   0.54729   0.52664   0.00000  Uiso   1.00
C452   C     0.04368   0.45272   0.47336   0.00000  Uiso   1.00
C453   C     0.46969   0.40996   0.44184   0.00000  Uiso   1.00
C454   C     0.03031   0.59004   0.55816   0.00000  Uiso   1.00
Cu455  Cu    0.25500   0.50579   0.56146   0.00000  Uiso   1.00
Cu456  Cu    0.24499   0.49421   0.43854   0.00000  Uiso   1.00
H457   H     0.39244   0.57831   0.55213   0.00000  Uiso   1.00
H458   H     0.10756   0.42169   0.44787   0.00000  Uiso   1.00
H459   H     0.38234   0.42254   0.44346   0.00000  Uiso   1.00
H460   H     0.11766   0.57746   0.55654   0.00000  Uiso   1.00
H461   H     0.44860   0.37540   0.42004   0.00000  Uiso   1.00
H462   H     0.05140   0.62461   0.57996   0.00000  Uiso   1.00
H463   H     0.21535   0.45933   0.64973   0.00000  Uiso   1.00
H464   H     0.28465   0.54067   0.35027   0.00000  Uiso   1.00
N465   N     0.23744   0.48547   0.34617   0.00000  Uiso   1.00
N466   N     0.26255   0.51453   0.65383   0.00000  Uiso   1.00
O467   O     0.25325   0.42871   0.53992   0.00000  Uiso   1.00
O468   O     0.24674   0.57129   0.46008   0.00000  Uiso   1.00
O469   O     0.24480   0.41892   0.43612   0.00000  Uiso   1.00
O470   O     0.25520   0.58108   0.56388   0.00000  Uiso   1.00
O471   O     0.18935   0.50488   0.55191   0.00000  Uiso   1.00
O472   O     0.31064   0.49512   0.44809   0.00000  Uiso   1.00
O473   O     0.18090   0.49510   0.44810   0.00000  Uiso   1.00
O474   O     0.31910   0.50490   0.55190   0.00000  Uiso   1.00
C475   C     0.03391   0.35494   0.42176   0.00000  Uiso   1.00
H476   H     0.01467   0.66061   0.38514   0.00000  Uiso   1.00
O477   O     0.06803   0.34076   0.44525   0.00000  Uiso   1.00
C478   C     0.46609   0.64506   0.57825   0.00000  Uiso   1.00
H479   H     0.48533   0.33940   0.61487   0.00000  Uiso   1.00
O480   O     0.43197   0.65924   0.55477   0.00000  Uiso   1.00
C481   C     0.19512   0.65471   0.44465   0.00000  Uiso   1.00
H482   H     0.17899   0.61909   0.45289   0.00000  Uiso   1.00
O483   O     0.17702   0.34205   0.40567   0.00000  Uiso   1.00
C484   C     0.30485   0.34530   0.55535   0.00000  Uiso   1.00
H485   H     0.32105   0.38083   0.54698   0.00000  Uiso   1.00
O486   O     0.32287   0.65807   0.59450   0.00000  Uiso   1.00
C487   C     0.74676   0.40029   0.48537   0.00000  Uiso   1.00
C488   C     0.75322   0.59971   0.51463   0.00000  Uiso   1.00
C489   C     0.51631   0.40710   0.44549   0.00000  Uiso   1.00
C490   C     0.98369   0.59290   0.55451   0.00000  Uiso   1.00
C491   C     0.73750   0.34548   0.48124   0.00000  Uiso   1.00
C492   C     0.76248   0.65452   0.51876   0.00000  Uiso   1.00
C493   C     0.66455   0.49972   0.50093   0.00000  Uiso   1.00
C494   C     0.83545   0.50028   0.49907   0.00000  Uiso   1.00
C495   C     0.90947   0.54571   0.52742   0.00000  Uiso   1.00
C496   C     0.59053   0.45429   0.47258   0.00000  Uiso   1.00
C497   C     0.88352   0.50112   0.49702   0.00000  Uiso   1.00
C498   C     0.61647   0.49888   0.50298   0.00000  Uiso   1.00
C499   C     0.90328   0.45689   0.46639   0.00000  Uiso   1.00
C500   C     0.59672   0.54312   0.53361   0.00000  Uiso   1.00
C501   C     0.94981   0.45590   0.46831   0.00000  Uiso   1.00
C502   C     0.55019   0.54410   0.53169   0.00000  Uiso   1.00
C503   C     0.97656   0.50084   0.49874   0.00000  Uiso   1.00
C504   C     0.52344   0.49916   0.50127   0.00000  Uiso   1.00
C505   C     0.95632   0.54729   0.52664   0.00000  Uiso   1.00
C506   C     0.54368   0.45272   0.47336   0.00000  Uiso   1.00
C507   C     0.96969   0.40996   0.44184   0.00000  Uiso   1.00
C508   C     0.53031   0.59004   0.55816   0.00000  Uiso   1.00
Cu509  Cu    0.75500   0.50579   0.56146   0.00000  Uiso   1.00
Cu510  Cu    0.74499   0.49421   0.43854   0.00000  Uiso   1.00
H511   H     0.89244   0.57831   0.55213   0.00000  Uiso   1.00
H512   H     0.60756   0.42169   0.44787   0.00000  Uiso   1.00
H513   H     0.88234   0.42254   0.44346   0.00000  Uiso   1.00
H514   H     0.61766   0.57746   0.55654   0.00000  Uiso   1.00
H515   H     0.94860   0.37540   0.42004   0.00000  Uiso   1.00
H516   H     0.55140   0.62461   0.57996   0.00000  Uiso   1.00
H517   H     0.71535   0.45933   0.64973   0.00000  Uiso   1.00
H518   H     0.78465   0.54067   0.35027   0.00000  Uiso   1.00
N519   N     0.73744   0.48547   0.34617   0.00000  Uiso   1.00
N520   N     0.76255   0.51453   0.65383   0.00000  Uiso   1.00
O521   O     0.75325   0.42871   0.53992   0.00000  Uiso   1.00
O522   O     0.74674   0.57129   0.46008   0.00000  Uiso   1.00
O523   O     0.74480   0.41892   0.43612   0.00000  Uiso   1.00
O524   O     0.75520   0.58108   0.56388   0.00000  Uiso   1.00
O525   O     0.68935   0.50488   0.55191   0.00000  Uiso   1.00
O526   O     0.81064   0.49512   0.44809   0.00000  Uiso   1.00
O527   O     0.68090   0.49510   0.44810   0.00000  Uiso   1.00
O528   O     0.81910   0.50490   0.55190   0.00000  Uiso   1.00
C529   C     0.53391   0.35494   0.42176   0.00000  Uiso   1.00
H530   H     0.51467   0.66061   0.38514   0.00000  Uiso   1.00
O531   O     0.56803   0.34076   0.44525   0.00000  Uiso   1.00
C532   C     0.96609   0.64506   0.57825   0.00000  Uiso   1.00
H533   H     0.98533   0.33940   0.61487   0.00000  Uiso   1.00
O534   O     0.93197   0.65924   0.55477   0.00000  Uiso   1.00
C535   C     0.69512   0.65471   0.44465   0.00000  Uiso   1.00
H536   H     0.67899   0.61909   0.45289   0.00000  Uiso   1.00
O537   O     0.67702   0.34205   0.40567   0.00000  Uiso   1.00
C538   C     0.80485   0.34530   0.55535   0.00000  Uiso   1.00
H539   H     0.82105   0.38083   0.54698   0.00000  Uiso   1.00
O540   O     0.82287   0.65807   0.59450   0.00000  Uiso   1.00
C541   C     0.24676   0.73362   0.48537   0.00000  Uiso   1.00
C542   C     0.25322   0.93305   0.51463   0.00000  Uiso   1.00
C543   C     0.01631   0.74043   0.44549   0.00000  Uiso   1.00
C544   C     0.48369   0.92624   0.55451   0.00000  Uiso   1.00
C545   C     0.23750   0.67881   0.48124   0.00000  Uiso   1.00
C546   C     0.26248   0.98785   0.51876   0.00000  Uiso   1.00
C547   C     0.16455   0.83305   0.50093   0.00000  Uiso   1.00
C548   C     0.33545   0.83361   0.49907   0.00000  Uiso   1.00
C549   C     0.40947   0.87905   0.52742   0.00000  Uiso   1.00
C550   C     0.09053   0.78762   0.47258   0.00000  Uiso   1.00
C551   C     0.38352   0.83445   0.49702   0.00000  Uiso   1.00
C552   C     0.11647   0.83221   0.50298   0.00000  Uiso   1.00
C553   C     0.40328   0.79022   0.46639   0.00000  Uiso   1.00
C554   C     0.09672   0.87645   0.53361   0.00000  Uiso   1.00
C555   C     0.44981   0.78923   0.46831   0.00000  Uiso   1.00
C556   C     0.05019   0.87744   0.53169   0.00000  Uiso   1.00
C557   C     0.47656   0.83417   0.49874   0.00000  Uiso   1.00
C558   C     0.02344   0.83250   0.50127   0.00000  Uiso   1.00
C559   C     0.45632   0.88062   0.52664   0.00000  Uiso   1.00
C560   C     0.04368   0.78605   0.47336   0.00000  Uiso   1.00
C561   C     0.46969   0.74329   0.44184   0.00000  Uiso   1.00
C562   C     0.03031   0.92338   0.55816   0.00000  Uiso   1.00
Cu563  Cu    0.25500   0.83913   0.56146   0.00000  Uiso   1.00
Cu564  Cu    0.24499   0.82754   0.43854   0.00000  Uiso   1.00
H565   H     0.39244   0.91165   0.55213   0.00000  Uiso   1.00
H566   H     0.10756   0.75502   0.44787   0.00000  Uiso   1.00
H567   H     0.38234   0.75587   0.44346   0.00000  Uiso   1.00
H568   H     0.11766   0.91080   0.55654   0.00000  Uiso   1.00
H569   H     0.44860   0.70873   0.42004   0.00000  Uiso   1.00
H570   H     0.05140   0.95794   0.57996   0.00000  Uiso   1.00
H571   H     0.21535   0.79267   0.64973   0.00000  Uiso   1.00
H572   H     0.28465   0.87400   0.35027   0.00000  Uiso   1.00
N573   N     0.23744   0.81881   0.34617   0.00000  Uiso   1.00
N574   N     0.26255   0.84786   0.65383   0.00000  Uiso   1.00
O575   O     0.25325   0.76204   0.53992   0.00000  Uiso   1.00
O576   O     0.24674   0.90462   0.46008   0.00000  Uiso   1.00
O577   O     0.24480   0.75226   0.43612   0.00000  Uiso   1.00
O578   O     0.25520   0.91441   0.56388   0.00000  Uiso   1.00
O579   O     0.18935   0.83821   0.55191   0.00000  Uiso   1.00
O580   O     0.31064   0.82845   0.44809   0.00000  Uiso   1.00
O581   O     0.18090   0.82843   0.44810   0.00000  Uiso   1.00
O582   O     0.31910   0.83824   0.55190   0.00000  Uiso   1.00
C583   C     0.03391   0.68828   0.42176   0.00000  Uiso   1.00
H584   H     0.01467   0.99394   0.38514   0.00000  Uiso   1.00
O585   O     0.06803   0.67410   0.44525   0.00000  Uiso   1.00
C586   C     0.46609   0.97839   0.57825   0.00000  Uiso   1.00
H587   H     0.48533   0.67273   0.61487   0.00000  Uiso   1.00
O588   O     0.43197   0.99257   0.55477   0.00000  Uiso   1.00
C589   C     0.19512   0.98805   0.44465   0.00000  Uiso   1.00
H590   H     0.17899   0.95243   0.45289   0.00000  Uiso   1.00
O591   O     0.17702   0.67538   0.40567   0.00000  Uiso   1.00
C592   C     0.30485   0.67863   0.55535   0.00000  Uiso   1.00
H593   H     0.32105   0.71417   0.54698   0.00000  Uiso   1.00
O594   O     0.32287   0.99140   0.59450   0.00000  Uiso   1.00
C595   C     0.74676   0.73362   0.48537   0.00000  Uiso   1.00
C596   C     0.75322   0.93305   0.51463   0.00000  Uiso   1.00
C597   C     0.51631   0.74043   0.44549   0.00000  Uiso   1.00
C598   C     0.98369   0.92624   0.55451   0.00000  Uiso   1.00
C599   C     0.73750   0.67881   0.48124   0.00000  Uiso   1.00
C600   C     0.76248   0.98785   0.51876   0.00000  Uiso   1.00
C601   C     0.66455   0.83305   0.50093   0.00000  Uiso   1.00
C602   C     0.83545   0.83361   0.49907   0.00000  Uiso   1.00
C603   C     0.90947   0.87905   0.52742   0.00000  Uiso   1.00
C604   C     0.59053   0.78762   0.47258   0.00000  Uiso   1.00
C605   C     0.88352   0.83445   0.49702   0.00000  Uiso   1.00
C606   C     0.61647   0.83221   0.50298   0.00000  Uiso   1.00
C607   C     0.90328   0.79022   0.46639   0.00000  Uiso   1.00
C608   C     0.59672   0.87645   0.53361   0.00000  Uiso   1.00
C609   C     0.94981   0.78923   0.46831   0.00000  Uiso   1.00
C610   C     0.55019   0.87744   0.53169   0.00000  Uiso   1.00
C611   C     0.97656   0.83417   0.49874   0.00000  Uiso   1.00
C612   C     0.52344   0.83250   0.50127   0.00000  Uiso   1.00
C613   C     0.95632   0.88062   0.52664   0.00000  Uiso   1.00
C614   C     0.54368   0.78605   0.47336   0.00000  Uiso   1.00
C615   C     0.96969   0.74329   0.44184   0.00000  Uiso   1.00
C616   C     0.53031   0.92338   0.55816   0.00000  Uiso   1.00
Cu617  Cu    0.75500   0.83913   0.56146   0.00000  Uiso   1.00
Cu618  Cu    0.74499   0.82754   0.43854   0.00000  Uiso   1.00
H619   H     0.89244   0.91165   0.55213   0.00000  Uiso   1.00
H620   H     0.60756   0.75502   0.44787   0.00000  Uiso   1.00
H621   H     0.88234   0.75587   0.44346   0.00000  Uiso   1.00
H622   H     0.61766   0.91080   0.55654   0.00000  Uiso   1.00
H623   H     0.94860   0.70873   0.42004   0.00000  Uiso   1.00
H624   H     0.55140   0.95794   0.57996   0.00000  Uiso   1.00
H625   H     0.71535   0.79267   0.64973   0.00000  Uiso   1.00
H626   H     0.78465   0.87400   0.35027   0.00000  Uiso   1.00
N627   N     0.73744   0.81881   0.34617   0.00000  Uiso   1.00
N628   N     0.76255   0.84786   0.65383   0.00000  Uiso   1.00
O629   O     0.75325   0.76204   0.53992   0.00000  Uiso   1.00
O630   O     0.74674   0.90462   0.46008   0.00000  Uiso   1.00
O631   O     0.74480   0.75226   0.43612   0.00000  Uiso   1.00
O632   O     0.75520   0.91441   0.56388   0.00000  Uiso   1.00
O633   O     0.68935   0.83821   0.55191   0.00000  Uiso   1.00
O634   O     0.81064   0.82845   0.44809   0.00000  Uiso   1.00
O635   O     0.68090   0.82843   0.44810   0.00000  Uiso   1.00
O636   O     0.81910   0.83824   0.55190   0.00000  Uiso   1.00
C637   C     0.53391   0.68828   0.42176   0.00000  Uiso   1.00
H638   H     0.51467   0.99394   0.38514   0.00000  Uiso   1.00
O639   O     0.56803   0.67410   0.44525   0.00000  Uiso   1.00
C640   C     0.96609   0.97839   0.57825   0.00000  Uiso   1.00
H641   H     0.98533   0.67273   0.61487   0.00000  Uiso   1.00
O642   O     0.93197   0.99257   0.55477   0.00000  Uiso   1.00
C643   C     0.69512   0.98805   0.44465   0.00000  Uiso   1.00
H644   H     0.67899   0.95243   0.45289   0.00000  Uiso   1.00
O645   O     0.67702   0.67538   0.40567   0.00000  Uiso   1.00
C646   C     0.80485   0.67863   0.55535   0.00000  Uiso   1.00
H647   H     0.82105   0.71417   0.54698   0.00000  Uiso   1.00
O648   O     0.82287   0.99140   0.59450   0.00000  Uiso   1.00
C649   C     0.24676   0.06695   0.81871   0.00000  Uiso   1.00
C650   C     0.25322   0.26638   0.84796   0.00000  Uiso   1.00
C651   C     0.01631   0.07377   0.77883   0.00000  Uiso   1.00
C652   C     0.48369   0.25957   0.88784   0.00000  Uiso   1.00
C653   C     0.23750   0.01215   0.81457   0.00000  Uiso   1.00
C654   C     0.26248   0.32119   0.85209   0.00000  Uiso   1.00
C655   C     0.16455   0.16639   0.83426   0.00000  Uiso   1.00
C656   C     0.33545   0.16695   0.83241   0.00000  Uiso   1.00
C657   C     0.40947   0.21238   0.86076   0.00000  Uiso   1.00
C658   C     0.09053   0.12096   0.80591   0.00000  Uiso   1.00
C659   C     0.38352   0.16779   0.83035   0.00000  Uiso   1.00
C660   C     0.11647   0.16555   0.83631   0.00000  Uiso   1.00
C661   C     0.40328   0.12355   0.79972   0.00000  Uiso   1.00
C662   C     0.09672   0.20978   0.86695   0.00000  Uiso   1.00
C663   C     0.44981   0.12256   0.80165   0.00000  Uiso   1.00
C664   C     0.05019   0.21077   0.86502   0.00000  Uiso   1.00
C665   C     0.47656   0.16751   0.83207   0.00000  Uiso   1.00
C666   C     0.02344   0.16583   0.83460   0.00000  Uiso   1.00
C667   C     0.45632   0.21395   0.85997   0.00000  Uiso   1.00
C668   C     0.04368   0.11938   0.80670   0.00000  Uiso   1.00
C669   C     0.46969   0.07662   0.77517   0.00000  Uiso   1.00
C670   C     0.03031   0.25671   0.89149   0.00000  Uiso   1.00
Cu671  Cu    0.25500   0.17246   0.89479   0.00000  Uiso   1.00
Cu672  Cu    0.24499   0.16087   0.77187   0.00000  Uiso   1.00
H673   H     0.39244   0.24498   0.88546   0.00000  Uiso   1.00
H674   H     0.10756   0.08836   0.78121   0.00000  Uiso   1.00
H675   H     0.38234   0.08920   0.77679   0.00000  Uiso   1.00
H676   H     0.11766   0.24413   0.88987   0.00000  Uiso   1.00
H677   H     0.44860   0.04206   0.75337   0.00000  Uiso   1.00
H678   H     0.05140   0.29127   0.91329   0.00000  Uiso   1.00
H679   H     0.21535   0.12600   0.98306   0.00000  Uiso   1.00
H680   H     0.28465   0.20733   0.68360   0.00000  Uiso   1.00
N681   N     0.23744   0.15214   0.67951   0.00000  Uiso   1.00
N682   N     0.26255   0.18119   0.98716   0.00000  Uiso   1.00
O683   O     0.25325   0.09538   0.87326   0.00000  Uiso   1.00
O684   O     0.24674   0.23796   0.79341   0.00000  Uiso   1.00
O685   O     0.24480   0.08559   0.76945   0.00000  Uiso   1.00
O686   O     0.25520   0.24774   0.89721   0.00000  Uiso   1.00
O687   O     0.18935   0.17155   0.88524   0.00000  Uiso   1.00
O688   O     0.31064   0.16179   0.78143   0.00000  Uiso   1.00
O689   O     0.18090   0.16176   0.78143   0.00000  Uiso   1.00
O690   O     0.31910   0.17157   0.88523   0.00000  Uiso   1.00
C691   C     0.03391   0.02161   0.75509   0.00000  Uiso   1.00
H692   H     0.01467   0.32727   0.71847   0.00000  Uiso   1.00
O693   O     0.06803   0.00743   0.77858   0.00000  Uiso   1.00
C694   C     0.46609   0.31172   0.91158   0.00000  Uiso   1.00
H695   H     0.48533   0.00606   0.94820   0.00000  Uiso   1.00
O696   O     0.43197   0.32591   0.88810   0.00000  Uiso   1.00
C697   C     0.19512   0.32138   0.77799   0.00000  Uiso   1.00
H698   H     0.17899   0.28576   0.78623   0.00000  Uiso   1.00
O699   O     0.17702   0.00872   0.73900   0.00000  Uiso   1.00
C700   C     0.30485   0.01196   0.88868   0.00000  Uiso   1.00
H701   H     0.32105   0.04750   0.88031   0.00000  Uiso   1.00
O702   O     0.32287   0.32473   0.92783   0.00000  Uiso   1.00
C703   C     0.74676   0.06695   0.81871   0.00000  Uiso   1.00
C704   C     0.75322   0.26638   0.84796   0.00000  Uiso   1.00
C705   C     0.51631   0.07377   0.77883   0.00000  Uiso   1.00
C706   C     0.98369   0.25957   0.88784   0.00000  Uiso   1.00
C707   C     0.73750   0.01215   0.81457   0.00000  Uiso   1.00
C708   C     0.76248   0.32119   0.85209   0.00000  Uiso   1.00
C709   C     0.66455   0.16639   0.83426   0.00000  Uiso   1.00
C710   C     0.83545   0.16695   0.83241   0.00000  Uiso   1.00
C711   C     0.90947   0.21238   0.86076   0.00000  Uiso   1.00
C712   C     0.59053   0.12096   0.80591   0.00000  Uiso   1.00
C713   C     0.88352   0.16779   0.83035   0.00000  Uiso   1.00
C714   C     0.61647   0.16555   0.83631   0.00000  Uiso   1.00
C715   C     0.90328   0.12355   0.79972   0.00000  Uiso   1.00
C716   C     0.59672   0.20978   0.86695   0.00000  Uiso   1.00
C717   C     0.94981   0.12256   0.80165   0.00000  Uiso   1.00
C718   C     0.55019   0.21077   0.86502   0.00000  Uiso   1.00
C719   C     0.97656   0.16751   0.83207   0.00000  Uiso   1.00
C720   C     0.52344   0.16583   0.83460   0.00000  Uiso   1.00
C721   C     0.95632   0.21395   0.85997   0.00000  Uiso   1.00
C722   C     0.54368   0.11938   0.80670   0.00000  Uiso   1.00
C723   C     0.96969   0.07662   0.77517   0.00000  Uiso   1.00
C724   C     0.53031   0.25671   0.89149   0.00000  Uiso   1.00
Cu725  Cu    0.75500   0.17246   0.89479   0.00000  Uiso   1.00
Cu726  Cu    0.74499   0.16087   0.77187   0.00000  Uiso   1.00
H727   H     0.89244   0.24498   0.88546   0.00000  Uiso   1.00
H728   H     0.60756   0.08836   0.78121   0.00000  Uiso   1.00
H729   H     0.88234   0.08920   0.77679   0.00000  Uiso   1.00
H730   H     0.61766   0.24413   0.88987   0.00000  Uiso   1.00
H731   H     0.94860   0.04206   0.75337   0.00000  Uiso   1.00
H732   H     0.55140   0.29127   0.91329   0.00000  Uiso   1.00
H733   H     0.71535   0.12600   0.98306   0.00000  Uiso   1.00
H734   H     0.78465   0.20733   0.68360   0.00000  Uiso   1.00
N735   N     0.73744   0.15214   0.67951   0.00000  Uiso   1.00
N736   N     0.76255   0.18119   0.98716   0.00000  Uiso   1.00
O737   O     0.75325   0.09538   0.87326   0.00000  Uiso   1.00
O738   O     0.74674   0.23796   0.79341   0.00000  Uiso   1.00
O739   O     0.74480   0.08559   0.76945   0.00000  Uiso   1.00
O740   O     0.75520   0.24774   0.89721   0.00000  Uiso   1.00
O741   O     0.68935   0.17155   0.88524   0.00000  Uiso   1.00
O742   O     0.81064   0.16179   0.78143   0.00000  Uiso   1.00
O743   O     0.68090   0.16176   0.78143   0.00000  Uiso   1.00
O744   O     0.81910   0.17157   0.88523   0.00000  Uiso   1.00
C745   C     0.53391   0.02161   0.75509   0.00000  Uiso   1.00
H746   H     0.51467   0.32727   0.71847   0.00000  Uiso   1.00
O747   O     0.56803   0.00743   0.77858   0.00000  Uiso   1.00
C748   C     0.96609   0.31172   0.91158   0.00000  Uiso   1.00
H749   H     0.98533   0.00606   0.94820   0.00000  Uiso   1.00
O750   O     0.93197   0.32591   0.88810   0.00000  Uiso   1.00
C751   C     0.69512   0.32138   0.77799   0.00000  Uiso   1.00
H752   H     0.67899   0.28576   0.78623   0.00000  Uiso   1.00
O753   O     0.67702   0.00872   0.73900   0.00000  Uiso   1.00
C754   C     0.80485   0.01196   0.88868   0.00000  Uiso   1.00
H755   H     0.82105   0.04750   0.88031   0.00000  Uiso   1.00
O756   O     0.82287   0.32473   0.92783   0.00000  Uiso   1.00
C757   C     0.24676   0.40029   0.81871   0.00000  Uiso   1.00
C758   C     0.25322   0.59971   0.84796   0.00000  Uiso   1.00
C759   C     0.01631   0.40710   0.77883   0.00000  Uiso   1.00
C760   C     0.48369   0.59290   0.88784   0.00000  Uiso   1.00
C761   C     0.23750   0.34548   0.81457   0.00000  Uiso   1.00
C762   C     0.26248   0.65452   0.85209   0.00000  Uiso   1.00
C763   C     0.16455   0.49972   0.83426   0.00000  Uiso   1.00
C764   C     0.33545   0.50028   0.83241   0.00000  Uiso   1.00
C765   C     0.40947   0.54571   0.86076   0.00000  Uiso   1.00
C766   C     0.09053   0.45429   0.80591   0.00000  Uiso   1.00
C767   C     0.38352   0.50112   0.83035   0.00000  Uiso   1.00
C768   C     0.11647   0.49888   0.83631   0.00000  Uiso   1.00
C769   C     0.40328   0.45689   0.79972   0.00000  Uiso   1.00
C770   C     0.09672   0.54312   0.86695   0.00000  Uiso   1.00
C771   C     0.44981   0.45590   0.80165   0.00000  Uiso   1.00
C772   C     0.05019   0.54410   0.86502   0.00000  Uiso   1.00
C773   C     0.47656   0.50084   0.83207   0.00000  Uiso   1.00
C774   C     0.02344   0.49916   0.83460   0.00000  Uiso   1.00
C775   C     0.45632   0.54729   0.85997   0.00000  Uiso   1.00
C776   C     0.04368   0.45272   0.80670   0.00000  Uiso   1.00
C777   C     0.46969   0.40996   0.77517   0.00000  Uiso   1.00
C778   C     0.03031   0.59004   0.89149   0.00000  Uiso   1.00
Cu779  Cu    0.25500   0.50579   0.89479   0.00000  Uiso   1.00
Cu780  Cu    0.24499   0.49421   0.77187   0.00000  Uiso   1.00
H781   H     0.39244   0.57831   0.88546   0.00000  Uiso   1.00
H782   H     0.10756   0.42169   0.78121   0.00000  Uiso   1.00
H783   H     0.38234   0.42254   0.77679   0.00000  Uiso   1.00
H784   H     0.11766   0.57746   0.88987   0.00000  Uiso   1.00
H785   H     0.44860   0.37540   0.75337   0.00000  Uiso   1.00
H786   H     0.05140   0.62461   0.91329   0.00000  Uiso   1.00
H787   H     0.21535   0.45933   0.98306   0.00000  Uiso   1.00
H788   H     0.28465   0.54067   0.68360   0.00000  Uiso   1.00
N789   N     0.23744   0.48547   0.67951   0.00000  Uiso   1.00
N790   N     0.26255   0.51453   0.98716   0.00000  Uiso   1.00
O791   O     0.25325   0.42871   0.87326   0.00000  Uiso   1.00
O792   O     0.24674   0.57129   0.79341   0.00000  Uiso   1.00
O793   O     0.24480   0.41892   0.76945   0.00000  Uiso   1.00
O794   O     0.25520   0.58108   0.89721   0.00000  Uiso   1.00
O795   O     0.18935   0.50488   0.88524   0.00000  Uiso   1.00
O796   O     0.31064   0.49512   0.78143   0.00000  Uiso   1.00
O797   O     0.18090   0.49510   0.78143   0.00000  Uiso   1.00
O798   O     0.31910   0.50490   0.88523   0.00000  Uiso   1.00
C799   C     0.03391   0.35494   0.75509   0.00000  Uiso   1.00
H800   H     0.01467   0.66061   0.71847   0.00000  Uiso   1.00
O801   O     0.06803   0.34076   0.77858   0.00000  Uiso   1.00
C802   C     0.46609   0.64506   0.91158   0.00000  Uiso   1.00
H803   H     0.48533   0.33940   0.94820   0.00000  Uiso   1.00
O804   O     0.43197   0.65924   0.88810   0.00000  Uiso   1.00
C805   C     0.19512   0.65471   0.77799   0.00000  Uiso   1.00
H806   H     0.17899   0.61909   0.78623   0.00000  Uiso   1.00
O807   O     0.17702   0.34205   0.73900   0.00000  Uiso   1.00
C808   C     0.30485   0.34530   0.88868   0.00000  Uiso   1.00
H809   H     0.32105   0.38083   0.88031   0.00000  Uiso   1.00
O810   O     0.32287   0.65807   0.92783   0.00000  Uiso   1.00
C811   C     0.74676   0.40029   0.81871   0.00000  Uiso   1.00
C812   C     0.75322   0.59971   0.84796   0.00000  Uiso   1.00
C813   C     0.51631   0.40710   0.77883   0.00000  Uiso   1.00
C814   C     0.98369   0.59290   0.88784   0.00000  Uiso   1.00
C815   C     0.73750   0.34548   0.81457   0.00000  Uiso   1.00
C816   C     0.76248   0.65452   0.85209   0.00000  Uiso   1.00
C817   C     0.66455   0.49972   0.83426   0.00000  Uiso   1.00
C818   C     0.83545   0.50028   0.83241   0.00000  Uiso   1.00
C819   C     0.90947   0.54571   0.86076   0.00000  Uiso   1.00
C820   C     0.59053   0.45429   0.80591   0.00000  Uiso   1.00
C821   C     0.88352   0.50112   0.83035   0.00000  Uiso   1.00
C822   C     0.61647   0.49888   0.83631   0.00000  Uiso   1.00
C823   C     0.90328   0.45689   0.79972   0.00000  Uiso   1.00
C824   C     0.59672   0.54312   0.86695   0.00000  Uiso   1.00
C825   C     0.94981   0.45590   0.80165   0.00000  Uiso   1.00
C826   C     0.55019   0.54410   0.86502   0.00000  Uiso   1.00
C827   C     0.97656   0.50084   0.83207   0.00000  Uiso   1.00
C828   C     0.52344   0.49916   0.83460   0.00000  Uiso   1.00
C829   C     0.95632   0.54729   0.85997   0.00000  Uiso   1.00
C830   C     0.54368   0.45272   0.80670   0.00000  Uiso   1.00
C831   C     0.96969   0.40996   0.77517   0.00000  Uiso   1.00
C832   C     0.53031   0.59004   0.89149   0.00000  Uiso   1.00
Cu833  Cu    0.75500   0.50579   0.89479   0.00000  Uiso   1.00
Cu834  Cu    0.74499   0.49421   0.77187   0.00000  Uiso   1.00
H835   H     0.89244   0.57831   0.88546   0.00000  Uiso   1.00
H836   H     0.60756   0.42169   0.78121   0.00000  Uiso   1.00
H837   H     0.88234   0.42254   0.77679   0.00000  Uiso   1.00
H838   H     0.61766   0.57746   0.88987   0.00000  Uiso   1.00
H839   H     0.94860   0.37540   0.75337   0.00000  Uiso   1.00
H840   H     0.55140   0.62461   0.91329   0.00000  Uiso   1.00
H841   H     0.71535   0.45933   0.98306   0.00000  Uiso   1.00
H842   H     0.78465   0.54067   0.68360   0.00000  Uiso   1.00
N843   N     0.73744   0.48547   0.67951   0.00000  Uiso   1.00
N844   N     0.76255   0.51453   0.98716   0.00000  Uiso   1.00
O845   O     0.75325   0.42871   0.87326   0.00000  Uiso   1.00
O846   O     0.74674   0.57129   0.79341   0.00000  Uiso   1.00
O847   O     0.74480   0.41892   0.76945   0.00000  Uiso   1.00
O848   O     0.75520   0.58108   0.89721   0.00000  Uiso   1.00
O849   O     0.68935   0.50488   0.88524   0.00000  Uiso   1.00
O850   O     0.81064   0.49512   0.78143   0.00000  Uiso   1.00
O851   O     0.68090   0.49510   0.78143   0.00000  Uiso   1.00
O852   O     0.81910   0.50490   0.88523   0.00000  Uiso   1.00
C853   C     0.53391   0.35494   0.75509   0.00000  Uiso   1.00
H854   H     0.51467   0.66061   0.71847   0.00000  Uiso   1.00
O855   O     0.56803   0.34076   0.77858   0.00000  Uiso   1.00
C856   C     0.96609   0.64506   0.91158   0.00000  Uiso   1.00
H857   H     0.98533   0.33940   0.94820   0.00000  Uiso   1.00
O858   O     0.93197   0.65924   0.88810   0.00000  Uiso   1.00
C859   C     0.69512   0.65471   0.77799   0.00000  Uiso   1.00
H860   H     0.67899   0.61909   0.78623   0.00000  Uiso   1.00
O861   O     0.67702   0.34205   0.73900   0.00000  Uiso   1.00
C862   C     0.80485   0.34530   0.88868   0.00000  Uiso   1.00
H863   H     0.82105   0.38083   0.88031   0.00000  Uiso   1.00
O864   O     0.82287   0.65807   0.92783   0.00000  Uiso   1.00
C865   C     0.24676   0.73362   0.81871   0.00000  Uiso   1.00
C866   C     0.25322   0.93305   0.84796   0.00000  Uiso   1.00
C867   C     0.01631   0.74043   0.77883   0.00000  Uiso   1.00
C868   C     0.48369   0.92624   0.88784   0.00000  Uiso   1.00
C869   C     0.23750   0.67881   0.81457   0.00000  Uiso   1.00
C870   C     0.26248   0.98785   0.85209   0.00000  Uiso   1.00
C871   C     0.16455   0.83305   0.83426   0.00000  Uiso   1.00
C872   C     0.33545   0.83361   0.83241   0.00000  Uiso   1.00
C873   C     0.40947   0.87905   0.86076   0.00000  Uiso   1.00
C874   C     0.09053   0.78762   0.80591   0.00000  Uiso   1.00
C875   C     0.38352   0.83445   0.83035   0.00000  Uiso   1.00
C876   C     0.11647   0.83221   0.83631   0.00000  Uiso   1.00
C877   C     0.40328   0.79022   0.79972   0.00000  Uiso   1.00
C878   C     0.09672   0.87645   0.86695   0.00000  Uiso   1.00
C879   C     0.44981   0.78923   0.80165   0.00000  Uiso   1.00
C880   C     0.05019   0.87744   0.86502   0.00000  Uiso   1.00
C881   C     0.47656   0.83417   0.83207   0.00000  Uiso   1.00
C882   C     0.02344   0.83250   0.83460   0.00000  Uiso   1.00
C883   C     0.45632   0.88062   0.85997   0.00000  Uiso   1.00
C884   C     0.04368   0.78605   0.80670   0.00000  Uiso   1.00
C885   C     0.46969   0.74329   0.77517   0.00000  Uiso   1.00
C886   C     0.03031   0.92338   0.89149   0.00000  Uiso   1.00
Cu887  Cu    0.25500   0.83913   0.89479   0.00000  Uiso   1.00
Cu888  Cu    0.24499   0.82754   0.77187   0.00000  Uiso   1.00
H889   H     0.39244   0.91165   0.88546   0.00000  Uiso   1.00
H890   H     0.10756   0.75502   0.78121   0.00000  Uiso   1.00
H891   H     0.38234   0.75587   0.77679   0.00000  Uiso   1.00
H892   H     0.11766   0.91080   0.88987   0.00000  Uiso   1.00
H893   H     0.44860   0.70873   0.75337   0.00000  Uiso   1.00
H894   H     0.05140   0.95794   0.91329   0.00000  Uiso   1.00
H895   H     0.21535   0.79267   0.98306   0.00000  Uiso   1.00
H896   H     0.28465   0.87400   0.68360   0.00000  Uiso   1.00
N897   N     0.23744   0.81881   0.67951   0.00000  Uiso   1.00
N898   N     0.26255   0.84786   0.98716   0.00000  Uiso   1.00
O899   O     0.25325   0.76204   0.87326   0.00000  Uiso   1.00
O900   O     0.24674   0.90462   0.79341   0.00000  Uiso   1.00
O901   O     0.24480   0.75226   0.76945   0.00000  Uiso   1.00
O902   O     0.25520   0.91441   0.89721   0.00000  Uiso   1.00
O903   O     0.18935   0.83821   0.88524   0.00000  Uiso   1.00
O904   O     0.31064   0.82845   0.78143   0.00000  Uiso   1.00
O905   O     0.18090   0.82843   0.78143   0.00000  Uiso   1.00
O906   O     0.31910   0.83824   0.88523   0.00000  Uiso   1.00
C907   C     0.03391   0.68828   0.75509   0.00000  Uiso   1.00
H908   H     0.01467   0.99394   0.71847   0.00000  Uiso   1.00
O909   O     0.06803   0.67410   0.77858   0.00000  Uiso   1.00
C910   C     0.46609   0.97839   0.91158   0.00000  Uiso   1.00
H911   H     0.48533   0.67273   0.94820   0.00000  Uiso   1.00
O912   O     0.43197   0.99257   0.88810   0.00000  Uiso   1.00
C913   C     0.19512   0.98805   0.77799   0.00000  Uiso   1.00
H914   H     0.17899   0.95243   0.78623   0.00000  Uiso   1.00
O915   O     0.17702   0.67538   0.73900   0.00000  Uiso   1.00
C916   C     0.30485   0.67863   0.88868   0.00000  Uiso   1.00
H917   H     0.32105   0.71417   0.88031   0.00000  Uiso   1.00
O918   O     0.32287   0.99140   0.92783   0.00000  Uiso   1.00
C919   C     0.74676   0.73362   0.81871   0.00000  Uiso   1.00
C920   C     0.75322   0.93305   0.84796   0.00000  Uiso   1.00
C921   C     0.51631   0.74043   0.77883   0.00000  Uiso   1.00
C922   C     0.98369   0.92624   0.88784   0.00000  Uiso   1.00
C923   C     0.73750   0.67881   0.81457   0.00000  Uiso   1.00
C924   C     0.76248   0.98785   0.85209   0.00000  Uiso   1.00
C925   C     0.66455   0.83305   0.83426   0.00000  Uiso   1.00
C926   C     0.83545   0.83361   0.83241   0.00000  Uiso   1.00
C927   C     0.90947   0.87905   0.86076   0.00000  Uiso   1.00
C928   C     0.59053   0.78762   0.80591   0.00000  Uiso   1.00
C929   C     0.88352   0.83445   0.83035   0.00000  Uiso   1.00
C930   C     0.61647   0.83221   0.83631   0.00000  Uiso   1.00
C931   C     0.90328   0.79022   0.79972   0.00000  Uiso   1.00
C932   C     0.59672   0.87645   0.86695   0.00000  Uiso   1.00
C933   C     0.94981   0.78923   0.80165   0.00000  Uiso   1.00
C934   C     0.55019   0.87744   0.86502   0.00000  Uiso   1.00
C935   C     0.97656   0.83417   0.83207   0.00000  Uiso   1.00
C936   C     0.52344   0.83250   0.83460   0.00000  Uiso   1.00
C937   C     0.95632   0.88062   0.85997   0.00000  Uiso   1.00
C938   C     0.54368   0.78605   0.80670   0.00000  Uiso   1.00
C939   C     0.96969   0.74329   0.77517   0.00000  Uiso   1.00
C940   C     0.53031   0.92338   0.89149   0.00000  Uiso   1.00
Cu941  Cu    0.75500   0.83913   0.89479   0.00000  Uiso   1.00
Cu942  Cu    0.74499   0.82754   0.77187   0.00000  Uiso   1.00
H943   H     0.89244   0.91165   0.88546   0.00000  Uiso   1.00
H944   H     0.60756   0.75502   0.78121   0.00000  Uiso   1.00
H945   H     0.88234   0.75587   0.77679   0.00000  Uiso   1.00
H946   H     0.61766   0.91080   0.88987   0.00000  Uiso   1.00
H947   H     0.94860   0.70873   0.75337   0.00000  Uiso   1.00
H948   H     0.55140   0.95794   0.91329   0.00000  Uiso   1.00
H949   H     0.71535   0.79267   0.98306   0.00000  Uiso   1.00
H950   H     0.78465   0.87400   0.68360   0.00000  Uiso   1.00
N951   N     0.73744   0.81881   0.67951   0.00000  Uiso   1.00
N952   N     0.76255   0.84786   0.98716   0.00000  Uiso   1.00
O953   O     0.75325   0.76204   0.87326   0.00000  Uiso   1.00
O954   O     0.74674   0.90462   0.79341   0.00000  Uiso   1.00
O955   O     0.74480   0.75226   0.76945   0.00000  Uiso   1.00
O956   O     0.75520   0.91441   0.89721   0.00000  Uiso   1.00
O957   O     0.68935   0.83821   0.88524   0.00000  Uiso   1.00
O958   O     0.81064   0.82845   0.78143   0.00000  Uiso   1.00
O959   O     0.68090   0.82843   0.78143   0.00000  Uiso   1.00
O960   O     0.81910   0.83824   0.88523   0.00000  Uiso   1.00
C961   C     0.53391   0.68828   0.75509   0.00000  Uiso   1.00
H962   H     0.51467   0.99394   0.71847   0.00000  Uiso   1.00
O963   O     0.56803   0.67410   0.77858   0.00000  Uiso   1.00
C964   C     0.96609   0.97839   0.91158   0.00000  Uiso   1.00
H965   H     0.98533   0.67273   0.94820   0.00000  Uiso   1.00
O966   O     0.93197   0.99257   0.88810   0.00000  Uiso   1.00
C967   C     0.69512   0.98805   0.77799   0.00000  Uiso   1.00
H968   H     0.67899   0.95243   0.78623   0.00000  Uiso   1.00
O969   O     0.67702   0.67538   0.73900   0.00000  Uiso   1.00
C970   C     0.80485   0.67863   0.88868   0.00000  Uiso   1.00
H971   H     0.82105   0.71417   0.88031   0.00000  Uiso   1.00
O972   O     0.82287   0.99140   0.92783   0.00000  Uiso   1.00
loop_
_geom_bond_atom_site_label_1
_geom_bond_atom_site_label_2
_geom_bond_distance
_geom_bond_site_symmetry_2
_ccdc_geom_bond_type
C1     C5      1.428   .     S
C1     O37     1.288   .     A
C1     O35     1.285   .     A
C2     O38     1.288   .     A
C2     O36     1.285   .     A
C2     C6      1.428   .     S
C3     C43     1.486   .     S
C3     C20     1.421   .     A
C3     C75     1.397   1_455 S
C4     C46     1.486   .     S
C4     C19     1.421   .     A
C4     C76     1.397   .     S
C5     C222    1.353   1_545 S
C5     C265    1.500   1_545 S
C6     C113    1.353   .     S
C6     C160    1.500   .     S
C7     O41     1.292   .     A
C7     C12     1.442   .     S
C7     O39     1.294   .     A
C8     C11     1.442   .     S
C8     O42     1.292   .     A
C8     O40     1.294   .     A
C9     H25     1.081   .     S
C9     C11     1.394   .     A
C9     C19     1.402   .     A
C10    C20     1.402   .     A
C10    H26     1.081   .     S
C10    C12     1.394   .     A
C11    C13     1.391   .     A
C12    C14     1.391   .     A
C13    C15     1.391   .     A
C13    H27     1.085   .     S
C14    C16     1.391   .     A
C14    H28     1.085   .     S
C15    C21     1.398   .     A
C15    C17     1.413   .     A
C16    C18     1.413   .     A
C16    C22     1.398   .     A
C17    C19     1.422   .     A
C17    C72     1.403   .     S
C18    C20     1.422   .     A
C18    C71     1.403   1_455 S
C21    H29     1.085   .     S
C21    C57     1.397   .     S
C22    H30     1.085   .     S
C22    C58     1.397   1_455 S
Cu23   Cu24    2.690   .     S
Cu23   O38     1.953   .     S
Cu23   O35     1.966   .     S
Cu23   N34     2.021   .     S
Cu23   O42     1.945   .     S
Cu23   O39     1.960   .     S
Cu24   N33     2.021   .     S
Cu24   O37     1.953   .     S
Cu24   O41     1.945   .     S
Cu24   O36     1.966   .     S
Cu24   O40     1.960   .     S
H31    N357    1.029   .     S
H32    N682    1.029   1_554 S
N33    H679    1.029   1_554 S
N33    N682    1.288   1_554 S
N34    N357    1.288   .     S
N34    H356    1.029   .     S
C43    O45     1.221   .     D
C43    H260    1.085   1_545 S
H44    C151    1.085   .     S
C46    O48     1.221   .     D
C46    H155    1.085   .     S
H47    C262    1.085   1_545 S
C49    H50     1.085   .     S
C49    C113    1.500   .     S
C49    O159    1.221   .     S
O51    C265    1.221   1_545 S
C52    H53     1.085   .     S
C52    C222    1.500   1_545 S
C52    O270    1.222   1_545 S
O54    C160    1.222   .     S
C55    C59     1.428   .     S
C55    O91     1.288   .     A
C55    O89     1.285   .     A
C56    O92     1.288   .     A
C56    O90     1.285   .     A
C56    C60     1.428   .     S
C57    C97     1.486   .     S
C57    C74     1.421   .     A
C58    C100    1.486   .     S
C58    C73     1.421   .     A
C58    C22     1.397   1_655 S
C59    C276    1.353   1_545 S
C59    C319    1.500   1_545 S
C60    C167    1.353   .     S
C60    C214    1.500   .     S
C61    O95     1.292   .     A
C61    C66     1.442   .     S
C61    O93     1.294   .     A
C62    C65     1.442   .     S
C62    O96     1.292   .     A
C62    O94     1.294   .     A
C63    H79     1.081   .     S
C63    C65     1.394   .     A
C63    C73     1.402   .     A
C64    C74     1.402   .     A
C64    H80     1.081   .     S
C64    C66     1.394   .     A
C65    C67     1.391   .     A
C66    C68     1.391   .     A
C67    C69     1.391   .     A
C67    H81     1.085   .     S
C68    C70     1.391   .     A
C68    H82     1.085   .     S
C69    C75     1.398   .     A
C69    C71     1.413   .     A
C70    C72     1.413   .     A
C70    C76     1.398   .     A
C71    C73     1.422   .     A
C71    C18     1.403   1_655 S
C72    C74     1.422   .     A
C75    H83     1.085   .     S
C75    C3      1.397   1_655 S
C76    H84     1.085   .     S
Cu77   Cu78    2.690   .     S
Cu77   O92     1.953   .     S
Cu77   O89     1.966   .     S
Cu77   N88     2.021   .     S
Cu77   O96     1.945   .     S
Cu77   O93     1.960   .     S
Cu78   N87     2.021   .     S
Cu78   O91     1.953   .     S
Cu78   O95     1.945   .     S
Cu78   O90     1.966   .     S
Cu78   O94     1.960   .     S
H85    N411    1.029   .     S
H86    N736    1.029   1_554 S
N87    H733    1.029   1_554 S
N87    N736    1.288   1_554 S
N88    N411    1.288   .     S
N88    H410    1.029   .     S
C97    O99     1.221   .     D
C97    H314    1.085   1_545 S
H98    C205    1.085   .     S
C100   O102    1.221   .     D
C100   H209    1.085   .     S
H101   C316    1.085   1_545 S
C103   H104    1.085   .     S
C103   C167    1.500   .     S
C103   O213    1.221   .     S
O105   C319    1.221   1_545 S
C106   H107    1.085   .     S
C106   C276    1.500   1_545 S
C106   O324    1.222   1_545 S
O108   C214    1.222   .     S
C109   C113    1.428   .     S
C109   O145    1.288   .     A
C109   O143    1.285   .     A
C110   O146    1.288   .     A
C110   O144    1.285   .     A
C110   C114    1.428   .     S
C111   C151    1.486   .     S
C111   C128    1.421   .     A
C111   C183    1.397   1_455 S
C112   C154    1.486   .     S
C112   C127    1.421   .     A
C112   C184    1.397   .     S
C114   C221    1.353   .     S
C114   C268    1.500   .     S
C115   O149    1.292   .     A
C115   C120    1.442   .     S
C115   O147    1.294   .     A
C116   C119    1.442   .     S
C116   O150    1.292   .     A
C116   O148    1.294   .     A
C117   H133    1.081   .     S
C117   C119    1.394   .     A
C117   C127    1.402   .     A
C118   C128    1.402   .     A
C118   H134    1.081   .     S
C118   C120    1.394   .     A
C119   C121    1.391   .     A
C120   C122    1.391   .     A
C121   C123    1.391   .     A
C121   H135    1.085   .     S
C122   C124    1.391   .     A
C122   H136    1.085   .     S
C123   C129    1.398   .     A
C123   C125    1.413   .     A
C124   C126    1.413   .     A
C124   C130    1.398   .     A
C125   C127    1.422   .     A
C125   C180    1.403   .     S
C126   C128    1.422   .     A
C126   C179    1.403   1_455 S
C129   H137    1.085   .     S
C129   C165    1.397   .     S
C130   H138    1.085   .     S
C130   C166    1.397   1_455 S
Cu131  Cu132   2.690   .     S
Cu131  O146    1.953   .     S
Cu131  O143    1.966   .     S
Cu131  N142    2.021   .     S
Cu131  O150    1.945   .     S
Cu131  O147    1.960   .     S
Cu132  N141    2.021   .     S
Cu132  O145    1.953   .     S
Cu132  O149    1.945   .     S
Cu132  O144    1.966   .     S
Cu132  O148    1.960   .     S
H139   N465    1.029   .     S
H140   N790    1.029   1_554 S
N141   H787    1.029   1_554 S
N141   N790    1.288   1_554 S
N142   N465    1.288   .     S
N142   H464    1.029   .     S
C151   O153    1.221   .     D
H152   C259    1.085   .     S
C154   O156    1.221   .     D
C154   H263    1.085   .     S
C157   H158    1.085   .     S
C157   C221    1.500   .     S
C157   O267    1.221   .     S
C160   H161    1.085   .     S
O162   C268    1.222   .     S
C163   C167    1.428   .     S
C163   O199    1.288   .     A
C163   O197    1.285   .     A
C164   O200    1.288   .     A
C164   O198    1.285   .     A
C164   C168    1.428   .     S
C165   C205    1.486   .     S
C165   C182    1.421   .     A
C166   C208    1.486   .     S
C166   C181    1.421   .     A
C166   C130    1.397   1_655 S
C168   C275    1.353   .     S
C168   C322    1.500   .     S
C169   O203    1.292   .     A
C169   C174    1.442   .     S
C169   O201    1.294   .     A
C170   C173    1.442   .     S
C170   O204    1.292   .     A
C170   O202    1.294   .     A
C171   H187    1.081   .     S
C171   C173    1.394   .     A
C171   C181    1.402   .     A
C172   C182    1.402   .     A
C172   H188    1.081   .     S
C172   C174    1.394   .     A
C173   C175    1.391   .     A
C174   C176    1.391   .     A
C175   C177    1.391   .     A
C175   H189    1.085   .     S
C176   C178    1.391   .     A
C176   H190    1.085   .     S
C177   C183    1.398   .     A
C177   C179    1.413   .     A
C178   C180    1.413   .     A
C178   C184    1.398   .     A
C179   C181    1.422   .     A
C179   C126    1.403   1_655 S
C180   C182    1.422   .     A
C183   H191    1.085   .     S
C183   C111    1.397   1_655 S
C184   H192    1.085   .     S
Cu185  Cu186   2.690   .     S
Cu185  O200    1.953   .     S
Cu185  O197    1.966   .     S
Cu185  N196    2.021   .     S
Cu185  O204    1.945   .     S
Cu185  O201    1.960   .     S
Cu186  N195    2.021   .     S
Cu186  O199    1.953   .     S
Cu186  O203    1.945   .     S
Cu186  O198    1.966   .     S
Cu186  O202    1.960   .     S
H193   N519    1.029   .     S
H194   N844    1.029   1_554 S
N195   H841    1.029   1_554 S
N195   N844    1.288   1_554 S
N196   N519    1.288   .     S
N196   H518    1.029   .     S
C205   O207    1.221   .     D
H206   C313    1.085   .     S
C208   O210    1.221   .     D
C208   H317    1.085   .     S
C211   H212    1.085   .     S
C211   C275    1.500   .     S
C211   O321    1.221   .     S
C214   H215    1.085   .     S
O216   C322    1.222   .     S
C217   C221    1.428   .     S
C217   O253    1.288   .     A
C217   O251    1.285   .     A
C218   O254    1.288   .     A
C218   O252    1.285   .     A
C218   C222    1.428   .     S
C219   C259    1.486   .     S
C219   C236    1.421   .     A
C219   C291    1.397   1_455 S
C220   C262    1.486   .     S
C220   C235    1.421   .     A
C220   C292    1.397   .     S
C222   C5      1.353   1_565 S
C222   C52     1.500   1_565 S
C223   O257    1.292   .     A
C223   C228    1.442   .     S
C223   O255    1.294   .     A
C224   C227    1.442   .     S
C224   O258    1.292   .     A
C224   O256    1.294   .     A
C225   H241    1.081   .     S
C225   C227    1.394   .     A
C225   C235    1.402   .     A
C226   C236    1.402   .     A
C226   H242    1.081   .     S
C226   C228    1.394   .     A
C227   C229    1.391   .     A
C228   C230    1.391   .     A
C229   C231    1.391   .     A
C229   H243    1.085   .     S
C230   C232    1.391   .     A
C230   H244    1.085   .     S
C231   C237    1.398   .     A
C231   C233    1.413   .     A
C232   C234    1.413   .     A
C232   C238    1.398   .     A
C233   C235    1.422   .     A
C233   C288    1.403   .     S
C234   C236    1.422   .     A
C234   C287    1.403   1_455 S
C237   H245    1.085   .     S
C237   C273    1.397   .     S
C238   H246    1.085   .     S
C238   C274    1.397   1_455 S
Cu239  Cu240   2.690   .     S
Cu239  O254    1.953   .     S
Cu239  O251    1.966   .     S
Cu239  N250    2.021   .     S
Cu239  O258    1.945   .     S
Cu239  O255    1.960   .     S
Cu240  N249    2.021   .     S
Cu240  O253    1.953   .     S
Cu240  O257    1.945   .     S
Cu240  O252    1.966   .     S
Cu240  O256    1.960   .     S
H247   N573    1.029   .     S
H248   N898    1.029   1_554 S
N249   H895    1.029   1_554 S
N249   N898    1.288   1_554 S
N250   N573    1.288   .     S
N250   H572    1.029   .     S
C259   O261    1.221   .     D
H260   C43     1.085   1_565 S
C262   O264    1.221   .     D
C262   H47     1.085   1_565 S
C265   H266    1.085   .     S
C265   C5      1.500   1_565 S
C265   O51     1.221   1_565 S
C268   H269    1.085   .     S
O270   C52     1.222   1_565 S
C271   C275    1.428   .     S
C271   O307    1.288   .     A
C271   O305    1.285   .     A
C272   O308    1.288   .     A
C272   O306    1.285   .     A
C272   C276    1.428   .     S
C273   C313    1.486   .     S
C273   C290    1.421   .     A
C274   C316    1.486   .     S
C274   C289    1.421   .     A
C274   C238    1.397   1_655 S
C276   C59     1.353   1_565 S
C276   C106    1.500   1_565 S
C277   O311    1.292   .     A
C277   C282    1.442   .     S
C277   O309    1.294   .     A
C278   C281    1.442   .     S
C278   O312    1.292   .     A
C278   O310    1.294   .     A
C279   H295    1.081   .     S
C279   C281    1.394   .     A
C279   C289    1.402   .     A
C280   C290    1.402   .     A
C280   H296    1.081   .     S
C280   C282    1.394   .     A
C281   C283    1.391   .     A
C282   C284    1.391   .     A
C283   C285    1.391   .     A
C283   H297    1.085   .     S
C284   C286    1.391   .     A
C284   H298    1.085   .     S
C285   C291    1.398   .     A
C285   C287    1.413   .     A
C286   C288    1.413   .     A
C286   C292    1.398   .     A
C287   C289    1.422   .     A
C287   C234    1.403   1_655 S
C288   C290    1.422   .     A
C291   H299    1.085   .     S
C291   C219    1.397   1_655 S
C292   H300    1.085   .     S
Cu293  Cu294   2.690   .     S
Cu293  O308    1.953   .     S
Cu293  O305    1.966   .     S
Cu293  N304    2.021   .     S
Cu293  O312    1.945   .     S
Cu293  O309    1.960   .     S
Cu294  N303    2.021   .     S
Cu294  O307    1.953   .     S
Cu294  O311    1.945   .     S
Cu294  O306    1.966   .     S
Cu294  O310    1.960   .     S
H301   N627    1.029   .     S
H302   N952    1.029   1_554 S
N303   H949    1.029   1_554 S
N303   N952    1.288   1_554 S
N304   N627    1.288   .     S
N304   H626    1.029   .     S
C313   O315    1.221   .     D
H314   C97     1.085   1_565 S
C316   O318    1.221   .     D
C316   H101    1.085   1_565 S
C319   H320    1.085   .     S
C319   C59     1.500   1_565 S
C319   O105    1.221   1_565 S
C322   H323    1.085   .     S
O324   C106    1.222   1_565 S
C325   C329    1.428   .     S
C325   O361    1.288   .     A
C325   O359    1.285   .     A
C326   O362    1.288   .     A
C326   O360    1.285   .     A
C326   C330    1.428   .     S
C327   C367    1.486   .     S
C327   C344    1.421   .     A
C327   C399    1.397   1_455 S
C328   C370    1.486   .     S
C328   C343    1.421   .     A
C328   C400    1.397   .     S
C329   C546    1.353   1_545 S
C329   C589    1.500   1_545 S
C330   C437    1.353   .     S
C330   C484    1.500   .     S
C331   O365    1.292   .     A
C331   C336    1.442   .     S
C331   O363    1.294   .     A
C332   C335    1.442   .     S
C332   O366    1.292   .     A
C332   O364    1.294   .     A
C333   H349    1.081   .     S
C333   C335    1.394   .     A
C333   C343    1.402   .     A
C334   C344    1.402   .     A
C334   H350    1.081   .     S
C334   C336    1.394   .     A
C335   C337    1.391   .     A
C336   C338    1.391   .     A
C337   C339    1.391   .     A
C337   H351    1.085   .     S
C338   C340    1.391   .     A
C338   H352    1.085   .     S
C339   C345    1.398   .     A
C339   C341    1.413   .     A
C340   C342    1.413   .     A
C340   C346    1.398   .     A
C341   C343    1.422   .     A
C341   C396    1.403   .     S
C342   C344    1.422   .     A
C342   C395    1.403   1_455 S
C345   H353    1.085   .     S
C345   C381    1.397   .     S
C346   H354    1.085   .     S
C346   C382    1.397   1_455 S
Cu347  Cu348   2.690   .     S
Cu347  O362    1.953   .     S
Cu347  O359    1.966   .     S
Cu347  N358    2.021   .     S
Cu347  O366    1.945   .     S
Cu347  O363    1.960   .     S
Cu348  N357    2.021   .     S
Cu348  O361    1.953   .     S
Cu348  O365    1.945   .     S
Cu348  O360    1.966   .     S
Cu348  O364    1.960   .     S
H355   N681    1.029   .     S
N358   N681    1.288   .     S
N358   H680    1.029   .     S
C367   O369    1.221   .     D
C367   H584    1.085   1_545 S
H368   C475    1.085   .     S
C370   O372    1.221   .     D
C370   H479    1.085   .     S
H371   C586    1.085   1_545 S
C373   H374    1.085   .     S
C373   C437    1.500   .     S
C373   O483    1.221   .     S
O375   C589    1.221   1_545 S
C376   H377    1.085   .     S
C376   C546    1.500   1_545 S
C376   O594    1.222   1_545 S
O378   C484    1.222   .     S
C379   C383    1.428   .     S
C379   O415    1.288   .     A
C379   O413    1.285   .     A
C380   O416    1.288   .     A
C380   O414    1.285   .     A
C380   C384    1.428   .     S
C381   C421    1.486   .     S
C381   C398    1.421   .     A
C382   C424    1.486   .     S
C382   C397    1.421   .     A
C382   C346    1.397   1_655 S
C383   C600    1.353   1_545 S
C383   C643    1.500   1_545 S
C384   C491    1.353   .     S
C384   C538    1.500   .     S
C385   O419    1.292   .     A
C385   C390    1.442   .     S
C385   O417    1.294   .     A
C386   C389    1.442   .     S
C386   O420    1.292   .     A
C386   O418    1.294   .     A
C387   H403    1.081   .     S
C387   C389    1.394   .     A
C387   C397    1.402   .     A
C388   C398    1.402   .     A
C388   H404    1.081   .     S
C388   C390    1.394   .     A
C389   C391    1.391   .     A
C390   C392    1.391   .     A
C391   C393    1.391   .     A
C391   H405    1.085   .     S
C392   C394    1.391   .     A
C392   H406    1.085   .     S
C393   C399    1.398   .     A
C393   C395    1.413   .     A
C394   C396    1.413   .     A
C394   C400    1.398   .     A
C395   C397    1.422   .     A
C395   C342    1.403   1_655 S
C396   C398    1.422   .     A
C399   H407    1.085   .     S
C399   C327    1.397   1_655 S
C400   H408    1.085   .     S
Cu401  Cu402   2.690   .     S
Cu401  O416    1.953   .     S
Cu401  O413    1.966   .     S
Cu401  N412    2.021   .     S
Cu401  O420    1.945   .     S
Cu401  O417    1.960   .     S
Cu402  N411    2.021   .     S
Cu402  O415    1.953   .     S
Cu402  O419    1.945   .     S
Cu402  O414    1.966   .     S
Cu402  O418    1.960   .     S
H409   N735    1.029   .     S
N412   N735    1.288   .     S
N412   H734    1.029   .     S
C421   O423    1.221   .     D
C421   H638    1.085   1_545 S
H422   C529    1.085   .     S
C424   O426    1.221   .     D
C424   H533    1.085   .     S
H425   C640    1.085   1_545 S
C427   H428    1.085   .     S
C427   C491    1.500   .     S
C427   O537    1.221   .     S
O429   C643    1.221   1_545 S
C430   H431    1.085   .     S
C430   C600    1.500   1_545 S
C430   O648    1.222   1_545 S
O432   C538    1.222   .     S
C433   C437    1.428   .     S
C433   O469    1.288   .     A
C433   O467    1.285   .     A
C434   O470    1.288   .     A
C434   O468    1.285   .     A
C434   C438    1.428   .     S
C435   C475    1.486   .     S
C435   C452    1.421   .     A
C435   C507    1.397   1_455 S
C436   C478    1.486   .     S
C436   C451    1.421   .     A
C436   C508    1.397   .     S
C438   C545    1.353   .     S
C438   C592    1.500   .     S
C439   O473    1.292   .     A
C439   C444    1.442   .     S
C439   O471    1.294   .     A
C440   C443    1.442   .     S
C440   O474    1.292   .     A
C440   O472    1.294   .     A
C441   H457    1.081   .     S
C441   C443    1.394   .     A
C441   C451    1.402   .     A
C442   C452    1.402   .     A
C442   H458    1.081   .     S
C442   C444    1.394   .     A
C443   C445    1.391   .     A
C444   C446    1.391   .     A
C445   C447    1.391   .     A
C445   H459    1.085   .     S
C446   C448    1.391   .     A
C446   H460    1.085   .     S
C447   C453    1.398   .     A
C447   C449    1.413   .     A
C448   C450    1.413   .     A
C448   C454    1.398   .     A
C449   C451    1.422   .     A
C449   C504    1.403   .     S
C450   C452    1.422   .     A
C450   C503    1.403   1_455 S
C453   H461    1.085   .     S
C453   C489    1.397   .     S
C454   H462    1.085   .     S
C454   C490    1.397   1_455 S
Cu455  Cu456   2.690   .     S
Cu455  O470    1.953   .     S
Cu455  O467    1.966   .     S
Cu455  N466    2.021   .     S
Cu455  O474    1.945   .     S
Cu455  O471    1.960   .     S
Cu456  N465    2.021   .     S
Cu456  O469    1.953   .     S
Cu456  O473    1.945   .     S
Cu456  O468    1.966   .     S
Cu456  O472    1.960   .     S
H463   N789    1.029   .     S
N466   N789    1.288   .     S
N466   H788    1.029   .     S
C475   O477    1.221   .     D
H476   C583    1.085   .     S
C478   O480    1.221   .     D
C478   H587    1.085   .     S
C481   H482    1.085   .     S
C481   C545    1.500   .     S
C481   O591    1.221   .     S
C484   H485    1.085   .     S
O486   C592    1.222   .     S
C487   C491    1.428   .     S
C487   O523    1.288   .     A
C487   O521    1.285   .     A
C488   O524    1.288   .     A
C488   O522    1.285   .     A
C488   C492    1.428   .     S
C489   C529    1.486   .     S
C489   C506    1.421   .     A
C490   C532    1.486   .     S
C490   C505    1.421   .     A
C490   C454    1.397   1_655 S
C492   C599    1.353   .     S
C492   C646    1.500   .     S
C493   O527    1.292   .     A
C493   C498    1.442   .     S
C493   O525    1.294   .     A
C494   C497    1.442   .     S
C494   O528    1.292   .     A
C494   O526    1.294   .     A
C495   H511    1.081   .     S
C495   C497    1.394   .     A
C495   C505    1.402   .     A
C496   C506    1.402   .     A
C496   H512    1.081   .     S
C496   C498    1.394   .     A
C497   C499    1.391   .     A
C498   C500    1.391   .     A
C499   C501    1.391   .     A
C499   H513    1.085   .     S
C500   C502    1.391   .     A
C500   H514    1.085   .     S
C501   C507    1.398   .     A
C501   C503    1.413   .     A
C502   C504    1.413   .     A
C502   C508    1.398   .     A
C503   C505    1.422   .     A
C503   C450    1.403   1_655 S
C504   C506    1.422   .     A
C507   H515    1.085   .     S
C507   C435    1.397   1_655 S
C508   H516    1.085   .     S
Cu509  Cu510   2.690   .     S
Cu509  O524    1.953   .     S
Cu509  O521    1.966   .     S
Cu509  N520    2.021   .     S
Cu509  O528    1.945   .     S
Cu509  O525    1.960   .     S
Cu510  N519    2.021   .     S
Cu510  O523    1.953   .     S
Cu510  O527    1.945   .     S
Cu510  O522    1.966   .     S
Cu510  O526    1.960   .     S
H517   N843    1.029   .     S
N520   N843    1.288   .     S
N520   H842    1.029   .     S
C529   O531    1.221   .     D
H530   C637    1.085   .     S
C532   O534    1.221   .     D
C532   H641    1.085   .     S
C535   H536    1.085   .     S
C535   C599    1.500   .     S
C535   O645    1.221   .     S
C538   H539    1.085   .     S
O540   C646    1.222   .     S
C541   C545    1.428   .     S
C541   O577    1.288   .     A
C541   O575    1.285   .     A
C542   O578    1.288   .     A
C542   O576    1.285   .     A
C542   C546    1.428   .     S
C543   C583    1.486   .     S
C543   C560    1.421   .     A
C543   C615    1.397   1_455 S
C544   C586    1.486   .     S
C544   C559    1.421   .     A
C544   C616    1.397   .     S
C546   C329    1.353   1_565 S
C546   C376    1.500   1_565 S
C547   O581    1.292   .     A
C547   C552    1.442   .     S
C547   O579    1.294   .     A
C548   C551    1.442   .     S
C548   O582    1.292   .     A
C548   O580    1.294   .     A
C549   H565    1.081   .     S
C549   C551    1.394   .     A
C549   C559    1.402   .     A
C550   C560    1.402   .     A
C550   H566    1.081   .     S
C550   C552    1.394   .     A
C551   C553    1.391   .     A
C552   C554    1.391   .     A
C553   C555    1.391   .     A
C553   H567    1.085   .     S
C554   C556    1.391   .     A
C554   H568    1.085   .     S
C555   C561    1.398   .     A
C555   C557    1.413   .     A
C556   C558    1.413   .     A
C556   C562    1.398   .     A
C557   C559    1.422   .     A
C557   C612    1.403   .     S
C558   C560    1.422   .     A
C558   C611    1.403   1_455 S
C561   H569    1.085   .     S
C561   C597    1.397   .     S
C562   H570    1.085   .     S
C562   C598    1.397   1_455 S
Cu563  Cu564   2.690   .     S
Cu563  O578    1.953   .     S
Cu563  O575    1.966   .     S
Cu563  N574    2.021   .     S
Cu563  O582    1.945   .     S
Cu563  O579    1.960   .     S
Cu564  N573    2.021   .     S
Cu564  O577    1.953   .     S
Cu564  O581    1.945   .     S
Cu564  O576    1.966   .     S
Cu564  O580    1.960   .     S
H571   N897    1.029   .     S
N574   N897    1.288   .     S
N574   H896    1.029   .     S
C583   O585    1.221   .     D
H584   C367    1.085   1_565 S
C586   O588    1.221   .     D
C586   H371    1.085   1_565 S
C589   H590    1.085   .     S
C589   C329    1.500   1_565 S
C589   O375    1.221   1_565 S
C592   H593    1.085   .     S
O594   C376    1.222   1_565 S
C595   C599    1.428   .     S
C595   O631    1.288   .     A
C595   O629    1.285   .     A
C596   O632    1.288   .     A
C596   O630    1.285   .     A
C596   C600    1.428   .     S
C597   C637    1.486   .     S
C597   C614    1.421   .     A
C598   C640    1.486   .     S
C598   C613    1.421   .     A
C598   C562    1.397   1_655 S
C600   C383    1.353   1_565 S
C600   C430    1.500   1_565 S
C601   O635    1.292   .     A
C601   C606    1.442   .     S
C601   O633    1.294   .     A
C602   C605    1.442   .     S
C602   O636    1.292   .     A
C602   O634    1.294   .     A
C603   H619    1.081   .     S
C603   C605    1.394   .     A
C603   C613    1.402   .     A
C604   C614    1.402   .     A
C604   H620    1.081   .     S
C604   C606    1.394   .     A
C605   C607    1.391   .     A
C606   C608    1.391   .     A
C607   C609    1.391   .     A
C607   H621    1.085   .     S
C608   C610    1.391   .     A
C608   H622    1.085   .     S
C609   C615    1.398   .     A
C609   C611    1.413   .     A
C610   C612    1.413   .     A
C610   C616    1.398   .     A
C611   C613    1.422   .     A
C611   C558    1.403   1_655 S
C612   C614    1.422   .     A
C615   H623    1.085   .     S
C615   C543    1.397   1_655 S
C616   H624    1.085   .     S
Cu617  Cu618   2.690   .     S
Cu617  O632    1.953   .     S
Cu617  O629    1.966   .     S
Cu617  N628    2.021   .     S
Cu617  O636    1.945   .     S
Cu617  O633    1.960   .     S
Cu618  N627    2.021   .     S
Cu618  O631    1.953   .     S
Cu618  O635    1.945   .     S
Cu618  O630    1.966   .     S
Cu618  O634    1.960   .     S
H625   N951    1.029   .     S
N628   N951    1.288   .     S
N628   H950    1.029   .     S
C637   O639    1.221   .     D
H638   C421    1.085   1_565 S
C640   O642    1.221   .     D
C640   H425    1.085   1_565 S
C643   H644    1.085   .     S
C643   C383    1.500   1_565 S
C643   O429    1.221   1_565 S
C646   H647    1.085   .     S
O648   C430    1.222   1_565 S
C649   C653    1.428   .     S
C649   O685    1.288   .     A
C649   O683    1.285   .     A
C650   O686    1.288   .     A
C650   O684    1.285   .     A
C650   C654    1.428   .     S
C651   C691    1.486   .     S
C651   C668    1.421   .     A
C651   C723    1.397   1_455 S
C652   C694    1.486   .     S
C652   C667    1.421   .     A
C652   C724    1.397   .     S
C653   C870    1.353   1_545 S
C653   C913    1.500   1_545 S
C654   C761    1.353   .     S
C654   C808    1.500   .     S
C655   O689    1.292   .     A
C655   C660    1.442   .     S
C655   O687    1.294   .     A
C656   C659    1.442   .     S
C656   O690    1.292   .     A
C656   O688    1.294   .     A
C657   H673    1.081   .     S
C657   C659    1.394   .     A
C657   C667    1.402   .     A
C658   C668    1.402   .     A
C658   H674    1.081   .     S
C658   C660    1.394   .     A
C659   C661    1.391   .     A
C660   C662    1.391   .     A
C661   C663    1.391   .     A
C661   H675    1.085   .     S
C662   C664    1.391   .     A
C662   H676    1.085   .     S
C663   C669    1.398   .     A
C663   C665    1.413   .     A
C664   C666    1.413   .     A
C664   C670    1.398   .     A
C665   C667    1.422   .     A
C665   C720    1.403   .     S
C666   C668    1.422   .     A
C666   C719    1.403   1_455 S
C669   H677    1.085   .     S
C669   C705    1.397   .     S
C670   H678    1.085   .     S
C670   C706    1.397   1_455 S
Cu671  Cu672   2.690   .     S
Cu671  O686    1.953   .     S
Cu671  O683    1.966   .     S
Cu671  N682    2.021   .     S
Cu671  O690    1.945   .     S
Cu671  O687    1.960   .     S
Cu672  N681    2.021   .     S
Cu672  O685    1.953   .     S
Cu672  O689    1.945   .     S
Cu672  O684    1.966   .     S
Cu672  O688    1.960   .     S
H679   N33     1.029   1_556 S
N682   N33     1.288   1_556 S
N682   H32     1.029   1_556 S
C691   O693    1.221   .     D
C691   H908    1.085   1_545 S
H692   C799    1.085   .     S
C694   O696    1.221   .     D
C694   H803    1.085   .     S
H695   C910    1.085   1_545 S
C697   H698    1.085   .     S
C697   C761    1.500   .     S
C697   O807    1.221   .     S
O699   C913    1.221   1_545 S
C700   H701    1.085   .     S
C700   C870    1.500   1_545 S
C700   O918    1.222   1_545 S
O702   C808    1.222   .     S
C703   C707    1.428   .     S
C703   O739    1.288   .     A
C703   O737    1.285   .     A
C704   O740    1.288   .     A
C704   O738    1.285   .     A
C704   C708    1.428   .     S
C705   C745    1.486   .     S
C705   C722    1.421   .     A
C706   C748    1.486   .     S
C706   C721    1.421   .     A
C706   C670    1.397   1_655 S
C707   C924    1.353   1_545 S
C707   C967    1.500   1_545 S
C708   C815    1.353   .     S
C708   C862    1.500   .     S
C709   O743    1.292   .     A
C709   C714    1.442   .     S
C709   O741    1.294   .     A
C710   C713    1.442   .     S
C710   O744    1.292   .     A
C710   O742    1.294   .     A
C711   H727    1.081   .     S
C711   C713    1.394   .     A
C711   C721    1.402   .     A
C712   C722    1.402   .     A
C712   H728    1.081   .     S
C712   C714    1.394   .     A
C713   C715    1.391   .     A
C714   C716    1.391   .     A
C715   C717    1.391   .     A
C715   H729    1.085   .     S
C716   C718    1.391   .     A
C716   H730    1.085   .     S
C717   C723    1.398   .     A
C717   C719    1.413   .     A
C718   C720    1.413   .     A
C718   C724    1.398   .     A
C719   C721    1.422   .     A
C719   C666    1.403   1_655 S
C720   C722    1.422   .     A
C723   H731    1.085   .     S
C723   C651    1.397   1_655 S
C724   H732    1.085   .     S
Cu725  Cu726   2.690   .     S
Cu725  O740    1.953   .     S
Cu725  O737    1.966   .     S
Cu725  N736    2.021   .     S
Cu725  O744    1.945   .     S
Cu725  O741    1.960   .     S
Cu726  N735    2.021   .     S
Cu726  O739    1.953   .     S
Cu726  O743    1.945   .     S
Cu726  O738    1.966   .     S
Cu726  O742    1.960   .     S
H733   N87     1.029   1_556 S
N736   N87     1.288   1_556 S
N736   H86     1.029   1_556 S
C745   O747    1.221   .     D
C745   H962    1.085   1_545 S
H746   C853    1.085   .     S
C748   O750    1.221   .     D
C748   H857    1.085   .     S
H749   C964    1.085   1_545 S
C751   H752    1.085   .     S
C751   C815    1.500   .     S
C751   O861    1.221   .     S
O753   C967    1.221   1_545 S
C754   H755    1.085   .     S
C754   C924    1.500   1_545 S
C754   O972    1.222   1_545 S
O756   C862    1.222   .     S
C757   C761    1.428   .     S
C757   O793    1.288   .     A
C757   O791    1.285   .     A
C758   O794    1.288   .     A
C758   O792    1.285   .     A
C758   C762    1.428   .     S
C759   C799    1.486   .     S
C759   C776    1.421   .     A
C759   C831    1.397   1_455 S
C760   C802    1.486   .     S
C760   C775    1.421   .     A
C760   C832    1.397   .     S
C762   C869    1.353   .     S
C762   C916    1.500   .     S
C763   O797    1.292   .     A
C763   C768    1.442   .     S
C763   O795    1.294   .     A
C764   C767    1.442   .     S
C764   O798    1.292   .     A
C764   O796    1.294   .     A
C765   H781    1.081   .     S
C765   C767    1.394   .     A
C765   C775    1.402   .     A
C766   C776    1.402   .     A
C766   H782    1.081   .     S
C766   C768    1.394   .     A
C767   C769    1.391   .     A
C768   C770    1.391   .     A
C769   C771    1.391   .     A
C769   H783    1.085   .     S
C770   C772    1.391   .     A
C770   H784    1.085   .     S
C771   C777    1.398   .     A
C771   C773    1.413   .     A
C772   C774    1.413   .     A
C772   C778    1.398   .     A
C773   C775    1.422   .     A
C773   C828    1.403   .     S
C774   C776    1.422   .     A
C774   C827    1.403   1_455 S
C777   H785    1.085   .     S
C777   C813    1.397   .     S
C778   H786    1.085   .     S
C778   C814    1.397   1_455 S
Cu779  Cu780   2.690   .     S
Cu779  O794    1.953   .     S
Cu779  O791    1.966   .     S
Cu779  N790    2.021   .     S
Cu779  O798    1.945   .     S
Cu779  O795    1.960   .     S
Cu780  N789    2.021   .     S
Cu780  O793    1.953   .     S
Cu780  O797    1.945   .     S
Cu780  O792    1.966   .     S
Cu780  O796    1.960   .     S
H787   N141    1.029   1_556 S
N790   N141    1.288   1_556 S
N790   H140    1.029   1_556 S
C799   O801    1.221   .     D
H800   C907    1.085   .     S
C802   O804    1.221   .     D
C802   H911    1.085   .     S
C805   H806    1.085   .     S
C805   C869    1.500   .     S
C805   O915    1.221   .     S
C808   H809    1.085   .     S
O810   C916    1.222   .     S
C811   C815    1.428   .     S
C811   O847    1.288   .     A
C811   O845    1.285   .     A
C812   O848    1.288   .     A
C812   O846    1.285   .     A
C812   C816    1.428   .     S
C813   C853    1.486   .     S
C813   C830    1.421   .     A
C814   C856    1.486   .     S
C814   C829    1.421   .     A
C814   C778    1.397   1_655 S
C816   C923    1.353   .     S
C816   C970    1.500   .     S
C817   O851    1.292   .     A
C817   C822    1.442   .     S
C817   O849    1.294   .     A
C818   C821    1.442   .     S
C818   O852    1.292   .     A
C818   O850    1.294   .     A
C819   H835    1.081   .     S
C819   C821    1.394   .     A
C819   C829    1.402   .     A
C820   C830    1.402   .     A
C820   H836    1.081   .     S
C820   C822    1.394   .     A
C821   C823    1.391   .     A
C822   C824    1.391   .     A
C823   C825    1.391   .     A
C823   H837    1.085   .     S
C824   C826    1.391   .     A
C824   H838    1.085   .     S
C825   C831    1.398   .     A
C825   C827    1.413   .     A
C826   C828    1.413   .     A
C826   C832    1.398   .     A
C827   C829    1.422   .     A
C827   C774    1.403   1_655 S
C828   C830    1.422   .     A
C831   H839    1.085   .     S
C831   C759    1.397   1_655 S
C832   H840    1.085   .     S
Cu833  Cu834   2.690   .     S
Cu833  O848    1.953   .     S
Cu833  O845    1.966   .     S
Cu833  N844    2.021   .     S
Cu833  O852    1.945   .     S
Cu833  O849    1.960   .     S
Cu834  N843    2.021   .     S
Cu834  O847    1.953   .     S
Cu834  O851    1.945   .     S
Cu834  O846    1.966   .     S
Cu834  O850    1.960   .     S
H841   N195    1.029   1_556 S
N844   N195    1.288   1_556 S
N844   H194    1.029   1_556 S
C853   O855    1.221   .     D
H854   C961    1.085   .     S
C856   O858    1.221   .     D
C856   H965    1.085   .     S
C859   H860    1.085   .     S
C859   C923    1.500   .     S
C859   O969    1.221   .     S
C862   H863    1.085   .     S
O864   C970    1.222   .     S
C865   C869    1.428   .     S
C865   O901    1.288   .     A
C865   O899    1.285   .     A
C866   O902    1.288   .     A
C866   O900    1.285   .     A
C866   C870    1.428   .     S
C867   C907    1.486   .     S
C867   C884    1.421   .     A
C867   C939    1.397   1_455 S
C868   C910    1.486   .     S
C868   C883    1.421   .     A
C868   C940    1.397   .     S
C870   C653    1.353   1_565 S
C870   C700    1.500   1_565 S
C871   O905    1.292   .     A
C871   C876    1.442   .     S
C871   O903    1.294   .     A
C872   C875    1.442   .     S
C872   O906    1.292   .     A
C872   O904    1.294   .     A
C873   H889    1.081   .     S
C873   C875    1.394   .     A
C873   C883    1.402   .     A
C874   C884    1.402   .     A
C874   H890    1.081   .     S
C874   C876    1.394   .     A
C875   C877    1.391   .     A
C876   C878    1.391   .     A
C877   C879    1.391   .     A
C877   H891    1.085   .     S
C878   C880    1.391   .     A
C878   H892    1.085   .     S
C879   C885    1.398   .     A
C879   C881    1.413   .     A
C880   C882    1.413   .     A
C880   C886    1.398   .     A
C881   C883    1.422   .     A
C881   C936    1.403   .     S
C882   C884    1.422   .     A
C882   C935    1.403   1_455 S
C885   H893    1.085   .     S
C885   C921    1.397   .     S
C886   H894    1.085   .     S
C886   C922    1.397   1_455 S
Cu887  Cu888   2.690   .     S
Cu887  O902    1.953   .     S
Cu887  O899    1.966   .     S
Cu887  N898    2.021   .     S
Cu887  O906    1.945   .     S
Cu887  O903    1.960   .     S
Cu888  N897    2.021   .     S
Cu888  O901    1.953   .     S
Cu888  O905    1.945   .     S
Cu888  O900    1.966   .     S
Cu888  O904    1.960   .     S
H895   N249    1.029   1_556 S
N898   N249    1.288   1_556 S
N898   H248    1.029   1_556 S
C907   O909    1.221   .     D
H908   C691    1.085   1_565 S
C910   O912    1.221   .     D
C910   H695    1.085   1_565 S
C913   H914    1.085   .     S
C913   C653    1.500   1_565 S
C913   O699    1.221   1_565 S
C916   H917    1.085   .     S
O918   C700    1.222   1_565 S
C919   C923    1.428   .     S
C919   O955    1.288   .     A
C919   O953    1.285   .     A
C920   O956    1.288   .     A
C920   O954    1.285   .     A
C920   C924    1.428   .     S
C921   C961    1.486   .     S
C921   C938    1.421   .     A
C922   C964    1.486   .     S
C922   C937    1.421   .     A
C922   C886    1.397   1_655 S
C924   C707    1.353   1_565 S
C924   C754    1.500   1_565 S
C925   O959    1.292   .     A
C925   C930    1.442   .     S
C925   O957    1.294   .     A
C926   C929    1.442   .     S
C926   O960    1.292   .     A
C926   O958    1.294   .     A
C927   H943    1.081   .     S
C927   C929    1.394   .     A
C927   C937    1.402   .     A
C928   C938    1.402   .     A
C928   H944    1.081   .     S
C928   C930    1.394   .     A
C929   C931    1.391   .     A
C930   C932    1.391   .     A
C931   C933    1.391   .     A
C931   H945    1.085   .     S
C932   C934    1.391   .     A
C932   H946    1.085   .     S
C933   C939    1.398   .     A
C933   C935    1.413   .     A
C934   C936    1.413   .     A
C934   C940    1.398   .     A
C935   C937    1.422   .     A
C935   C882    1.403   1_655 S
C936   C938    1.422   .     A
C939   H947    1.085   .     S
C939   C867    1.397   1_655 S
C940   H948    1.085   .     S
Cu941  Cu942   2.690   .     S
Cu941  O956    1.953   .     S
Cu941  O953    1.966   .     S
Cu941  N952    2.021   .     S
Cu941  O960    1.945   .     S
Cu941  O957    1.960   .     S
Cu942  N951    2.021   .     S
Cu942  O955    1.953   .     S
Cu942  O959    1.945   .     S
Cu942  O954    1.966   .     S
Cu942  O958    1.960   .     S
H949   N303    1.029   1_556 S
N952   N303    1.288   1_556 S
N952   H302    1.029   1_556 S
C961   O963    1.221   .     D
H962   C745    1.085   1_565 S
C964   O966    1.221   .     D
C964   H749    1.085   1_565 S
C967   H968    1.085   .     S
C967   C707    1.500   1_565 S
C967   O753    1.221   1_565 S
C970   H971    1.085   .     S
O972   C754    1.222   1_565 S
