data_str_m2_o1_o18_pcu_sym.137
_audit_creation_date              2020-01-03
_audit_creation_method            'Materials Studio'
_symmetry_space_group_name_H-M    'P1'
_symmetry_Int_Tables_number       1
_symmetry_cell_setting            triclinic
loop_
_symmetry_equiv_pos_as_xyz
  x,y,z
_cell_length_a                    28.5644
_cell_length_b                    32.3716
_cell_length_c                    30.5654
_cell_angle_alpha                 89.9183
_cell_angle_beta                  74.4701
_cell_angle_gamma                 90.2851
loop_
_atom_site_label
_atom_site_type_symbol
_atom_site_fract_x
_atom_site_fract_y
_atom_site_fract_z
_atom_site_U_iso_or_equiv
_atom_site_adp_type
_atom_site_occupancy
C1     C     0.33330   0.08747   0.24956   0.00000  Uiso   1.00
C2     C     0.00004   0.24585   0.25045   0.00000  Uiso   1.00
C3     C     0.18433   0.21448   0.04185   0.00000  Uiso   1.00
C4     C     0.13714   0.17511   0.44737   0.00000  Uiso   1.00
C5     C     0.23440   0.21892   0.02056   0.00000  Uiso   1.00
C6     C     0.08945   0.16313   0.46999   0.00000  Uiso   1.00
C7     C     0.29718   0.02195   0.28210   0.00000  Uiso   1.00
C8     C     0.03617   0.31133   0.21790   0.00000  Uiso   1.00
C9     C     0.29788   0.31204   0.28404   0.00000  Uiso   1.00
C10    C     0.03555   0.02124   0.21603   0.00000  Uiso   1.00
C11    C     0.00036   0.29049   0.25126   0.00000  Uiso   1.00
C12    C     0.33300   0.04281   0.24877   0.00000  Uiso   1.00
C13    C     0.18266   0.14281   0.28013   0.00000  Uiso   1.00
C14    C     0.15065   0.19060   0.21994   0.00000  Uiso   1.00
C15    C     0.13306   0.14288   0.28017   0.00000  Uiso   1.00
C16    C     0.20024   0.19059   0.21996   0.00000  Uiso   1.00
C17    C     0.30617   0.16930   0.33629   0.00000  Uiso   1.00
C18    C     0.02714   0.16655   0.16339   0.00000  Uiso   1.00
C19    C     0.29122   0.17916   0.38522   0.00000  Uiso   1.00
C20    C     0.04141   0.16716   0.11309   0.00000  Uiso   1.00
C21    C     0.30253   0.21175   0.45315   0.00000  Uiso   1.00
C22    C     0.02522   0.15560   0.04006   0.00000  Uiso   1.00
C23    C     0.32085   0.20166   0.40737   0.00000  Uiso   1.00
C24    C     0.00834   0.15825   0.08712   0.00000  Uiso   1.00
C25    C     0.24335   0.16994   0.40910   0.00000  Uiso   1.00
C26    C     0.08988   0.17615   0.09040   0.00000  Uiso   1.00
C27    C     0.22216   0.18691   0.45212   0.00000  Uiso   1.00
C28    C     0.10567   0.17923   0.04272   0.00000  Uiso   1.00
C29    C     0.25319   0.20533   0.47573   0.00000  Uiso   1.00
C30    C     0.07356   0.16570   0.01744   0.00000  Uiso   1.00
C31    C     0.17129   0.18436   0.47264   0.00000  Uiso   1.00
C32    C     0.15365   0.19244   0.01977   0.00000  Uiso   1.00
Cu33   Cu    0.04689   0.16667   0.25000   0.00000  Uiso   1.00
Cu34   Cu    0.28645   0.16666   0.25000   0.00000  Uiso   1.00
H35    H     0.11553   0.17997   0.11041   0.00000  Uiso   1.00
H36    H     0.22239   0.14999   0.39310   0.00000  Uiso   1.00
N37    N     0.11736   0.16668   0.24999   0.00000  Uiso   1.00
N38    N     0.21597   0.16666   0.25001   0.00000  Uiso   1.00
O39    O     0.03958   0.10655   0.25000   0.00000  Uiso   1.00
O40    O     0.29375   0.22678   0.25000   0.00000  Uiso   1.00
O41    O     0.29372   0.10654   0.25001   0.00000  Uiso   1.00
O42    O     0.03961   0.22679   0.25000   0.00000  Uiso   1.00
O43    O     0.01852   0.16668   0.31492   0.00000  Uiso   1.00
O44    O     0.31481   0.16666   0.18509   0.00000  Uiso   1.00
O45    O     0.27267   0.16667   0.31492   0.00000  Uiso   1.00
O46    O     0.06067   0.16667   0.18508   0.00000  Uiso   1.00
O47    O     0.26553   0.23794   0.04221   0.00000  Uiso   1.00
H48    H     0.24905   0.24150   0.07486   0.00000  Uiso   1.00
O49    O     0.05731   0.14923   0.44641   0.00000  Uiso   1.00
H50    H     0.07489   0.14389   0.41434   0.00000  Uiso   1.00
O51    O     0.29328   0.15013   0.10650   0.00000  Uiso   1.00
H52    H     0.27978   0.17520   0.12377   0.00000  Uiso   1.00
O53    O     0.03369   0.21531   0.38570   0.00000  Uiso   1.00
H54    H     0.03355   0.22503   0.35503   0.00000  Uiso   1.00
H55    H     0.32654   0.22732   0.46997   0.00000  Uiso   1.00
H56    H     0.33290   0.14673   0.02124   0.00000  Uiso   1.00
O57    O     0.16585   0.23647   0.08133   0.00000  Uiso   1.00
H58    H     0.13347   0.24706   0.08087   0.00000  Uiso   1.00
O59    O     0.14721   0.18213   0.40119   0.00000  Uiso   1.00
H60    H     0.16935   0.20633   0.39368   0.00000  Uiso   1.00
O61    O     0.26339   0.04504   0.31343   0.00000  Uiso   1.00
H62    H     0.23958   0.02668   0.33407   0.00000  Uiso   1.00
O63    O     0.06987   0.28822   0.18651   0.00000  Uiso   1.00
H64    H     0.09354   0.30656   0.16569   0.00000  Uiso   1.00
O65    O     0.26405   0.29210   0.31872   0.00000  Uiso   1.00
H66    H     0.27639   0.26465   0.32435   0.00000  Uiso   1.00
O67    O     0.06951   0.04117   0.18146   0.00000  Uiso   1.00
H68    H     0.05729   0.06868   0.17586   0.00000  Uiso   1.00
H69    H     0.19428   0.12362   0.30423   0.00000  Uiso   1.00
H70    H     0.13901   0.20986   0.19590   0.00000  Uiso   1.00
H71    H     0.10732   0.12380   0.30432   0.00000  Uiso   1.00
H72    H     0.22591   0.20985   0.19600   0.00000  Uiso   1.00
C73    C     0.66663   0.08747   0.24956   0.00000  Uiso   1.00
C74    C     0.33337   0.24585   0.25045   0.00000  Uiso   1.00
C75    C     0.51767   0.21448   0.04185   0.00000  Uiso   1.00
C76    C     0.47047   0.17511   0.44737   0.00000  Uiso   1.00
C77    C     0.56773   0.21892   0.02056   0.00000  Uiso   1.00
C78    C     0.42278   0.16313   0.46999   0.00000  Uiso   1.00
C79    C     0.63051   0.02195   0.28210   0.00000  Uiso   1.00
C80    C     0.36950   0.31133   0.21790   0.00000  Uiso   1.00
C81    C     0.63121   0.31204   0.28404   0.00000  Uiso   1.00
C82    C     0.36888   0.02124   0.21603   0.00000  Uiso   1.00
C83    C     0.33370   0.29049   0.25126   0.00000  Uiso   1.00
C84    C     0.66634   0.04281   0.24877   0.00000  Uiso   1.00
C85    C     0.51600   0.14281   0.28013   0.00000  Uiso   1.00
C86    C     0.48398   0.19060   0.21994   0.00000  Uiso   1.00
C87    C     0.46639   0.14288   0.28017   0.00000  Uiso   1.00
C88    C     0.53357   0.19059   0.21996   0.00000  Uiso   1.00
C89    C     0.63951   0.16930   0.33629   0.00000  Uiso   1.00
C90    C     0.36048   0.16655   0.16339   0.00000  Uiso   1.00
C91    C     0.62455   0.17916   0.38522   0.00000  Uiso   1.00
C92    C     0.37474   0.16716   0.11309   0.00000  Uiso   1.00
C93    C     0.63587   0.21175   0.45315   0.00000  Uiso   1.00
C94    C     0.35855   0.15560   0.04006   0.00000  Uiso   1.00
C95    C     0.65418   0.20166   0.40737   0.00000  Uiso   1.00
C96    C     0.34168   0.15825   0.08712   0.00000  Uiso   1.00
C97    C     0.57668   0.16994   0.40910   0.00000  Uiso   1.00
C98    C     0.42322   0.17615   0.09040   0.00000  Uiso   1.00
C99    C     0.55550   0.18691   0.45212   0.00000  Uiso   1.00
C100   C     0.43900   0.17923   0.04272   0.00000  Uiso   1.00
C101   C     0.58652   0.20533   0.47573   0.00000  Uiso   1.00
C102   C     0.40689   0.16570   0.01744   0.00000  Uiso   1.00
C103   C     0.50463   0.18436   0.47264   0.00000  Uiso   1.00
C104   C     0.48699   0.19244   0.01977   0.00000  Uiso   1.00
Cu105  Cu    0.38022   0.16667   0.25000   0.00000  Uiso   1.00
Cu106  Cu    0.61978   0.16666   0.25000   0.00000  Uiso   1.00
H107   H     0.44887   0.17997   0.11041   0.00000  Uiso   1.00
H108   H     0.55572   0.14999   0.39310   0.00000  Uiso   1.00
N109   N     0.45069   0.16668   0.24999   0.00000  Uiso   1.00
N110   N     0.54931   0.16666   0.25001   0.00000  Uiso   1.00
O111   O     0.37291   0.10655   0.25000   0.00000  Uiso   1.00
O112   O     0.62709   0.22678   0.25000   0.00000  Uiso   1.00
O113   O     0.62706   0.10654   0.25001   0.00000  Uiso   1.00
O114   O     0.37294   0.22679   0.25000   0.00000  Uiso   1.00
O115   O     0.35186   0.16668   0.31492   0.00000  Uiso   1.00
O116   O     0.64814   0.16666   0.18509   0.00000  Uiso   1.00
O117   O     0.60600   0.16667   0.31492   0.00000  Uiso   1.00
O118   O     0.39400   0.16667   0.18508   0.00000  Uiso   1.00
O119   O     0.59886   0.23794   0.04221   0.00000  Uiso   1.00
H120   H     0.58238   0.24150   0.07486   0.00000  Uiso   1.00
O121   O     0.39064   0.14923   0.44641   0.00000  Uiso   1.00
H122   H     0.40822   0.14389   0.41434   0.00000  Uiso   1.00
O123   O     0.62662   0.15013   0.10650   0.00000  Uiso   1.00
H124   H     0.61311   0.17520   0.12377   0.00000  Uiso   1.00
O125   O     0.36702   0.21531   0.38570   0.00000  Uiso   1.00
H126   H     0.36689   0.22503   0.35503   0.00000  Uiso   1.00
H127   H     0.65987   0.22732   0.46997   0.00000  Uiso   1.00
H128   H     0.66624   0.14673   0.02124   0.00000  Uiso   1.00
O129   O     0.49918   0.23647   0.08133   0.00000  Uiso   1.00
H130   H     0.46680   0.24706   0.08087   0.00000  Uiso   1.00
O131   O     0.48054   0.18213   0.40119   0.00000  Uiso   1.00
H132   H     0.50269   0.20633   0.39368   0.00000  Uiso   1.00
O133   O     0.59672   0.04504   0.31343   0.00000  Uiso   1.00
H134   H     0.57292   0.02668   0.33407   0.00000  Uiso   1.00
O135   O     0.40321   0.28822   0.18651   0.00000  Uiso   1.00
H136   H     0.42687   0.30656   0.16569   0.00000  Uiso   1.00
O137   O     0.59738   0.29210   0.31872   0.00000  Uiso   1.00
H138   H     0.60972   0.26465   0.32435   0.00000  Uiso   1.00
O139   O     0.40285   0.04117   0.18146   0.00000  Uiso   1.00
H140   H     0.39063   0.06868   0.17586   0.00000  Uiso   1.00
H141   H     0.52762   0.12362   0.30423   0.00000  Uiso   1.00
H142   H     0.47234   0.20986   0.19590   0.00000  Uiso   1.00
H143   H     0.44065   0.12380   0.30432   0.00000  Uiso   1.00
H144   H     0.55924   0.20985   0.19600   0.00000  Uiso   1.00
C145   C     0.99996   0.08747   0.24956   0.00000  Uiso   1.00
C146   C     0.66671   0.24585   0.25045   0.00000  Uiso   1.00
C147   C     0.85100   0.21448   0.04185   0.00000  Uiso   1.00
C148   C     0.80381   0.17511   0.44737   0.00000  Uiso   1.00
C149   C     0.90107   0.21892   0.02056   0.00000  Uiso   1.00
C150   C     0.75611   0.16313   0.46999   0.00000  Uiso   1.00
C151   C     0.96384   0.02195   0.28210   0.00000  Uiso   1.00
C152   C     0.70284   0.31133   0.21790   0.00000  Uiso   1.00
C153   C     0.96454   0.31204   0.28404   0.00000  Uiso   1.00
C154   C     0.70221   0.02124   0.21603   0.00000  Uiso   1.00
C155   C     0.66703   0.29049   0.25126   0.00000  Uiso   1.00
C156   C     0.99967   0.04281   0.24877   0.00000  Uiso   1.00
C157   C     0.84933   0.14281   0.28013   0.00000  Uiso   1.00
C158   C     0.81731   0.19060   0.21994   0.00000  Uiso   1.00
C159   C     0.79972   0.14288   0.28017   0.00000  Uiso   1.00
C160   C     0.86690   0.19059   0.21996   0.00000  Uiso   1.00
C161   C     0.97284   0.16930   0.33629   0.00000  Uiso   1.00
C162   C     0.69381   0.16655   0.16339   0.00000  Uiso   1.00
C163   C     0.95789   0.17916   0.38522   0.00000  Uiso   1.00
C164   C     0.70807   0.16716   0.11309   0.00000  Uiso   1.00
C165   C     0.96920   0.21175   0.45315   0.00000  Uiso   1.00
C166   C     0.69189   0.15560   0.04006   0.00000  Uiso   1.00
C167   C     0.98752   0.20166   0.40737   0.00000  Uiso   1.00
C168   C     0.67501   0.15825   0.08712   0.00000  Uiso   1.00
C169   C     0.91001   0.16994   0.40910   0.00000  Uiso   1.00
C170   C     0.75655   0.17615   0.09040   0.00000  Uiso   1.00
C171   C     0.88883   0.18691   0.45212   0.00000  Uiso   1.00
C172   C     0.77234   0.17923   0.04272   0.00000  Uiso   1.00
C173   C     0.91985   0.20533   0.47573   0.00000  Uiso   1.00
C174   C     0.74022   0.16570   0.01744   0.00000  Uiso   1.00
C175   C     0.83796   0.18436   0.47264   0.00000  Uiso   1.00
C176   C     0.82032   0.19244   0.01977   0.00000  Uiso   1.00
Cu177  Cu    0.71355   0.16667   0.25000   0.00000  Uiso   1.00
Cu178  Cu    0.95311   0.16666   0.25000   0.00000  Uiso   1.00
H179   H     0.78220   0.17997   0.11041   0.00000  Uiso   1.00
H180   H     0.88905   0.14999   0.39310   0.00000  Uiso   1.00
N181   N     0.78403   0.16668   0.24999   0.00000  Uiso   1.00
N182   N     0.88264   0.16666   0.25001   0.00000  Uiso   1.00
O183   O     0.70625   0.10655   0.25000   0.00000  Uiso   1.00
O184   O     0.96042   0.22678   0.25000   0.00000  Uiso   1.00
O185   O     0.96039   0.10654   0.25001   0.00000  Uiso   1.00
O186   O     0.70628   0.22679   0.25000   0.00000  Uiso   1.00
O187   O     0.68519   0.16668   0.31492   0.00000  Uiso   1.00
O188   O     0.98148   0.16666   0.18509   0.00000  Uiso   1.00
O189   O     0.93933   0.16667   0.31492   0.00000  Uiso   1.00
O190   O     0.72733   0.16667   0.18508   0.00000  Uiso   1.00
O191   O     0.93220   0.23794   0.04221   0.00000  Uiso   1.00
H192   H     0.91572   0.24150   0.07486   0.00000  Uiso   1.00
O193   O     0.72398   0.14923   0.44641   0.00000  Uiso   1.00
H194   H     0.74156   0.14389   0.41434   0.00000  Uiso   1.00
O195   O     0.95995   0.15013   0.10650   0.00000  Uiso   1.00
H196   H     0.94645   0.17520   0.12377   0.00000  Uiso   1.00
O197   O     0.70036   0.21531   0.38570   0.00000  Uiso   1.00
H198   H     0.70022   0.22503   0.35503   0.00000  Uiso   1.00
H199   H     0.99321   0.22732   0.46997   0.00000  Uiso   1.00
H200   H     0.99957   0.14673   0.02124   0.00000  Uiso   1.00
O201   O     0.83252   0.23647   0.08133   0.00000  Uiso   1.00
H202   H     0.80013   0.24706   0.08087   0.00000  Uiso   1.00
O203   O     0.81388   0.18213   0.40119   0.00000  Uiso   1.00
H204   H     0.83602   0.20633   0.39368   0.00000  Uiso   1.00
O205   O     0.93006   0.04504   0.31343   0.00000  Uiso   1.00
H206   H     0.90625   0.02668   0.33407   0.00000  Uiso   1.00
O207   O     0.73654   0.28822   0.18651   0.00000  Uiso   1.00
H208   H     0.76020   0.30656   0.16569   0.00000  Uiso   1.00
O209   O     0.93071   0.29210   0.31872   0.00000  Uiso   1.00
H210   H     0.94305   0.26465   0.32435   0.00000  Uiso   1.00
O211   O     0.73618   0.04117   0.18146   0.00000  Uiso   1.00
H212   H     0.72396   0.06868   0.17586   0.00000  Uiso   1.00
H213   H     0.86095   0.12362   0.30423   0.00000  Uiso   1.00
H214   H     0.80568   0.20986   0.19590   0.00000  Uiso   1.00
H215   H     0.77399   0.12380   0.30432   0.00000  Uiso   1.00
H216   H     0.89258   0.20985   0.19600   0.00000  Uiso   1.00
C217   C     0.33330   0.42080   0.24956   0.00000  Uiso   1.00
C218   C     0.00004   0.57919   0.25045   0.00000  Uiso   1.00
C219   C     0.18433   0.54781   0.04185   0.00000  Uiso   1.00
C220   C     0.13714   0.50844   0.44737   0.00000  Uiso   1.00
C221   C     0.23440   0.55226   0.02056   0.00000  Uiso   1.00
C222   C     0.08945   0.49646   0.46999   0.00000  Uiso   1.00
C223   C     0.29718   0.35528   0.28210   0.00000  Uiso   1.00
C224   C     0.03617   0.64466   0.21790   0.00000  Uiso   1.00
C225   C     0.29788   0.64538   0.28404   0.00000  Uiso   1.00
C226   C     0.03555   0.35458   0.21603   0.00000  Uiso   1.00
C227   C     0.00036   0.62382   0.25126   0.00000  Uiso   1.00
C228   C     0.33300   0.37614   0.24877   0.00000  Uiso   1.00
C229   C     0.18266   0.47615   0.28013   0.00000  Uiso   1.00
C230   C     0.15065   0.52393   0.21994   0.00000  Uiso   1.00
C231   C     0.13306   0.47621   0.28017   0.00000  Uiso   1.00
C232   C     0.20024   0.52392   0.21996   0.00000  Uiso   1.00
C233   C     0.30617   0.50264   0.33629   0.00000  Uiso   1.00
C234   C     0.02714   0.49988   0.16339   0.00000  Uiso   1.00
C235   C     0.29122   0.51249   0.38522   0.00000  Uiso   1.00
C236   C     0.04141   0.50049   0.11309   0.00000  Uiso   1.00
C237   C     0.30253   0.54509   0.45315   0.00000  Uiso   1.00
C238   C     0.02522   0.48893   0.04006   0.00000  Uiso   1.00
C239   C     0.32085   0.53500   0.40737   0.00000  Uiso   1.00
C240   C     0.00834   0.49159   0.08712   0.00000  Uiso   1.00
C241   C     0.24335   0.50327   0.40910   0.00000  Uiso   1.00
C242   C     0.08988   0.50949   0.09040   0.00000  Uiso   1.00
C243   C     0.22216   0.52024   0.45212   0.00000  Uiso   1.00
C244   C     0.10567   0.51256   0.04272   0.00000  Uiso   1.00
C245   C     0.25319   0.53867   0.47573   0.00000  Uiso   1.00
C246   C     0.07356   0.49903   0.01744   0.00000  Uiso   1.00
C247   C     0.17129   0.51769   0.47264   0.00000  Uiso   1.00
C248   C     0.15365   0.52578   0.01977   0.00000  Uiso   1.00
Cu249  Cu    0.04689   0.50001   0.25000   0.00000  Uiso   1.00
Cu250  Cu    0.28645   0.49999   0.25000   0.00000  Uiso   1.00
H251   H     0.11553   0.51331   0.11041   0.00000  Uiso   1.00
H252   H     0.22239   0.48332   0.39310   0.00000  Uiso   1.00
N253   N     0.11736   0.50001   0.24999   0.00000  Uiso   1.00
N254   N     0.21597   0.49999   0.25001   0.00000  Uiso   1.00
O255   O     0.03958   0.43989   0.25000   0.00000  Uiso   1.00
O256   O     0.29375   0.56011   0.25000   0.00000  Uiso   1.00
O257   O     0.29372   0.43988   0.25001   0.00000  Uiso   1.00
O258   O     0.03961   0.56012   0.25000   0.00000  Uiso   1.00
O259   O     0.01852   0.50001   0.31492   0.00000  Uiso   1.00
O260   O     0.31481   0.49999   0.18509   0.00000  Uiso   1.00
O261   O     0.27267   0.50000   0.31492   0.00000  Uiso   1.00
O262   O     0.06067   0.50000   0.18508   0.00000  Uiso   1.00
O263   O     0.26553   0.57127   0.04221   0.00000  Uiso   1.00
H264   H     0.24905   0.57483   0.07486   0.00000  Uiso   1.00
O265   O     0.05731   0.48256   0.44641   0.00000  Uiso   1.00
H266   H     0.07489   0.47722   0.41434   0.00000  Uiso   1.00
O267   O     0.29328   0.48347   0.10650   0.00000  Uiso   1.00
H268   H     0.27978   0.50854   0.12377   0.00000  Uiso   1.00
O269   O     0.03369   0.54864   0.38570   0.00000  Uiso   1.00
H270   H     0.03355   0.55836   0.35503   0.00000  Uiso   1.00
H271   H     0.32654   0.56065   0.46997   0.00000  Uiso   1.00
H272   H     0.33290   0.48006   0.02124   0.00000  Uiso   1.00
O273   O     0.16585   0.56981   0.08133   0.00000  Uiso   1.00
H274   H     0.13347   0.58039   0.08087   0.00000  Uiso   1.00
O275   O     0.14721   0.51547   0.40119   0.00000  Uiso   1.00
H276   H     0.16935   0.53967   0.39368   0.00000  Uiso   1.00
O277   O     0.26339   0.37837   0.31343   0.00000  Uiso   1.00
H278   H     0.23958   0.36001   0.33407   0.00000  Uiso   1.00
O279   O     0.06987   0.62156   0.18651   0.00000  Uiso   1.00
H280   H     0.09354   0.63990   0.16569   0.00000  Uiso   1.00
O281   O     0.26405   0.62543   0.31872   0.00000  Uiso   1.00
H282   H     0.27639   0.59798   0.32435   0.00000  Uiso   1.00
O283   O     0.06951   0.37451   0.18146   0.00000  Uiso   1.00
H284   H     0.05729   0.40201   0.17586   0.00000  Uiso   1.00
H285   H     0.19428   0.45695   0.30423   0.00000  Uiso   1.00
H286   H     0.13901   0.54319   0.19590   0.00000  Uiso   1.00
H287   H     0.10732   0.45713   0.30432   0.00000  Uiso   1.00
H288   H     0.22591   0.54319   0.19600   0.00000  Uiso   1.00
C289   C     0.66663   0.42080   0.24956   0.00000  Uiso   1.00
C290   C     0.33337   0.57919   0.25045   0.00000  Uiso   1.00
C291   C     0.51767   0.54781   0.04185   0.00000  Uiso   1.00
C292   C     0.47047   0.50844   0.44737   0.00000  Uiso   1.00
C293   C     0.56773   0.55226   0.02056   0.00000  Uiso   1.00
C294   C     0.42278   0.49646   0.46999   0.00000  Uiso   1.00
C295   C     0.63051   0.35528   0.28210   0.00000  Uiso   1.00
C296   C     0.36950   0.64466   0.21790   0.00000  Uiso   1.00
C297   C     0.63121   0.64538   0.28404   0.00000  Uiso   1.00
C298   C     0.36888   0.35458   0.21603   0.00000  Uiso   1.00
C299   C     0.33370   0.62382   0.25126   0.00000  Uiso   1.00
C300   C     0.66634   0.37614   0.24877   0.00000  Uiso   1.00
C301   C     0.51600   0.47615   0.28013   0.00000  Uiso   1.00
C302   C     0.48398   0.52393   0.21994   0.00000  Uiso   1.00
C303   C     0.46639   0.47621   0.28017   0.00000  Uiso   1.00
C304   C     0.53357   0.52392   0.21996   0.00000  Uiso   1.00
C305   C     0.63951   0.50264   0.33629   0.00000  Uiso   1.00
C306   C     0.36048   0.49988   0.16339   0.00000  Uiso   1.00
C307   C     0.62455   0.51249   0.38522   0.00000  Uiso   1.00
C308   C     0.37474   0.50049   0.11309   0.00000  Uiso   1.00
C309   C     0.63587   0.54509   0.45315   0.00000  Uiso   1.00
C310   C     0.35855   0.48893   0.04006   0.00000  Uiso   1.00
C311   C     0.65418   0.53500   0.40737   0.00000  Uiso   1.00
C312   C     0.34168   0.49159   0.08712   0.00000  Uiso   1.00
C313   C     0.57668   0.50327   0.40910   0.00000  Uiso   1.00
C314   C     0.42322   0.50949   0.09040   0.00000  Uiso   1.00
C315   C     0.55550   0.52024   0.45212   0.00000  Uiso   1.00
C316   C     0.43900   0.51256   0.04272   0.00000  Uiso   1.00
C317   C     0.58652   0.53867   0.47573   0.00000  Uiso   1.00
C318   C     0.40689   0.49903   0.01744   0.00000  Uiso   1.00
C319   C     0.50463   0.51769   0.47264   0.00000  Uiso   1.00
C320   C     0.48699   0.52578   0.01977   0.00000  Uiso   1.00
Cu321  Cu    0.38022   0.50001   0.25000   0.00000  Uiso   1.00
Cu322  Cu    0.61978   0.49999   0.25000   0.00000  Uiso   1.00
H323   H     0.44887   0.51331   0.11041   0.00000  Uiso   1.00
H324   H     0.55572   0.48332   0.39310   0.00000  Uiso   1.00
N325   N     0.45069   0.50001   0.24999   0.00000  Uiso   1.00
N326   N     0.54931   0.49999   0.25001   0.00000  Uiso   1.00
O327   O     0.37291   0.43989   0.25000   0.00000  Uiso   1.00
O328   O     0.62709   0.56011   0.25000   0.00000  Uiso   1.00
O329   O     0.62706   0.43988   0.25001   0.00000  Uiso   1.00
O330   O     0.37294   0.56012   0.25000   0.00000  Uiso   1.00
O331   O     0.35186   0.50001   0.31492   0.00000  Uiso   1.00
O332   O     0.64814   0.49999   0.18509   0.00000  Uiso   1.00
O333   O     0.60600   0.50000   0.31492   0.00000  Uiso   1.00
O334   O     0.39400   0.50000   0.18508   0.00000  Uiso   1.00
O335   O     0.59886   0.57127   0.04221   0.00000  Uiso   1.00
H336   H     0.58238   0.57483   0.07486   0.00000  Uiso   1.00
O337   O     0.39064   0.48256   0.44641   0.00000  Uiso   1.00
H338   H     0.40822   0.47722   0.41434   0.00000  Uiso   1.00
O339   O     0.62662   0.48347   0.10650   0.00000  Uiso   1.00
H340   H     0.61311   0.50854   0.12377   0.00000  Uiso   1.00
O341   O     0.36702   0.54864   0.38570   0.00000  Uiso   1.00
H342   H     0.36689   0.55836   0.35503   0.00000  Uiso   1.00
H343   H     0.65987   0.56065   0.46997   0.00000  Uiso   1.00
H344   H     0.66624   0.48006   0.02124   0.00000  Uiso   1.00
O345   O     0.49918   0.56981   0.08133   0.00000  Uiso   1.00
H346   H     0.46680   0.58039   0.08087   0.00000  Uiso   1.00
O347   O     0.48054   0.51547   0.40119   0.00000  Uiso   1.00
H348   H     0.50269   0.53967   0.39368   0.00000  Uiso   1.00
O349   O     0.59672   0.37837   0.31343   0.00000  Uiso   1.00
H350   H     0.57292   0.36001   0.33407   0.00000  Uiso   1.00
O351   O     0.40321   0.62156   0.18651   0.00000  Uiso   1.00
H352   H     0.42687   0.63990   0.16569   0.00000  Uiso   1.00
O353   O     0.59738   0.62543   0.31872   0.00000  Uiso   1.00
H354   H     0.60972   0.59798   0.32435   0.00000  Uiso   1.00
O355   O     0.40285   0.37451   0.18146   0.00000  Uiso   1.00
H356   H     0.39063   0.40201   0.17586   0.00000  Uiso   1.00
H357   H     0.52762   0.45695   0.30423   0.00000  Uiso   1.00
H358   H     0.47234   0.54319   0.19590   0.00000  Uiso   1.00
H359   H     0.44065   0.45713   0.30432   0.00000  Uiso   1.00
H360   H     0.55924   0.54319   0.19600   0.00000  Uiso   1.00
C361   C     0.99996   0.42080   0.24956   0.00000  Uiso   1.00
C362   C     0.66671   0.57919   0.25045   0.00000  Uiso   1.00
C363   C     0.85100   0.54781   0.04185   0.00000  Uiso   1.00
C364   C     0.80381   0.50844   0.44737   0.00000  Uiso   1.00
C365   C     0.90107   0.55226   0.02056   0.00000  Uiso   1.00
C366   C     0.75611   0.49646   0.46999   0.00000  Uiso   1.00
C367   C     0.96384   0.35528   0.28210   0.00000  Uiso   1.00
C368   C     0.70284   0.64466   0.21790   0.00000  Uiso   1.00
C369   C     0.96454   0.64538   0.28404   0.00000  Uiso   1.00
C370   C     0.70221   0.35458   0.21603   0.00000  Uiso   1.00
C371   C     0.66703   0.62382   0.25126   0.00000  Uiso   1.00
C372   C     0.99967   0.37614   0.24877   0.00000  Uiso   1.00
C373   C     0.84933   0.47615   0.28013   0.00000  Uiso   1.00
C374   C     0.81731   0.52393   0.21994   0.00000  Uiso   1.00
C375   C     0.79972   0.47621   0.28017   0.00000  Uiso   1.00
C376   C     0.86690   0.52392   0.21996   0.00000  Uiso   1.00
C377   C     0.97284   0.50264   0.33629   0.00000  Uiso   1.00
C378   C     0.69381   0.49988   0.16339   0.00000  Uiso   1.00
C379   C     0.95789   0.51249   0.38522   0.00000  Uiso   1.00
C380   C     0.70807   0.50049   0.11309   0.00000  Uiso   1.00
C381   C     0.96920   0.54509   0.45315   0.00000  Uiso   1.00
C382   C     0.69189   0.48893   0.04006   0.00000  Uiso   1.00
C383   C     0.98752   0.53500   0.40737   0.00000  Uiso   1.00
C384   C     0.67501   0.49159   0.08712   0.00000  Uiso   1.00
C385   C     0.91001   0.50327   0.40910   0.00000  Uiso   1.00
C386   C     0.75655   0.50949   0.09040   0.00000  Uiso   1.00
C387   C     0.88883   0.52024   0.45212   0.00000  Uiso   1.00
C388   C     0.77234   0.51256   0.04272   0.00000  Uiso   1.00
C389   C     0.91985   0.53867   0.47573   0.00000  Uiso   1.00
C390   C     0.74022   0.49903   0.01744   0.00000  Uiso   1.00
C391   C     0.83796   0.51769   0.47264   0.00000  Uiso   1.00
C392   C     0.82032   0.52578   0.01977   0.00000  Uiso   1.00
Cu393  Cu    0.71355   0.50001   0.25000   0.00000  Uiso   1.00
Cu394  Cu    0.95311   0.49999   0.25000   0.00000  Uiso   1.00
H395   H     0.78220   0.51331   0.11041   0.00000  Uiso   1.00
H396   H     0.88905   0.48332   0.39310   0.00000  Uiso   1.00
N397   N     0.78403   0.50001   0.24999   0.00000  Uiso   1.00
N398   N     0.88264   0.49999   0.25001   0.00000  Uiso   1.00
O399   O     0.70625   0.43989   0.25000   0.00000  Uiso   1.00
O400   O     0.96042   0.56011   0.25000   0.00000  Uiso   1.00
O401   O     0.96039   0.43988   0.25001   0.00000  Uiso   1.00
O402   O     0.70628   0.56012   0.25000   0.00000  Uiso   1.00
O403   O     0.68519   0.50001   0.31492   0.00000  Uiso   1.00
O404   O     0.98148   0.49999   0.18509   0.00000  Uiso   1.00
O405   O     0.93933   0.50000   0.31492   0.00000  Uiso   1.00
O406   O     0.72733   0.50000   0.18508   0.00000  Uiso   1.00
O407   O     0.93220   0.57127   0.04221   0.00000  Uiso   1.00
H408   H     0.91572   0.57483   0.07486   0.00000  Uiso   1.00
O409   O     0.72398   0.48256   0.44641   0.00000  Uiso   1.00
H410   H     0.74156   0.47722   0.41434   0.00000  Uiso   1.00
O411   O     0.95995   0.48347   0.10650   0.00000  Uiso   1.00
H412   H     0.94645   0.50854   0.12377   0.00000  Uiso   1.00
O413   O     0.70036   0.54864   0.38570   0.00000  Uiso   1.00
H414   H     0.70022   0.55836   0.35503   0.00000  Uiso   1.00
H415   H     0.99321   0.56065   0.46997   0.00000  Uiso   1.00
H416   H     0.99957   0.48006   0.02124   0.00000  Uiso   1.00
O417   O     0.83252   0.56981   0.08133   0.00000  Uiso   1.00
H418   H     0.80013   0.58039   0.08087   0.00000  Uiso   1.00
O419   O     0.81388   0.51547   0.40119   0.00000  Uiso   1.00
H420   H     0.83602   0.53967   0.39368   0.00000  Uiso   1.00
O421   O     0.93006   0.37837   0.31343   0.00000  Uiso   1.00
H422   H     0.90625   0.36001   0.33407   0.00000  Uiso   1.00
O423   O     0.73654   0.62156   0.18651   0.00000  Uiso   1.00
H424   H     0.76020   0.63990   0.16569   0.00000  Uiso   1.00
O425   O     0.93071   0.62543   0.31872   0.00000  Uiso   1.00
H426   H     0.94305   0.59798   0.32435   0.00000  Uiso   1.00
O427   O     0.73618   0.37451   0.18146   0.00000  Uiso   1.00
H428   H     0.72396   0.40201   0.17586   0.00000  Uiso   1.00
H429   H     0.86095   0.45695   0.30423   0.00000  Uiso   1.00
H430   H     0.80568   0.54319   0.19590   0.00000  Uiso   1.00
H431   H     0.77399   0.45713   0.30432   0.00000  Uiso   1.00
H432   H     0.89258   0.54319   0.19600   0.00000  Uiso   1.00
C433   C     0.33330   0.75414   0.24956   0.00000  Uiso   1.00
C434   C     0.00004   0.91252   0.25045   0.00000  Uiso   1.00
C435   C     0.18433   0.88115   0.04185   0.00000  Uiso   1.00
C436   C     0.13714   0.84178   0.44737   0.00000  Uiso   1.00
C437   C     0.23440   0.88559   0.02056   0.00000  Uiso   1.00
C438   C     0.08945   0.82980   0.46999   0.00000  Uiso   1.00
C439   C     0.29718   0.68862   0.28210   0.00000  Uiso   1.00
C440   C     0.03617   0.97800   0.21790   0.00000  Uiso   1.00
C441   C     0.29788   0.97871   0.28404   0.00000  Uiso   1.00
C442   C     0.03555   0.68791   0.21603   0.00000  Uiso   1.00
C443   C     0.00036   0.95716   0.25126   0.00000  Uiso   1.00
C444   C     0.33300   0.70948   0.24877   0.00000  Uiso   1.00
C445   C     0.18266   0.80948   0.28013   0.00000  Uiso   1.00
C446   C     0.15065   0.85726   0.21994   0.00000  Uiso   1.00
C447   C     0.13306   0.80954   0.28017   0.00000  Uiso   1.00
C448   C     0.20024   0.85726   0.21996   0.00000  Uiso   1.00
C449   C     0.30617   0.83597   0.33629   0.00000  Uiso   1.00
C450   C     0.02714   0.83322   0.16339   0.00000  Uiso   1.00
C451   C     0.29122   0.84583   0.38522   0.00000  Uiso   1.00
C452   C     0.04141   0.83382   0.11309   0.00000  Uiso   1.00
C453   C     0.30253   0.87842   0.45315   0.00000  Uiso   1.00
C454   C     0.02522   0.82227   0.04006   0.00000  Uiso   1.00
C455   C     0.32085   0.86833   0.40737   0.00000  Uiso   1.00
C456   C     0.00834   0.82492   0.08712   0.00000  Uiso   1.00
C457   C     0.24335   0.83660   0.40910   0.00000  Uiso   1.00
C458   C     0.08988   0.84282   0.09040   0.00000  Uiso   1.00
C459   C     0.22216   0.85358   0.45212   0.00000  Uiso   1.00
C460   C     0.10567   0.84590   0.04272   0.00000  Uiso   1.00
C461   C     0.25319   0.87200   0.47573   0.00000  Uiso   1.00
C462   C     0.07356   0.83236   0.01744   0.00000  Uiso   1.00
C463   C     0.17129   0.85102   0.47264   0.00000  Uiso   1.00
C464   C     0.15365   0.85911   0.01977   0.00000  Uiso   1.00
Cu465  Cu    0.04689   0.83334   0.25000   0.00000  Uiso   1.00
Cu466  Cu    0.28645   0.83333   0.25000   0.00000  Uiso   1.00
H467   H     0.11553   0.84664   0.11041   0.00000  Uiso   1.00
H468   H     0.22239   0.81665   0.39310   0.00000  Uiso   1.00
N469   N     0.11736   0.83334   0.24999   0.00000  Uiso   1.00
N470   N     0.21597   0.83332   0.25001   0.00000  Uiso   1.00
O471   O     0.03958   0.77322   0.25000   0.00000  Uiso   1.00
O472   O     0.29375   0.89345   0.25000   0.00000  Uiso   1.00
O473   O     0.29372   0.77321   0.25001   0.00000  Uiso   1.00
O474   O     0.03961   0.89346   0.25000   0.00000  Uiso   1.00
O475   O     0.01852   0.83334   0.31492   0.00000  Uiso   1.00
O476   O     0.31481   0.83332   0.18509   0.00000  Uiso   1.00
O477   O     0.27267   0.83333   0.31492   0.00000  Uiso   1.00
O478   O     0.06067   0.83333   0.18508   0.00000  Uiso   1.00
O479   O     0.26553   0.90461   0.04221   0.00000  Uiso   1.00
H480   H     0.24905   0.90817   0.07486   0.00000  Uiso   1.00
O481   O     0.05731   0.81589   0.44641   0.00000  Uiso   1.00
H482   H     0.07489   0.81056   0.41434   0.00000  Uiso   1.00
O483   O     0.29328   0.81680   0.10650   0.00000  Uiso   1.00
H484   H     0.27978   0.84187   0.12377   0.00000  Uiso   1.00
O485   O     0.03369   0.88197   0.38570   0.00000  Uiso   1.00
H486   H     0.03355   0.89169   0.35503   0.00000  Uiso   1.00
H487   H     0.32654   0.89398   0.46997   0.00000  Uiso   1.00
H488   H     0.33290   0.81340   0.02124   0.00000  Uiso   1.00
O489   O     0.16585   0.90314   0.08133   0.00000  Uiso   1.00
H490   H     0.13347   0.91373   0.08087   0.00000  Uiso   1.00
O491   O     0.14721   0.84880   0.40119   0.00000  Uiso   1.00
H492   H     0.16935   0.87300   0.39368   0.00000  Uiso   1.00
O493   O     0.26339   0.71171   0.31343   0.00000  Uiso   1.00
H494   H     0.23958   0.69334   0.33407   0.00000  Uiso   1.00
O495   O     0.06987   0.95489   0.18651   0.00000  Uiso   1.00
H496   H     0.09354   0.97323   0.16569   0.00000  Uiso   1.00
O497   O     0.26405   0.95877   0.31872   0.00000  Uiso   1.00
H498   H     0.27639   0.93131   0.32435   0.00000  Uiso   1.00
O499   O     0.06951   0.70784   0.18146   0.00000  Uiso   1.00
H500   H     0.05729   0.73535   0.17586   0.00000  Uiso   1.00
H501   H     0.19428   0.79029   0.30423   0.00000  Uiso   1.00
H502   H     0.13901   0.87652   0.19590   0.00000  Uiso   1.00
H503   H     0.10732   0.79047   0.30432   0.00000  Uiso   1.00
H504   H     0.22591   0.87652   0.19600   0.00000  Uiso   1.00
C505   C     0.66663   0.75414   0.24956   0.00000  Uiso   1.00
C506   C     0.33337   0.91252   0.25045   0.00000  Uiso   1.00
C507   C     0.51767   0.88115   0.04185   0.00000  Uiso   1.00
C508   C     0.47047   0.84178   0.44737   0.00000  Uiso   1.00
C509   C     0.56773   0.88559   0.02056   0.00000  Uiso   1.00
C510   C     0.42278   0.82980   0.46999   0.00000  Uiso   1.00
C511   C     0.63051   0.68862   0.28210   0.00000  Uiso   1.00
C512   C     0.36950   0.97800   0.21790   0.00000  Uiso   1.00
C513   C     0.63121   0.97871   0.28404   0.00000  Uiso   1.00
C514   C     0.36888   0.68791   0.21603   0.00000  Uiso   1.00
C515   C     0.33370   0.95716   0.25126   0.00000  Uiso   1.00
C516   C     0.66634   0.70948   0.24877   0.00000  Uiso   1.00
C517   C     0.51600   0.80948   0.28013   0.00000  Uiso   1.00
C518   C     0.48398   0.85726   0.21994   0.00000  Uiso   1.00
C519   C     0.46639   0.80954   0.28017   0.00000  Uiso   1.00
C520   C     0.53357   0.85726   0.21996   0.00000  Uiso   1.00
C521   C     0.63951   0.83597   0.33629   0.00000  Uiso   1.00
C522   C     0.36048   0.83322   0.16339   0.00000  Uiso   1.00
C523   C     0.62455   0.84583   0.38522   0.00000  Uiso   1.00
C524   C     0.37474   0.83382   0.11309   0.00000  Uiso   1.00
C525   C     0.63587   0.87842   0.45315   0.00000  Uiso   1.00
C526   C     0.35855   0.82227   0.04006   0.00000  Uiso   1.00
C527   C     0.65418   0.86833   0.40737   0.00000  Uiso   1.00
C528   C     0.34168   0.82492   0.08712   0.00000  Uiso   1.00
C529   C     0.57668   0.83660   0.40910   0.00000  Uiso   1.00
C530   C     0.42322   0.84282   0.09040   0.00000  Uiso   1.00
C531   C     0.55550   0.85358   0.45212   0.00000  Uiso   1.00
C532   C     0.43900   0.84590   0.04272   0.00000  Uiso   1.00
C533   C     0.58652   0.87200   0.47573   0.00000  Uiso   1.00
C534   C     0.40689   0.83236   0.01744   0.00000  Uiso   1.00
C535   C     0.50463   0.85102   0.47264   0.00000  Uiso   1.00
C536   C     0.48699   0.85911   0.01977   0.00000  Uiso   1.00
Cu537  Cu    0.38022   0.83334   0.25000   0.00000  Uiso   1.00
Cu538  Cu    0.61978   0.83333   0.25000   0.00000  Uiso   1.00
H539   H     0.44887   0.84664   0.11041   0.00000  Uiso   1.00
H540   H     0.55572   0.81665   0.39310   0.00000  Uiso   1.00
N541   N     0.45069   0.83334   0.24999   0.00000  Uiso   1.00
N542   N     0.54931   0.83332   0.25001   0.00000  Uiso   1.00
O543   O     0.37291   0.77322   0.25000   0.00000  Uiso   1.00
O544   O     0.62709   0.89345   0.25000   0.00000  Uiso   1.00
O545   O     0.62706   0.77321   0.25001   0.00000  Uiso   1.00
O546   O     0.37294   0.89346   0.25000   0.00000  Uiso   1.00
O547   O     0.35186   0.83334   0.31492   0.00000  Uiso   1.00
O548   O     0.64814   0.83332   0.18509   0.00000  Uiso   1.00
O549   O     0.60600   0.83333   0.31492   0.00000  Uiso   1.00
O550   O     0.39400   0.83333   0.18508   0.00000  Uiso   1.00
O551   O     0.59886   0.90461   0.04221   0.00000  Uiso   1.00
H552   H     0.58238   0.90817   0.07486   0.00000  Uiso   1.00
O553   O     0.39064   0.81589   0.44641   0.00000  Uiso   1.00
H554   H     0.40822   0.81056   0.41434   0.00000  Uiso   1.00
O555   O     0.62662   0.81680   0.10650   0.00000  Uiso   1.00
H556   H     0.61311   0.84187   0.12377   0.00000  Uiso   1.00
O557   O     0.36702   0.88197   0.38570   0.00000  Uiso   1.00
H558   H     0.36689   0.89169   0.35503   0.00000  Uiso   1.00
H559   H     0.65987   0.89398   0.46997   0.00000  Uiso   1.00
H560   H     0.66624   0.81340   0.02124   0.00000  Uiso   1.00
O561   O     0.49918   0.90314   0.08133   0.00000  Uiso   1.00
H562   H     0.46680   0.91373   0.08087   0.00000  Uiso   1.00
O563   O     0.48054   0.84880   0.40119   0.00000  Uiso   1.00
H564   H     0.50269   0.87300   0.39368   0.00000  Uiso   1.00
O565   O     0.59672   0.71171   0.31343   0.00000  Uiso   1.00
H566   H     0.57292   0.69334   0.33407   0.00000  Uiso   1.00
O567   O     0.40321   0.95489   0.18651   0.00000  Uiso   1.00
H568   H     0.42687   0.97323   0.16569   0.00000  Uiso   1.00
O569   O     0.59738   0.95877   0.31872   0.00000  Uiso   1.00
H570   H     0.60972   0.93131   0.32435   0.00000  Uiso   1.00
O571   O     0.40285   0.70784   0.18146   0.00000  Uiso   1.00
H572   H     0.39063   0.73535   0.17586   0.00000  Uiso   1.00
H573   H     0.52762   0.79029   0.30423   0.00000  Uiso   1.00
H574   H     0.47234   0.87652   0.19590   0.00000  Uiso   1.00
H575   H     0.44065   0.79047   0.30432   0.00000  Uiso   1.00
H576   H     0.55924   0.87652   0.19600   0.00000  Uiso   1.00
C577   C     0.99996   0.75414   0.24956   0.00000  Uiso   1.00
C578   C     0.66671   0.91252   0.25045   0.00000  Uiso   1.00
C579   C     0.85100   0.88115   0.04185   0.00000  Uiso   1.00
C580   C     0.80381   0.84178   0.44737   0.00000  Uiso   1.00
C581   C     0.90107   0.88559   0.02056   0.00000  Uiso   1.00
C582   C     0.75611   0.82980   0.46999   0.00000  Uiso   1.00
C583   C     0.96384   0.68862   0.28210   0.00000  Uiso   1.00
C584   C     0.70284   0.97800   0.21790   0.00000  Uiso   1.00
C585   C     0.96454   0.97871   0.28404   0.00000  Uiso   1.00
C586   C     0.70221   0.68791   0.21603   0.00000  Uiso   1.00
C587   C     0.66703   0.95716   0.25126   0.00000  Uiso   1.00
C588   C     0.99967   0.70948   0.24877   0.00000  Uiso   1.00
C589   C     0.84933   0.80948   0.28013   0.00000  Uiso   1.00
C590   C     0.81731   0.85726   0.21994   0.00000  Uiso   1.00
C591   C     0.79972   0.80954   0.28017   0.00000  Uiso   1.00
C592   C     0.86690   0.85726   0.21996   0.00000  Uiso   1.00
C593   C     0.97284   0.83597   0.33629   0.00000  Uiso   1.00
C594   C     0.69381   0.83322   0.16339   0.00000  Uiso   1.00
C595   C     0.95789   0.84583   0.38522   0.00000  Uiso   1.00
C596   C     0.70807   0.83382   0.11309   0.00000  Uiso   1.00
C597   C     0.96920   0.87842   0.45315   0.00000  Uiso   1.00
C598   C     0.69189   0.82227   0.04006   0.00000  Uiso   1.00
C599   C     0.98752   0.86833   0.40737   0.00000  Uiso   1.00
C600   C     0.67501   0.82492   0.08712   0.00000  Uiso   1.00
C601   C     0.91001   0.83660   0.40910   0.00000  Uiso   1.00
C602   C     0.75655   0.84282   0.09040   0.00000  Uiso   1.00
C603   C     0.88883   0.85358   0.45212   0.00000  Uiso   1.00
C604   C     0.77234   0.84590   0.04272   0.00000  Uiso   1.00
C605   C     0.91985   0.87200   0.47573   0.00000  Uiso   1.00
C606   C     0.74022   0.83236   0.01744   0.00000  Uiso   1.00
C607   C     0.83796   0.85102   0.47264   0.00000  Uiso   1.00
C608   C     0.82032   0.85911   0.01977   0.00000  Uiso   1.00
Cu609  Cu    0.71355   0.83334   0.25000   0.00000  Uiso   1.00
Cu610  Cu    0.95311   0.83333   0.25000   0.00000  Uiso   1.00
H611   H     0.78220   0.84664   0.11041   0.00000  Uiso   1.00
H612   H     0.88905   0.81665   0.39310   0.00000  Uiso   1.00
N613   N     0.78403   0.83334   0.24999   0.00000  Uiso   1.00
N614   N     0.88264   0.83332   0.25001   0.00000  Uiso   1.00
O615   O     0.70625   0.77322   0.25000   0.00000  Uiso   1.00
O616   O     0.96042   0.89345   0.25000   0.00000  Uiso   1.00
O617   O     0.96039   0.77321   0.25001   0.00000  Uiso   1.00
O618   O     0.70628   0.89346   0.25000   0.00000  Uiso   1.00
O619   O     0.68519   0.83334   0.31492   0.00000  Uiso   1.00
O620   O     0.98148   0.83332   0.18509   0.00000  Uiso   1.00
O621   O     0.93933   0.83333   0.31492   0.00000  Uiso   1.00
O622   O     0.72733   0.83333   0.18508   0.00000  Uiso   1.00
O623   O     0.93220   0.90461   0.04221   0.00000  Uiso   1.00
H624   H     0.91572   0.90817   0.07486   0.00000  Uiso   1.00
O625   O     0.72398   0.81589   0.44641   0.00000  Uiso   1.00
H626   H     0.74156   0.81056   0.41434   0.00000  Uiso   1.00
O627   O     0.95995   0.81680   0.10650   0.00000  Uiso   1.00
H628   H     0.94645   0.84187   0.12377   0.00000  Uiso   1.00
O629   O     0.70036   0.88197   0.38570   0.00000  Uiso   1.00
H630   H     0.70022   0.89169   0.35503   0.00000  Uiso   1.00
H631   H     0.99321   0.89398   0.46997   0.00000  Uiso   1.00
H632   H     0.99957   0.81340   0.02124   0.00000  Uiso   1.00
O633   O     0.83252   0.90314   0.08133   0.00000  Uiso   1.00
H634   H     0.80013   0.91373   0.08087   0.00000  Uiso   1.00
O635   O     0.81388   0.84880   0.40119   0.00000  Uiso   1.00
H636   H     0.83602   0.87300   0.39368   0.00000  Uiso   1.00
O637   O     0.93006   0.71171   0.31343   0.00000  Uiso   1.00
H638   H     0.90625   0.69334   0.33407   0.00000  Uiso   1.00
O639   O     0.73654   0.95489   0.18651   0.00000  Uiso   1.00
H640   H     0.76020   0.97323   0.16569   0.00000  Uiso   1.00
O641   O     0.93071   0.95877   0.31872   0.00000  Uiso   1.00
H642   H     0.94305   0.93131   0.32435   0.00000  Uiso   1.00
O643   O     0.73618   0.70784   0.18146   0.00000  Uiso   1.00
H644   H     0.72396   0.73535   0.17586   0.00000  Uiso   1.00
H645   H     0.86095   0.79029   0.30423   0.00000  Uiso   1.00
H646   H     0.80568   0.87652   0.19590   0.00000  Uiso   1.00
H647   H     0.77399   0.79047   0.30432   0.00000  Uiso   1.00
H648   H     0.89258   0.87652   0.19600   0.00000  Uiso   1.00
C649   C     0.33330   0.08747   0.74956   0.00000  Uiso   1.00
C650   C     0.00004   0.24585   0.75045   0.00000  Uiso   1.00
C651   C     0.18433   0.21448   0.54185   0.00000  Uiso   1.00
C652   C     0.13714   0.17511   0.94737   0.00000  Uiso   1.00
C653   C     0.23440   0.21892   0.52056   0.00000  Uiso   1.00
C654   C     0.08945   0.16313   0.96999   0.00000  Uiso   1.00
C655   C     0.29718   0.02195   0.78210   0.00000  Uiso   1.00
C656   C     0.03617   0.31133   0.71790   0.00000  Uiso   1.00
C657   C     0.29788   0.31204   0.78404   0.00000  Uiso   1.00
C658   C     0.03555   0.02124   0.71603   0.00000  Uiso   1.00
C659   C     0.00036   0.29049   0.75126   0.00000  Uiso   1.00
C660   C     0.33300   0.04281   0.74877   0.00000  Uiso   1.00
C661   C     0.18266   0.14281   0.78013   0.00000  Uiso   1.00
C662   C     0.15065   0.19060   0.71994   0.00000  Uiso   1.00
C663   C     0.13306   0.14288   0.78017   0.00000  Uiso   1.00
C664   C     0.20024   0.19059   0.71996   0.00000  Uiso   1.00
C665   C     0.30617   0.16930   0.83629   0.00000  Uiso   1.00
C666   C     0.02714   0.16655   0.66339   0.00000  Uiso   1.00
C667   C     0.29122   0.17916   0.88522   0.00000  Uiso   1.00
C668   C     0.04141   0.16716   0.61309   0.00000  Uiso   1.00
C669   C     0.30253   0.21175   0.95315   0.00000  Uiso   1.00
C670   C     0.02522   0.15560   0.54006   0.00000  Uiso   1.00
C671   C     0.32085   0.20166   0.90737   0.00000  Uiso   1.00
C672   C     0.00834   0.15825   0.58712   0.00000  Uiso   1.00
C673   C     0.24335   0.16994   0.90910   0.00000  Uiso   1.00
C674   C     0.08988   0.17615   0.59040   0.00000  Uiso   1.00
C675   C     0.22216   0.18691   0.95212   0.00000  Uiso   1.00
C676   C     0.10567   0.17923   0.54272   0.00000  Uiso   1.00
C677   C     0.25319   0.20533   0.97573   0.00000  Uiso   1.00
C678   C     0.07356   0.16570   0.51744   0.00000  Uiso   1.00
C679   C     0.17129   0.18436   0.97264   0.00000  Uiso   1.00
C680   C     0.15365   0.19244   0.51977   0.00000  Uiso   1.00
Cu681  Cu    0.04689   0.16667   0.75000   0.00000  Uiso   1.00
Cu682  Cu    0.28645   0.16666   0.75000   0.00000  Uiso   1.00
H683   H     0.11553   0.17997   0.61041   0.00000  Uiso   1.00
H684   H     0.22239   0.14999   0.89310   0.00000  Uiso   1.00
N685   N     0.11736   0.16668   0.74999   0.00000  Uiso   1.00
N686   N     0.21597   0.16666   0.75001   0.00000  Uiso   1.00
O687   O     0.03958   0.10655   0.75000   0.00000  Uiso   1.00
O688   O     0.29375   0.22678   0.75000   0.00000  Uiso   1.00
O689   O     0.29372   0.10654   0.75001   0.00000  Uiso   1.00
O690   O     0.03961   0.22679   0.75000   0.00000  Uiso   1.00
O691   O     0.01852   0.16668   0.81492   0.00000  Uiso   1.00
O692   O     0.31481   0.16666   0.68509   0.00000  Uiso   1.00
O693   O     0.27267   0.16667   0.81492   0.00000  Uiso   1.00
O694   O     0.06067   0.16667   0.68508   0.00000  Uiso   1.00
O695   O     0.26553   0.23794   0.54221   0.00000  Uiso   1.00
H696   H     0.24905   0.24150   0.57486   0.00000  Uiso   1.00
O697   O     0.05731   0.14923   0.94641   0.00000  Uiso   1.00
H698   H     0.07489   0.14389   0.91434   0.00000  Uiso   1.00
O699   O     0.29328   0.15013   0.60650   0.00000  Uiso   1.00
H700   H     0.27978   0.17520   0.62377   0.00000  Uiso   1.00
O701   O     0.03369   0.21531   0.88570   0.00000  Uiso   1.00
H702   H     0.03355   0.22503   0.85503   0.00000  Uiso   1.00
H703   H     0.32654   0.22732   0.96997   0.00000  Uiso   1.00
H704   H     0.33290   0.14673   0.52124   0.00000  Uiso   1.00
O705   O     0.16585   0.23647   0.58133   0.00000  Uiso   1.00
H706   H     0.13347   0.24706   0.58087   0.00000  Uiso   1.00
O707   O     0.14721   0.18213   0.90119   0.00000  Uiso   1.00
H708   H     0.16935   0.20633   0.89368   0.00000  Uiso   1.00
O709   O     0.26339   0.04504   0.81343   0.00000  Uiso   1.00
H710   H     0.23958   0.02668   0.83407   0.00000  Uiso   1.00
O711   O     0.06987   0.28822   0.68651   0.00000  Uiso   1.00
H712   H     0.09354   0.30656   0.66569   0.00000  Uiso   1.00
O713   O     0.26405   0.29210   0.81872   0.00000  Uiso   1.00
H714   H     0.27639   0.26465   0.82435   0.00000  Uiso   1.00
O715   O     0.06951   0.04117   0.68146   0.00000  Uiso   1.00
H716   H     0.05729   0.06868   0.67586   0.00000  Uiso   1.00
H717   H     0.19428   0.12362   0.80423   0.00000  Uiso   1.00
H718   H     0.13901   0.20986   0.69590   0.00000  Uiso   1.00
H719   H     0.10732   0.12380   0.80432   0.00000  Uiso   1.00
H720   H     0.22591   0.20985   0.69600   0.00000  Uiso   1.00
C721   C     0.66663   0.08747   0.74956   0.00000  Uiso   1.00
C722   C     0.33337   0.24585   0.75045   0.00000  Uiso   1.00
C723   C     0.51767   0.21448   0.54185   0.00000  Uiso   1.00
C724   C     0.47047   0.17511   0.94737   0.00000  Uiso   1.00
C725   C     0.56773   0.21892   0.52056   0.00000  Uiso   1.00
C726   C     0.42278   0.16313   0.96999   0.00000  Uiso   1.00
C727   C     0.63051   0.02195   0.78210   0.00000  Uiso   1.00
C728   C     0.36950   0.31133   0.71790   0.00000  Uiso   1.00
C729   C     0.63121   0.31204   0.78404   0.00000  Uiso   1.00
C730   C     0.36888   0.02124   0.71603   0.00000  Uiso   1.00
C731   C     0.33370   0.29049   0.75126   0.00000  Uiso   1.00
C732   C     0.66634   0.04281   0.74877   0.00000  Uiso   1.00
C733   C     0.51600   0.14281   0.78013   0.00000  Uiso   1.00
C734   C     0.48398   0.19060   0.71994   0.00000  Uiso   1.00
C735   C     0.46639   0.14288   0.78017   0.00000  Uiso   1.00
C736   C     0.53357   0.19059   0.71996   0.00000  Uiso   1.00
C737   C     0.63951   0.16930   0.83629   0.00000  Uiso   1.00
C738   C     0.36048   0.16655   0.66339   0.00000  Uiso   1.00
C739   C     0.62455   0.17916   0.88522   0.00000  Uiso   1.00
C740   C     0.37474   0.16716   0.61309   0.00000  Uiso   1.00
C741   C     0.63587   0.21175   0.95315   0.00000  Uiso   1.00
C742   C     0.35855   0.15560   0.54006   0.00000  Uiso   1.00
C743   C     0.65418   0.20166   0.90737   0.00000  Uiso   1.00
C744   C     0.34168   0.15825   0.58712   0.00000  Uiso   1.00
C745   C     0.57668   0.16994   0.90910   0.00000  Uiso   1.00
C746   C     0.42322   0.17615   0.59040   0.00000  Uiso   1.00
C747   C     0.55550   0.18691   0.95212   0.00000  Uiso   1.00
C748   C     0.43900   0.17923   0.54272   0.00000  Uiso   1.00
C749   C     0.58652   0.20533   0.97573   0.00000  Uiso   1.00
C750   C     0.40689   0.16570   0.51744   0.00000  Uiso   1.00
C751   C     0.50463   0.18436   0.97264   0.00000  Uiso   1.00
C752   C     0.48699   0.19244   0.51977   0.00000  Uiso   1.00
Cu753  Cu    0.38022   0.16667   0.75000   0.00000  Uiso   1.00
Cu754  Cu    0.61978   0.16666   0.75000   0.00000  Uiso   1.00
H755   H     0.44887   0.17997   0.61041   0.00000  Uiso   1.00
H756   H     0.55572   0.14999   0.89310   0.00000  Uiso   1.00
N757   N     0.45069   0.16668   0.74999   0.00000  Uiso   1.00
N758   N     0.54931   0.16666   0.75001   0.00000  Uiso   1.00
O759   O     0.37291   0.10655   0.75000   0.00000  Uiso   1.00
O760   O     0.62709   0.22678   0.75000   0.00000  Uiso   1.00
O761   O     0.62706   0.10654   0.75001   0.00000  Uiso   1.00
O762   O     0.37294   0.22679   0.75000   0.00000  Uiso   1.00
O763   O     0.35186   0.16668   0.81492   0.00000  Uiso   1.00
O764   O     0.64814   0.16666   0.68509   0.00000  Uiso   1.00
O765   O     0.60600   0.16667   0.81492   0.00000  Uiso   1.00
O766   O     0.39400   0.16667   0.68508   0.00000  Uiso   1.00
O767   O     0.59886   0.23794   0.54221   0.00000  Uiso   1.00
H768   H     0.58238   0.24150   0.57486   0.00000  Uiso   1.00
O769   O     0.39064   0.14923   0.94641   0.00000  Uiso   1.00
H770   H     0.40822   0.14389   0.91434   0.00000  Uiso   1.00
O771   O     0.62662   0.15013   0.60650   0.00000  Uiso   1.00
H772   H     0.61311   0.17520   0.62377   0.00000  Uiso   1.00
O773   O     0.36702   0.21531   0.88570   0.00000  Uiso   1.00
H774   H     0.36689   0.22503   0.85503   0.00000  Uiso   1.00
H775   H     0.65987   0.22732   0.96997   0.00000  Uiso   1.00
H776   H     0.66624   0.14673   0.52124   0.00000  Uiso   1.00
O777   O     0.49918   0.23647   0.58133   0.00000  Uiso   1.00
H778   H     0.46680   0.24706   0.58087   0.00000  Uiso   1.00
O779   O     0.48054   0.18213   0.90119   0.00000  Uiso   1.00
H780   H     0.50269   0.20633   0.89368   0.00000  Uiso   1.00
O781   O     0.59672   0.04504   0.81343   0.00000  Uiso   1.00
H782   H     0.57292   0.02668   0.83407   0.00000  Uiso   1.00
O783   O     0.40321   0.28822   0.68651   0.00000  Uiso   1.00
H784   H     0.42687   0.30656   0.66569   0.00000  Uiso   1.00
O785   O     0.59738   0.29210   0.81872   0.00000  Uiso   1.00
H786   H     0.60972   0.26465   0.82435   0.00000  Uiso   1.00
O787   O     0.40285   0.04117   0.68146   0.00000  Uiso   1.00
H788   H     0.39063   0.06868   0.67586   0.00000  Uiso   1.00
H789   H     0.52762   0.12362   0.80423   0.00000  Uiso   1.00
H790   H     0.47234   0.20986   0.69590   0.00000  Uiso   1.00
H791   H     0.44065   0.12380   0.80432   0.00000  Uiso   1.00
H792   H     0.55924   0.20985   0.69600   0.00000  Uiso   1.00
C793   C     0.99996   0.08747   0.74956   0.00000  Uiso   1.00
C794   C     0.66671   0.24585   0.75045   0.00000  Uiso   1.00
C795   C     0.85100   0.21448   0.54185   0.00000  Uiso   1.00
C796   C     0.80381   0.17511   0.94737   0.00000  Uiso   1.00
C797   C     0.90107   0.21892   0.52056   0.00000  Uiso   1.00
C798   C     0.75611   0.16313   0.96999   0.00000  Uiso   1.00
C799   C     0.96384   0.02195   0.78210   0.00000  Uiso   1.00
C800   C     0.70284   0.31133   0.71790   0.00000  Uiso   1.00
C801   C     0.96454   0.31204   0.78404   0.00000  Uiso   1.00
C802   C     0.70221   0.02124   0.71603   0.00000  Uiso   1.00
C803   C     0.66703   0.29049   0.75126   0.00000  Uiso   1.00
C804   C     0.99967   0.04281   0.74877   0.00000  Uiso   1.00
C805   C     0.84933   0.14281   0.78013   0.00000  Uiso   1.00
C806   C     0.81731   0.19060   0.71994   0.00000  Uiso   1.00
C807   C     0.79972   0.14288   0.78017   0.00000  Uiso   1.00
C808   C     0.86690   0.19059   0.71996   0.00000  Uiso   1.00
C809   C     0.97284   0.16930   0.83629   0.00000  Uiso   1.00
C810   C     0.69381   0.16655   0.66339   0.00000  Uiso   1.00
C811   C     0.95789   0.17916   0.88522   0.00000  Uiso   1.00
C812   C     0.70807   0.16716   0.61309   0.00000  Uiso   1.00
C813   C     0.96920   0.21175   0.95315   0.00000  Uiso   1.00
C814   C     0.69189   0.15560   0.54006   0.00000  Uiso   1.00
C815   C     0.98752   0.20166   0.90737   0.00000  Uiso   1.00
C816   C     0.67501   0.15825   0.58712   0.00000  Uiso   1.00
C817   C     0.91001   0.16994   0.90910   0.00000  Uiso   1.00
C818   C     0.75655   0.17615   0.59040   0.00000  Uiso   1.00
C819   C     0.88883   0.18691   0.95212   0.00000  Uiso   1.00
C820   C     0.77234   0.17923   0.54272   0.00000  Uiso   1.00
C821   C     0.91985   0.20533   0.97573   0.00000  Uiso   1.00
C822   C     0.74022   0.16570   0.51744   0.00000  Uiso   1.00
C823   C     0.83796   0.18436   0.97264   0.00000  Uiso   1.00
C824   C     0.82032   0.19244   0.51977   0.00000  Uiso   1.00
Cu825  Cu    0.71355   0.16667   0.75000   0.00000  Uiso   1.00
Cu826  Cu    0.95311   0.16666   0.75000   0.00000  Uiso   1.00
H827   H     0.78220   0.17997   0.61041   0.00000  Uiso   1.00
H828   H     0.88905   0.14999   0.89310   0.00000  Uiso   1.00
N829   N     0.78403   0.16668   0.74999   0.00000  Uiso   1.00
N830   N     0.88264   0.16666   0.75001   0.00000  Uiso   1.00
O831   O     0.70625   0.10655   0.75000   0.00000  Uiso   1.00
O832   O     0.96042   0.22678   0.75000   0.00000  Uiso   1.00
O833   O     0.96039   0.10654   0.75001   0.00000  Uiso   1.00
O834   O     0.70628   0.22679   0.75000   0.00000  Uiso   1.00
O835   O     0.68519   0.16668   0.81492   0.00000  Uiso   1.00
O836   O     0.98148   0.16666   0.68509   0.00000  Uiso   1.00
O837   O     0.93933   0.16667   0.81492   0.00000  Uiso   1.00
O838   O     0.72733   0.16667   0.68508   0.00000  Uiso   1.00
O839   O     0.93220   0.23794   0.54221   0.00000  Uiso   1.00
H840   H     0.91572   0.24150   0.57486   0.00000  Uiso   1.00
O841   O     0.72398   0.14923   0.94641   0.00000  Uiso   1.00
H842   H     0.74156   0.14389   0.91434   0.00000  Uiso   1.00
O843   O     0.95995   0.15013   0.60650   0.00000  Uiso   1.00
H844   H     0.94645   0.17520   0.62377   0.00000  Uiso   1.00
O845   O     0.70036   0.21531   0.88570   0.00000  Uiso   1.00
H846   H     0.70022   0.22503   0.85503   0.00000  Uiso   1.00
H847   H     0.99321   0.22732   0.96997   0.00000  Uiso   1.00
H848   H     0.99957   0.14673   0.52124   0.00000  Uiso   1.00
O849   O     0.83252   0.23647   0.58133   0.00000  Uiso   1.00
H850   H     0.80013   0.24706   0.58087   0.00000  Uiso   1.00
O851   O     0.81388   0.18213   0.90119   0.00000  Uiso   1.00
H852   H     0.83602   0.20633   0.89368   0.00000  Uiso   1.00
O853   O     0.93006   0.04504   0.81343   0.00000  Uiso   1.00
H854   H     0.90625   0.02668   0.83407   0.00000  Uiso   1.00
O855   O     0.73654   0.28822   0.68651   0.00000  Uiso   1.00
H856   H     0.76020   0.30656   0.66569   0.00000  Uiso   1.00
O857   O     0.93071   0.29210   0.81872   0.00000  Uiso   1.00
H858   H     0.94305   0.26465   0.82435   0.00000  Uiso   1.00
O859   O     0.73618   0.04117   0.68146   0.00000  Uiso   1.00
H860   H     0.72396   0.06868   0.67586   0.00000  Uiso   1.00
H861   H     0.86095   0.12362   0.80423   0.00000  Uiso   1.00
H862   H     0.80568   0.20986   0.69590   0.00000  Uiso   1.00
H863   H     0.77399   0.12380   0.80432   0.00000  Uiso   1.00
H864   H     0.89258   0.20985   0.69600   0.00000  Uiso   1.00
C865   C     0.33330   0.42080   0.74956   0.00000  Uiso   1.00
C866   C     0.00004   0.57919   0.75045   0.00000  Uiso   1.00
C867   C     0.18433   0.54781   0.54185   0.00000  Uiso   1.00
C868   C     0.13714   0.50844   0.94737   0.00000  Uiso   1.00
C869   C     0.23440   0.55226   0.52056   0.00000  Uiso   1.00
C870   C     0.08945   0.49646   0.96999   0.00000  Uiso   1.00
C871   C     0.29718   0.35528   0.78210   0.00000  Uiso   1.00
C872   C     0.03617   0.64466   0.71790   0.00000  Uiso   1.00
C873   C     0.29788   0.64538   0.78404   0.00000  Uiso   1.00
C874   C     0.03555   0.35458   0.71603   0.00000  Uiso   1.00
C875   C     0.00036   0.62382   0.75126   0.00000  Uiso   1.00
C876   C     0.33300   0.37614   0.74877   0.00000  Uiso   1.00
C877   C     0.18266   0.47615   0.78013   0.00000  Uiso   1.00
C878   C     0.15065   0.52393   0.71994   0.00000  Uiso   1.00
C879   C     0.13306   0.47621   0.78017   0.00000  Uiso   1.00
C880   C     0.20024   0.52392   0.71996   0.00000  Uiso   1.00
C881   C     0.30617   0.50264   0.83629   0.00000  Uiso   1.00
C882   C     0.02714   0.49988   0.66339   0.00000  Uiso   1.00
C883   C     0.29122   0.51249   0.88522   0.00000  Uiso   1.00
C884   C     0.04141   0.50049   0.61309   0.00000  Uiso   1.00
C885   C     0.30253   0.54509   0.95315   0.00000  Uiso   1.00
C886   C     0.02522   0.48893   0.54006   0.00000  Uiso   1.00
C887   C     0.32085   0.53500   0.90737   0.00000  Uiso   1.00
C888   C     0.00834   0.49159   0.58712   0.00000  Uiso   1.00
C889   C     0.24335   0.50327   0.90910   0.00000  Uiso   1.00
C890   C     0.08988   0.50949   0.59040   0.00000  Uiso   1.00
C891   C     0.22216   0.52024   0.95212   0.00000  Uiso   1.00
C892   C     0.10567   0.51256   0.54272   0.00000  Uiso   1.00
C893   C     0.25319   0.53867   0.97573   0.00000  Uiso   1.00
C894   C     0.07356   0.49903   0.51744   0.00000  Uiso   1.00
C895   C     0.17129   0.51769   0.97264   0.00000  Uiso   1.00
C896   C     0.15365   0.52578   0.51977   0.00000  Uiso   1.00
Cu897  Cu    0.04689   0.50001   0.75000   0.00000  Uiso   1.00
Cu898  Cu    0.28645   0.49999   0.75000   0.00000  Uiso   1.00
H899   H     0.11553   0.51331   0.61041   0.00000  Uiso   1.00
H900   H     0.22239   0.48332   0.89310   0.00000  Uiso   1.00
N901   N     0.11736   0.50001   0.74999   0.00000  Uiso   1.00
N902   N     0.21597   0.49999   0.75001   0.00000  Uiso   1.00
O903   O     0.03958   0.43989   0.75000   0.00000  Uiso   1.00
O904   O     0.29375   0.56011   0.75000   0.00000  Uiso   1.00
O905   O     0.29372   0.43988   0.75001   0.00000  Uiso   1.00
O906   O     0.03961   0.56012   0.75000   0.00000  Uiso   1.00
O907   O     0.01852   0.50001   0.81492   0.00000  Uiso   1.00
O908   O     0.31481   0.49999   0.68509   0.00000  Uiso   1.00
O909   O     0.27267   0.50000   0.81492   0.00000  Uiso   1.00
O910   O     0.06067   0.50000   0.68508   0.00000  Uiso   1.00
O911   O     0.26553   0.57127   0.54221   0.00000  Uiso   1.00
H912   H     0.24905   0.57483   0.57486   0.00000  Uiso   1.00
O913   O     0.05731   0.48256   0.94641   0.00000  Uiso   1.00
H914   H     0.07489   0.47722   0.91434   0.00000  Uiso   1.00
O915   O     0.29328   0.48347   0.60650   0.00000  Uiso   1.00
H916   H     0.27978   0.50854   0.62377   0.00000  Uiso   1.00
O917   O     0.03369   0.54864   0.88570   0.00000  Uiso   1.00
H918   H     0.03355   0.55836   0.85503   0.00000  Uiso   1.00
H919   H     0.32654   0.56065   0.96997   0.00000  Uiso   1.00
H920   H     0.33290   0.48006   0.52124   0.00000  Uiso   1.00
O921   O     0.16585   0.56981   0.58133   0.00000  Uiso   1.00
H922   H     0.13347   0.58039   0.58087   0.00000  Uiso   1.00
O923   O     0.14721   0.51547   0.90119   0.00000  Uiso   1.00
H924   H     0.16935   0.53967   0.89368   0.00000  Uiso   1.00
O925   O     0.26339   0.37837   0.81343   0.00000  Uiso   1.00
H926   H     0.23958   0.36001   0.83407   0.00000  Uiso   1.00
O927   O     0.06987   0.62156   0.68651   0.00000  Uiso   1.00
H928   H     0.09354   0.63990   0.66569   0.00000  Uiso   1.00
O929   O     0.26405   0.62543   0.81872   0.00000  Uiso   1.00
H930   H     0.27639   0.59798   0.82435   0.00000  Uiso   1.00
O931   O     0.06951   0.37451   0.68146   0.00000  Uiso   1.00
H932   H     0.05729   0.40201   0.67586   0.00000  Uiso   1.00
H933   H     0.19428   0.45695   0.80423   0.00000  Uiso   1.00
H934   H     0.13901   0.54319   0.69590   0.00000  Uiso   1.00
H935   H     0.10732   0.45713   0.80432   0.00000  Uiso   1.00
H936   H     0.22591   0.54319   0.69600   0.00000  Uiso   1.00
C937   C     0.66663   0.42080   0.74956   0.00000  Uiso   1.00
C938   C     0.33337   0.57919   0.75045   0.00000  Uiso   1.00
C939   C     0.51767   0.54781   0.54185   0.00000  Uiso   1.00
C940   C     0.47047   0.50844   0.94737   0.00000  Uiso   1.00
C941   C     0.56773   0.55226   0.52056   0.00000  Uiso   1.00
C942   C     0.42278   0.49646   0.96999   0.00000  Uiso   1.00
C943   C     0.63051   0.35528   0.78210   0.00000  Uiso   1.00
C944   C     0.36950   0.64466   0.71790   0.00000  Uiso   1.00
C945   C     0.63121   0.64538   0.78404   0.00000  Uiso   1.00
C946   C     0.36888   0.35458   0.71603   0.00000  Uiso   1.00
C947   C     0.33370   0.62382   0.75126   0.00000  Uiso   1.00
C948   C     0.66634   0.37614   0.74877   0.00000  Uiso   1.00
C949   C     0.51600   0.47615   0.78013   0.00000  Uiso   1.00
C950   C     0.48398   0.52393   0.71994   0.00000  Uiso   1.00
C951   C     0.46639   0.47621   0.78017   0.00000  Uiso   1.00
C952   C     0.53357   0.52392   0.71996   0.00000  Uiso   1.00
C953   C     0.63951   0.50264   0.83629   0.00000  Uiso   1.00
C954   C     0.36048   0.49988   0.66339   0.00000  Uiso   1.00
C955   C     0.62455   0.51249   0.88522   0.00000  Uiso   1.00
C956   C     0.37474   0.50049   0.61309   0.00000  Uiso   1.00
C957   C     0.63587   0.54509   0.95315   0.00000  Uiso   1.00
C958   C     0.35855   0.48893   0.54006   0.00000  Uiso   1.00
C959   C     0.65418   0.53500   0.90737   0.00000  Uiso   1.00
C960   C     0.34168   0.49159   0.58712   0.00000  Uiso   1.00
C961   C     0.57668   0.50327   0.90910   0.00000  Uiso   1.00
C962   C     0.42322   0.50949   0.59040   0.00000  Uiso   1.00
C963   C     0.55550   0.52024   0.95212   0.00000  Uiso   1.00
C964   C     0.43900   0.51256   0.54272   0.00000  Uiso   1.00
C965   C     0.58652   0.53867   0.97573   0.00000  Uiso   1.00
C966   C     0.40689   0.49903   0.51744   0.00000  Uiso   1.00
C967   C     0.50463   0.51769   0.97264   0.00000  Uiso   1.00
C968   C     0.48699   0.52578   0.51977   0.00000  Uiso   1.00
Cu969  Cu    0.38022   0.50001   0.75000   0.00000  Uiso   1.00
Cu970  Cu    0.61978   0.49999   0.75000   0.00000  Uiso   1.00
H971   H     0.44887   0.51331   0.61041   0.00000  Uiso   1.00
H972   H     0.55572   0.48332   0.89310   0.00000  Uiso   1.00
N973   N     0.45069   0.50001   0.74999   0.00000  Uiso   1.00
N974   N     0.54931   0.49999   0.75001   0.00000  Uiso   1.00
O975   O     0.37291   0.43989   0.75000   0.00000  Uiso   1.00
O976   O     0.62709   0.56011   0.75000   0.00000  Uiso   1.00
O977   O     0.62706   0.43988   0.75001   0.00000  Uiso   1.00
O978   O     0.37294   0.56012   0.75000   0.00000  Uiso   1.00
O979   O     0.35186   0.50001   0.81492   0.00000  Uiso   1.00
O980   O     0.64814   0.49999   0.68509   0.00000  Uiso   1.00
O981   O     0.60600   0.50000   0.81492   0.00000  Uiso   1.00
O982   O     0.39400   0.50000   0.68508   0.00000  Uiso   1.00
O983   O     0.59886   0.57127   0.54221   0.00000  Uiso   1.00
H984   H     0.58238   0.57483   0.57486   0.00000  Uiso   1.00
O985   O     0.39064   0.48256   0.94641   0.00000  Uiso   1.00
H986   H     0.40822   0.47722   0.91434   0.00000  Uiso   1.00
O987   O     0.62662   0.48347   0.60650   0.00000  Uiso   1.00
H988   H     0.61311   0.50854   0.62377   0.00000  Uiso   1.00
O989   O     0.36702   0.54864   0.88570   0.00000  Uiso   1.00
H990   H     0.36689   0.55836   0.85503   0.00000  Uiso   1.00
H991   H     0.65987   0.56065   0.96997   0.00000  Uiso   1.00
H992   H     0.66624   0.48006   0.52124   0.00000  Uiso   1.00
O993   O     0.49918   0.56981   0.58133   0.00000  Uiso   1.00
H994   H     0.46680   0.58039   0.58087   0.00000  Uiso   1.00
O995   O     0.48054   0.51547   0.90119   0.00000  Uiso   1.00
H996   H     0.50269   0.53967   0.89368   0.00000  Uiso   1.00
O997   O     0.59672   0.37837   0.81343   0.00000  Uiso   1.00
H998   H     0.57292   0.36001   0.83407   0.00000  Uiso   1.00
O999   O     0.40321   0.62156   0.68651   0.00000  Uiso   1.00
H1000  H     0.42687   0.63990   0.66569   0.00000  Uiso   1.00
O1001  O     0.59738   0.62543   0.81872   0.00000  Uiso   1.00
H1002  H     0.60972   0.59798   0.82435   0.00000  Uiso   1.00
O1003  O     0.40285   0.37451   0.68146   0.00000  Uiso   1.00
H1004  H     0.39063   0.40201   0.67586   0.00000  Uiso   1.00
H1005  H     0.52762   0.45695   0.80423   0.00000  Uiso   1.00
H1006  H     0.47234   0.54319   0.69590   0.00000  Uiso   1.00
H1007  H     0.44065   0.45713   0.80432   0.00000  Uiso   1.00
H1008  H     0.55924   0.54319   0.69600   0.00000  Uiso   1.00
C1009  C     0.99996   0.42080   0.74956   0.00000  Uiso   1.00
C1010  C     0.66671   0.57919   0.75045   0.00000  Uiso   1.00
C1011  C     0.85100   0.54781   0.54185   0.00000  Uiso   1.00
C1012  C     0.80381   0.50844   0.94737   0.00000  Uiso   1.00
C1013  C     0.90107   0.55226   0.52056   0.00000  Uiso   1.00
C1014  C     0.75611   0.49646   0.96999   0.00000  Uiso   1.00
C1015  C     0.96384   0.35528   0.78210   0.00000  Uiso   1.00
C1016  C     0.70284   0.64466   0.71790   0.00000  Uiso   1.00
C1017  C     0.96454   0.64538   0.78404   0.00000  Uiso   1.00
C1018  C     0.70221   0.35458   0.71603   0.00000  Uiso   1.00
C1019  C     0.66703   0.62382   0.75126   0.00000  Uiso   1.00
C1020  C     0.99967   0.37614   0.74877   0.00000  Uiso   1.00
C1021  C     0.84933   0.47615   0.78013   0.00000  Uiso   1.00
C1022  C     0.81731   0.52393   0.71994   0.00000  Uiso   1.00
C1023  C     0.79972   0.47621   0.78017   0.00000  Uiso   1.00
C1024  C     0.86690   0.52392   0.71996   0.00000  Uiso   1.00
C1025  C     0.97284   0.50264   0.83629   0.00000  Uiso   1.00
C1026  C     0.69381   0.49988   0.66339   0.00000  Uiso   1.00
C1027  C     0.95789   0.51249   0.88522   0.00000  Uiso   1.00
C1028  C     0.70807   0.50049   0.61309   0.00000  Uiso   1.00
C1029  C     0.96920   0.54509   0.95315   0.00000  Uiso   1.00
C1030  C     0.69189   0.48893   0.54006   0.00000  Uiso   1.00
C1031  C     0.98752   0.53500   0.90737   0.00000  Uiso   1.00
C1032  C     0.67501   0.49159   0.58712   0.00000  Uiso   1.00
C1033  C     0.91001   0.50327   0.90910   0.00000  Uiso   1.00
C1034  C     0.75655   0.50949   0.59040   0.00000  Uiso   1.00
C1035  C     0.88883   0.52024   0.95212   0.00000  Uiso   1.00
C1036  C     0.77234   0.51256   0.54272   0.00000  Uiso   1.00
C1037  C     0.91985   0.53867   0.97573   0.00000  Uiso   1.00
C1038  C     0.74022   0.49903   0.51744   0.00000  Uiso   1.00
C1039  C     0.83796   0.51769   0.97264   0.00000  Uiso   1.00
C1040  C     0.82032   0.52578   0.51977   0.00000  Uiso   1.00
Cu1041 Cu    0.71355   0.50001   0.75000   0.00000  Uiso   1.00
Cu1042 Cu    0.95311   0.49999   0.75000   0.00000  Uiso   1.00
H1043  H     0.78220   0.51331   0.61041   0.00000  Uiso   1.00
H1044  H     0.88905   0.48332   0.89310   0.00000  Uiso   1.00
N1045  N     0.78403   0.50001   0.74999   0.00000  Uiso   1.00
N1046  N     0.88264   0.49999   0.75001   0.00000  Uiso   1.00
O1047  O     0.70625   0.43989   0.75000   0.00000  Uiso   1.00
O1048  O     0.96042   0.56011   0.75000   0.00000  Uiso   1.00
O1049  O     0.96039   0.43988   0.75001   0.00000  Uiso   1.00
O1050  O     0.70628   0.56012   0.75000   0.00000  Uiso   1.00
O1051  O     0.68519   0.50001   0.81492   0.00000  Uiso   1.00
O1052  O     0.98148   0.49999   0.68509   0.00000  Uiso   1.00
O1053  O     0.93933   0.50000   0.81492   0.00000  Uiso   1.00
O1054  O     0.72733   0.50000   0.68508   0.00000  Uiso   1.00
O1055  O     0.93220   0.57127   0.54221   0.00000  Uiso   1.00
H1056  H     0.91572   0.57483   0.57486   0.00000  Uiso   1.00
O1057  O     0.72398   0.48256   0.94641   0.00000  Uiso   1.00
H1058  H     0.74156   0.47722   0.91434   0.00000  Uiso   1.00
O1059  O     0.95995   0.48347   0.60650   0.00000  Uiso   1.00
H1060  H     0.94645   0.50854   0.62377   0.00000  Uiso   1.00
O1061  O     0.70036   0.54864   0.88570   0.00000  Uiso   1.00
H1062  H     0.70022   0.55836   0.85503   0.00000  Uiso   1.00
H1063  H     0.99321   0.56065   0.96997   0.00000  Uiso   1.00
H1064  H     0.99957   0.48006   0.52124   0.00000  Uiso   1.00
O1065  O     0.83252   0.56981   0.58133   0.00000  Uiso   1.00
H1066  H     0.80013   0.58039   0.58087   0.00000  Uiso   1.00
O1067  O     0.81388   0.51547   0.90119   0.00000  Uiso   1.00
H1068  H     0.83602   0.53967   0.89368   0.00000  Uiso   1.00
O1069  O     0.93006   0.37837   0.81343   0.00000  Uiso   1.00
H1070  H     0.90625   0.36001   0.83407   0.00000  Uiso   1.00
O1071  O     0.73654   0.62156   0.68651   0.00000  Uiso   1.00
H1072  H     0.76020   0.63990   0.66569   0.00000  Uiso   1.00
O1073  O     0.93071   0.62543   0.81872   0.00000  Uiso   1.00
H1074  H     0.94305   0.59798   0.82435   0.00000  Uiso   1.00
O1075  O     0.73618   0.37451   0.68146   0.00000  Uiso   1.00
H1076  H     0.72396   0.40201   0.67586   0.00000  Uiso   1.00
H1077  H     0.86095   0.45695   0.80423   0.00000  Uiso   1.00
H1078  H     0.80568   0.54319   0.69590   0.00000  Uiso   1.00
H1079  H     0.77399   0.45713   0.80432   0.00000  Uiso   1.00
H1080  H     0.89258   0.54319   0.69600   0.00000  Uiso   1.00
C1081  C     0.33330   0.75414   0.74956   0.00000  Uiso   1.00
C1082  C     0.00004   0.91252   0.75045   0.00000  Uiso   1.00
C1083  C     0.18433   0.88115   0.54185   0.00000  Uiso   1.00
C1084  C     0.13714   0.84178   0.94737   0.00000  Uiso   1.00
C1085  C     0.23440   0.88559   0.52056   0.00000  Uiso   1.00
C1086  C     0.08945   0.82980   0.96999   0.00000  Uiso   1.00
C1087  C     0.29718   0.68862   0.78210   0.00000  Uiso   1.00
C1088  C     0.03617   0.97800   0.71790   0.00000  Uiso   1.00
C1089  C     0.29788   0.97871   0.78404   0.00000  Uiso   1.00
C1090  C     0.03555   0.68791   0.71603   0.00000  Uiso   1.00
C1091  C     0.00036   0.95716   0.75126   0.00000  Uiso   1.00
C1092  C     0.33300   0.70948   0.74877   0.00000  Uiso   1.00
C1093  C     0.18266   0.80948   0.78013   0.00000  Uiso   1.00
C1094  C     0.15065   0.85726   0.71994   0.00000  Uiso   1.00
C1095  C     0.13306   0.80954   0.78017   0.00000  Uiso   1.00
C1096  C     0.20024   0.85726   0.71996   0.00000  Uiso   1.00
C1097  C     0.30617   0.83597   0.83629   0.00000  Uiso   1.00
C1098  C     0.02714   0.83322   0.66339   0.00000  Uiso   1.00
C1099  C     0.29122   0.84583   0.88522   0.00000  Uiso   1.00
C1100  C     0.04141   0.83382   0.61309   0.00000  Uiso   1.00
C1101  C     0.30253   0.87842   0.95315   0.00000  Uiso   1.00
C1102  C     0.02522   0.82227   0.54006   0.00000  Uiso   1.00
C1103  C     0.32085   0.86833   0.90737   0.00000  Uiso   1.00
C1104  C     0.00834   0.82492   0.58712   0.00000  Uiso   1.00
C1105  C     0.24335   0.83660   0.90910   0.00000  Uiso   1.00
C1106  C     0.08988   0.84282   0.59040   0.00000  Uiso   1.00
C1107  C     0.22216   0.85358   0.95212   0.00000  Uiso   1.00
C1108  C     0.10567   0.84590   0.54272   0.00000  Uiso   1.00
C1109  C     0.25319   0.87200   0.97573   0.00000  Uiso   1.00
C1110  C     0.07356   0.83236   0.51744   0.00000  Uiso   1.00
C1111  C     0.17129   0.85102   0.97264   0.00000  Uiso   1.00
C1112  C     0.15365   0.85911   0.51977   0.00000  Uiso   1.00
Cu1113 Cu    0.04689   0.83334   0.75000   0.00000  Uiso   1.00
Cu1114 Cu    0.28645   0.83333   0.75000   0.00000  Uiso   1.00
H1115  H     0.11553   0.84664   0.61041   0.00000  Uiso   1.00
H1116  H     0.22239   0.81665   0.89310   0.00000  Uiso   1.00
N1117  N     0.11736   0.83334   0.74999   0.00000  Uiso   1.00
N1118  N     0.21597   0.83332   0.75001   0.00000  Uiso   1.00
O1119  O     0.03958   0.77322   0.75000   0.00000  Uiso   1.00
O1120  O     0.29375   0.89345   0.75000   0.00000  Uiso   1.00
O1121  O     0.29372   0.77321   0.75001   0.00000  Uiso   1.00
O1122  O     0.03961   0.89346   0.75000   0.00000  Uiso   1.00
O1123  O     0.01852   0.83334   0.81492   0.00000  Uiso   1.00
O1124  O     0.31481   0.83332   0.68509   0.00000  Uiso   1.00
O1125  O     0.27267   0.83333   0.81492   0.00000  Uiso   1.00
O1126  O     0.06067   0.83333   0.68508   0.00000  Uiso   1.00
O1127  O     0.26553   0.90461   0.54221   0.00000  Uiso   1.00
H1128  H     0.24905   0.90817   0.57486   0.00000  Uiso   1.00
O1129  O     0.05731   0.81589   0.94641   0.00000  Uiso   1.00
H1130  H     0.07489   0.81056   0.91434   0.00000  Uiso   1.00
O1131  O     0.29328   0.81680   0.60650   0.00000  Uiso   1.00
H1132  H     0.27978   0.84187   0.62377   0.00000  Uiso   1.00
O1133  O     0.03369   0.88197   0.88570   0.00000  Uiso   1.00
H1134  H     0.03355   0.89169   0.85503   0.00000  Uiso   1.00
H1135  H     0.32654   0.89398   0.96997   0.00000  Uiso   1.00
H1136  H     0.33290   0.81340   0.52124   0.00000  Uiso   1.00
O1137  O     0.16585   0.90314   0.58133   0.00000  Uiso   1.00
H1138  H     0.13347   0.91373   0.58087   0.00000  Uiso   1.00
O1139  O     0.14721   0.84880   0.90119   0.00000  Uiso   1.00
H1140  H     0.16935   0.87300   0.89368   0.00000  Uiso   1.00
O1141  O     0.26339   0.71171   0.81343   0.00000  Uiso   1.00
H1142  H     0.23958   0.69334   0.83407   0.00000  Uiso   1.00
O1143  O     0.06987   0.95489   0.68651   0.00000  Uiso   1.00
H1144  H     0.09354   0.97323   0.66569   0.00000  Uiso   1.00
O1145  O     0.26405   0.95877   0.81872   0.00000  Uiso   1.00
H1146  H     0.27639   0.93131   0.82435   0.00000  Uiso   1.00
O1147  O     0.06951   0.70784   0.68146   0.00000  Uiso   1.00
H1148  H     0.05729   0.73535   0.67586   0.00000  Uiso   1.00
H1149  H     0.19428   0.79029   0.80423   0.00000  Uiso   1.00
H1150  H     0.13901   0.87652   0.69590   0.00000  Uiso   1.00
H1151  H     0.10732   0.79047   0.80432   0.00000  Uiso   1.00
H1152  H     0.22591   0.87652   0.69600   0.00000  Uiso   1.00
C1153  C     0.66663   0.75414   0.74956   0.00000  Uiso   1.00
C1154  C     0.33337   0.91252   0.75045   0.00000  Uiso   1.00
C1155  C     0.51767   0.88115   0.54185   0.00000  Uiso   1.00
C1156  C     0.47047   0.84178   0.94737   0.00000  Uiso   1.00
C1157  C     0.56773   0.88559   0.52056   0.00000  Uiso   1.00
C1158  C     0.42278   0.82980   0.96999   0.00000  Uiso   1.00
C1159  C     0.63051   0.68862   0.78210   0.00000  Uiso   1.00
C1160  C     0.36950   0.97800   0.71790   0.00000  Uiso   1.00
C1161  C     0.63121   0.97871   0.78404   0.00000  Uiso   1.00
C1162  C     0.36888   0.68791   0.71603   0.00000  Uiso   1.00
C1163  C     0.33370   0.95716   0.75126   0.00000  Uiso   1.00
C1164  C     0.66634   0.70948   0.74877   0.00000  Uiso   1.00
C1165  C     0.51600   0.80948   0.78013   0.00000  Uiso   1.00
C1166  C     0.48398   0.85726   0.71994   0.00000  Uiso   1.00
C1167  C     0.46639   0.80954   0.78017   0.00000  Uiso   1.00
C1168  C     0.53357   0.85726   0.71996   0.00000  Uiso   1.00
C1169  C     0.63951   0.83597   0.83629   0.00000  Uiso   1.00
C1170  C     0.36048   0.83322   0.66339   0.00000  Uiso   1.00
C1171  C     0.62455   0.84583   0.88522   0.00000  Uiso   1.00
C1172  C     0.37474   0.83382   0.61309   0.00000  Uiso   1.00
C1173  C     0.63587   0.87842   0.95315   0.00000  Uiso   1.00
C1174  C     0.35855   0.82227   0.54006   0.00000  Uiso   1.00
C1175  C     0.65418   0.86833   0.90737   0.00000  Uiso   1.00
C1176  C     0.34168   0.82492   0.58712   0.00000  Uiso   1.00
C1177  C     0.57668   0.83660   0.90910   0.00000  Uiso   1.00
C1178  C     0.42322   0.84282   0.59040   0.00000  Uiso   1.00
C1179  C     0.55550   0.85358   0.95212   0.00000  Uiso   1.00
C1180  C     0.43900   0.84590   0.54272   0.00000  Uiso   1.00
C1181  C     0.58652   0.87200   0.97573   0.00000  Uiso   1.00
C1182  C     0.40689   0.83236   0.51744   0.00000  Uiso   1.00
C1183  C     0.50463   0.85102   0.97264   0.00000  Uiso   1.00
C1184  C     0.48699   0.85911   0.51977   0.00000  Uiso   1.00
Cu1185 Cu    0.38022   0.83334   0.75000   0.00000  Uiso   1.00
Cu1186 Cu    0.61978   0.83333   0.75000   0.00000  Uiso   1.00
H1187  H     0.44887   0.84664   0.61041   0.00000  Uiso   1.00
H1188  H     0.55572   0.81665   0.89310   0.00000  Uiso   1.00
N1189  N     0.45069   0.83334   0.74999   0.00000  Uiso   1.00
N1190  N     0.54931   0.83332   0.75001   0.00000  Uiso   1.00
O1191  O     0.37291   0.77322   0.75000   0.00000  Uiso   1.00
O1192  O     0.62709   0.89345   0.75000   0.00000  Uiso   1.00
O1193  O     0.62706   0.77321   0.75001   0.00000  Uiso   1.00
O1194  O     0.37294   0.89346   0.75000   0.00000  Uiso   1.00
O1195  O     0.35186   0.83334   0.81492   0.00000  Uiso   1.00
O1196  O     0.64814   0.83332   0.68509   0.00000  Uiso   1.00
O1197  O     0.60600   0.83333   0.81492   0.00000  Uiso   1.00
O1198  O     0.39400   0.83333   0.68508   0.00000  Uiso   1.00
O1199  O     0.59886   0.90461   0.54221   0.00000  Uiso   1.00
H1200  H     0.58238   0.90817   0.57486   0.00000  Uiso   1.00
O1201  O     0.39064   0.81589   0.94641   0.00000  Uiso   1.00
H1202  H     0.40822   0.81056   0.91434   0.00000  Uiso   1.00
O1203  O     0.62662   0.81680   0.60650   0.00000  Uiso   1.00
H1204  H     0.61311   0.84187   0.62377   0.00000  Uiso   1.00
O1205  O     0.36702   0.88197   0.88570   0.00000  Uiso   1.00
H1206  H     0.36689   0.89169   0.85503   0.00000  Uiso   1.00
H1207  H     0.65987   0.89398   0.96997   0.00000  Uiso   1.00
H1208  H     0.66624   0.81340   0.52124   0.00000  Uiso   1.00
O1209  O     0.49918   0.90314   0.58133   0.00000  Uiso   1.00
H1210  H     0.46680   0.91373   0.58087   0.00000  Uiso   1.00
O1211  O     0.48054   0.84880   0.90119   0.00000  Uiso   1.00
H1212  H     0.50269   0.87300   0.89368   0.00000  Uiso   1.00
O1213  O     0.59672   0.71171   0.81343   0.00000  Uiso   1.00
H1214  H     0.57292   0.69334   0.83407   0.00000  Uiso   1.00
O1215  O     0.40321   0.95489   0.68651   0.00000  Uiso   1.00
H1216  H     0.42687   0.97323   0.66569   0.00000  Uiso   1.00
O1217  O     0.59738   0.95877   0.81872   0.00000  Uiso   1.00
H1218  H     0.60972   0.93131   0.82435   0.00000  Uiso   1.00
O1219  O     0.40285   0.70784   0.68146   0.00000  Uiso   1.00
H1220  H     0.39063   0.73535   0.67586   0.00000  Uiso   1.00
H1221  H     0.52762   0.79029   0.80423   0.00000  Uiso   1.00
H1222  H     0.47234   0.87652   0.69590   0.00000  Uiso   1.00
H1223  H     0.44065   0.79047   0.80432   0.00000  Uiso   1.00
H1224  H     0.55924   0.87652   0.69600   0.00000  Uiso   1.00
C1225  C     0.99996   0.75414   0.74956   0.00000  Uiso   1.00
C1226  C     0.66671   0.91252   0.75045   0.00000  Uiso   1.00
C1227  C     0.85100   0.88115   0.54185   0.00000  Uiso   1.00
C1228  C     0.80381   0.84178   0.94737   0.00000  Uiso   1.00
C1229  C     0.90107   0.88559   0.52056   0.00000  Uiso   1.00
C1230  C     0.75611   0.82980   0.96999   0.00000  Uiso   1.00
C1231  C     0.96384   0.68862   0.78210   0.00000  Uiso   1.00
C1232  C     0.70284   0.97800   0.71790   0.00000  Uiso   1.00
C1233  C     0.96454   0.97871   0.78404   0.00000  Uiso   1.00
C1234  C     0.70221   0.68791   0.71603   0.00000  Uiso   1.00
C1235  C     0.66703   0.95716   0.75126   0.00000  Uiso   1.00
C1236  C     0.99967   0.70948   0.74877   0.00000  Uiso   1.00
C1237  C     0.84933   0.80948   0.78013   0.00000  Uiso   1.00
C1238  C     0.81731   0.85726   0.71994   0.00000  Uiso   1.00
C1239  C     0.79972   0.80954   0.78017   0.00000  Uiso   1.00
C1240  C     0.86690   0.85726   0.71996   0.00000  Uiso   1.00
C1241  C     0.97284   0.83597   0.83629   0.00000  Uiso   1.00
C1242  C     0.69381   0.83322   0.66339   0.00000  Uiso   1.00
C1243  C     0.95789   0.84583   0.88522   0.00000  Uiso   1.00
C1244  C     0.70807   0.83382   0.61309   0.00000  Uiso   1.00
C1245  C     0.96920   0.87842   0.95315   0.00000  Uiso   1.00
C1246  C     0.69189   0.82227   0.54006   0.00000  Uiso   1.00
C1247  C     0.98752   0.86833   0.90737   0.00000  Uiso   1.00
C1248  C     0.67501   0.82492   0.58712   0.00000  Uiso   1.00
C1249  C     0.91001   0.83660   0.90910   0.00000  Uiso   1.00
C1250  C     0.75655   0.84282   0.59040   0.00000  Uiso   1.00
C1251  C     0.88883   0.85358   0.95212   0.00000  Uiso   1.00
C1252  C     0.77234   0.84590   0.54272   0.00000  Uiso   1.00
C1253  C     0.91985   0.87200   0.97573   0.00000  Uiso   1.00
C1254  C     0.74022   0.83236   0.51744   0.00000  Uiso   1.00
C1255  C     0.83796   0.85102   0.97264   0.00000  Uiso   1.00
C1256  C     0.82032   0.85911   0.51977   0.00000  Uiso   1.00
Cu1257 Cu    0.71355   0.83334   0.75000   0.00000  Uiso   1.00
Cu1258 Cu    0.95311   0.83333   0.75000   0.00000  Uiso   1.00
H1259  H     0.78220   0.84664   0.61041   0.00000  Uiso   1.00
H1260  H     0.88905   0.81665   0.89310   0.00000  Uiso   1.00
N1261  N     0.78403   0.83334   0.74999   0.00000  Uiso   1.00
N1262  N     0.88264   0.83332   0.75001   0.00000  Uiso   1.00
O1263  O     0.70625   0.77322   0.75000   0.00000  Uiso   1.00
O1264  O     0.96042   0.89345   0.75000   0.00000  Uiso   1.00
O1265  O     0.96039   0.77321   0.75001   0.00000  Uiso   1.00
O1266  O     0.70628   0.89346   0.75000   0.00000  Uiso   1.00
O1267  O     0.68519   0.83334   0.81492   0.00000  Uiso   1.00
O1268  O     0.98148   0.83332   0.68509   0.00000  Uiso   1.00
O1269  O     0.93933   0.83333   0.81492   0.00000  Uiso   1.00
O1270  O     0.72733   0.83333   0.68508   0.00000  Uiso   1.00
O1271  O     0.93220   0.90461   0.54221   0.00000  Uiso   1.00
H1272  H     0.91572   0.90817   0.57486   0.00000  Uiso   1.00
O1273  O     0.72398   0.81589   0.94641   0.00000  Uiso   1.00
H1274  H     0.74156   0.81056   0.91434   0.00000  Uiso   1.00
O1275  O     0.95995   0.81680   0.60650   0.00000  Uiso   1.00
H1276  H     0.94645   0.84187   0.62377   0.00000  Uiso   1.00
O1277  O     0.70036   0.88197   0.88570   0.00000  Uiso   1.00
H1278  H     0.70022   0.89169   0.85503   0.00000  Uiso   1.00
H1279  H     0.99321   0.89398   0.96997   0.00000  Uiso   1.00
H1280  H     0.99957   0.81340   0.52124   0.00000  Uiso   1.00
O1281  O     0.83252   0.90314   0.58133   0.00000  Uiso   1.00
H1282  H     0.80013   0.91373   0.58087   0.00000  Uiso   1.00
O1283  O     0.81388   0.84880   0.90119   0.00000  Uiso   1.00
H1284  H     0.83602   0.87300   0.89368   0.00000  Uiso   1.00
O1285  O     0.93006   0.71171   0.81343   0.00000  Uiso   1.00
H1286  H     0.90625   0.69334   0.83407   0.00000  Uiso   1.00
O1287  O     0.73654   0.95489   0.68651   0.00000  Uiso   1.00
H1288  H     0.76020   0.97323   0.66569   0.00000  Uiso   1.00
O1289  O     0.93071   0.95877   0.81872   0.00000  Uiso   1.00
H1290  H     0.94305   0.93131   0.82435   0.00000  Uiso   1.00
O1291  O     0.73618   0.70784   0.68146   0.00000  Uiso   1.00
H1292  H     0.72396   0.73535   0.67586   0.00000  Uiso   1.00
H1293  H     0.86095   0.79029   0.80423   0.00000  Uiso   1.00
H1294  H     0.80568   0.87652   0.69590   0.00000  Uiso   1.00
H1295  H     0.77399   0.79047   0.80432   0.00000  Uiso   1.00
H1296  H     0.89258   0.87652   0.69600   0.00000  Uiso   1.00
loop_
_geom_bond_atom_site_label_1
_geom_bond_atom_site_label_2
_geom_bond_distance
_geom_bond_site_symmetry_2
_ccdc_geom_bond_type
C1     C12     1.446   .     S
C1     O41     1.288   .     A
C1     O111    1.290   .     S
C2     O42     1.287   .     A
C2     C11     1.445   .     S
C2     O184    1.290   1_455 S
C3     C5      1.410   .     A
C3     O57     1.381   .     S
C3     C32     1.430   .     A
C4     O59     1.381   .     S
C4     C31     1.428   .     A
C4     C6      1.405   .     A
C5     O47     1.385   .     S
C5     C677    1.403   1_554 S
C6     O49     1.384   .     S
C6     C678    1.402   .     S
C7     O61     1.386   .     S
C7     C12     1.405   .     A
C7     C441    1.401   1_545 S
C8     C11     1.405   .     A
C8     O63     1.386   .     S
C8     C226    1.401   .     S
C9     O65     1.385   .     S
C9     C223    1.401   .     S
C9     C83     1.413   .     S
C10    O67     1.384   .     S
C10    C440    1.401   1_545 S
C10    C156    1.414   1_455 S
C11    C153    1.413   1_455 S
C12    C82     1.414   .     S
C13    N38     1.368   .     A
C13    H69     1.082   .     S
C13    C15     1.417   .     A
C14    N37     1.368   .     A
C14    H70     1.082   .     S
C14    C16     1.417   .     A
C15    H71     1.082   .     S
C15    N37     1.367   .     A
C16    H72     1.082   .     S
C16    N38     1.367   .     A
C17    C19     1.477   .     S
C17    O45     1.298   .     A
C17    O115    1.297   .     S
C18    O46     1.302   .     A
C18    C20     1.482   .     S
C18    O188    1.295   1_455 S
C19    C23     1.417   .     A
C19    C25     1.397   .     A
C20    C24     1.416   .     A
C20    C26     1.402   .     A
C21    H55     1.084   .     S
C21    C29     1.408   .     A
C21    C23     1.396   .     A
C22    C24     1.392   .     A
C22    C30     1.405   .     A
C22    H200    1.084   1_455 S
C23    O125    1.378   .     S
C24    O195    1.374   1_455 S
C25    C27     1.406   .     A
C25    H36     1.081   .     S
C26    C28     1.409   .     A
C26    H35     1.080   .     S
C27    C29     1.414   .     A
C27    C31     1.422   .     A
C28    C30     1.417   .     A
C28    C32     1.425   .     A
C29    C653    1.403   .     S
C30    C654    1.402   1_554 S
C31    C680    1.418   .     S
C32    C679    1.418   1_554 S
Cu33   O46     1.917   .     S
Cu33   O42     1.958   .     S
Cu33   O39     1.956   .     S
Cu33   N37     2.013   .     S
Cu33   O43     1.932   .     S
Cu33   Cu178   2.679   1_455 S
Cu34   O41     1.958   .     S
Cu34   O45     1.917   .     S
Cu34   N38     2.013   .     S
Cu34   O40     1.956   .     S
Cu34   O44     1.932   .     S
Cu34   Cu105   2.679   .     S
O39    C145    1.290   1_455 S
O40    C74     1.290   .     S
O43    C161    1.297   1_455 S
O44    C90     1.295   .     S
O47    H48     0.990   .     S
O49    H50     0.990   .     S
O51    H52     0.991   .     S
O51    C96     1.374   .     S
O53    H54     0.989   .     S
O53    C167    1.378   1_455 S
H56    C94     1.084   .     S
O57    H58     0.992   .     S
O59    H60     0.992   .     S
O61    H62     0.989   .     S
O63    H64     0.989   .     S
O65    H66     0.989   .     S
O67    H68     0.989   .     S
C73    C84     1.446   .     S
C73    O113    1.288   .     A
C73    O183    1.290   .     S
C74    O114    1.287   .     A
C74    C83     1.445   .     S
C75    C77     1.410   .     A
C75    O129    1.381   .     S
C75    C104    1.430   .     A
C76    O131    1.381   .     S
C76    C103    1.428   .     A
C76    C78     1.405   .     A
C77    O119    1.385   .     S
C77    C749    1.403   1_554 S
C78    O121    1.384   .     S
C78    C750    1.402   .     S
C79    O133    1.386   .     S
C79    C84     1.405   .     A
C79    C513    1.401   1_545 S
C80    C83     1.405   .     A
C80    O135    1.386   .     S
C80    C298    1.401   .     S
C81    O137    1.385   .     S
C81    C295    1.401   .     S
C81    C155    1.413   .     S
C82    O139    1.384   .     S
C82    C512    1.401   1_545 S
C84    C154    1.414   .     S
C85    N110    1.368   .     A
C85    H141    1.082   .     S
C85    C87     1.417   .     A
C86    N109    1.368   .     A
C86    H142    1.082   .     S
C86    C88     1.417   .     A
C87    H143    1.082   .     S
C87    N109    1.367   .     A
C88    H144    1.082   .     S
C88    N110    1.367   .     A
C89    C91     1.477   .     S
C89    O117    1.298   .     A
C89    O187    1.297   .     S
C90    O118    1.302   .     A
C90    C92     1.482   .     S
C91    C95     1.417   .     A
C91    C97     1.397   .     A
C92    C96     1.416   .     A
C92    C98     1.402   .     A
C93    H127    1.084   .     S
C93    C101    1.408   .     A
C93    C95     1.396   .     A
C94    C96     1.392   .     A
C94    C102    1.405   .     A
C95    O197    1.378   .     S
C97    C99     1.406   .     A
C97    H108    1.081   .     S
C98    C100    1.409   .     A
C98    H107    1.080   .     S
C99    C101    1.414   .     A
C99    C103    1.422   .     A
C100   C102    1.417   .     A
C100   C104    1.425   .     A
C101   C725    1.403   .     S
C102   C726    1.402   1_554 S
C103   C752    1.418   .     S
C104   C751    1.418   1_554 S
Cu105  O118    1.917   .     S
Cu105  O114    1.958   .     S
Cu105  O111    1.956   .     S
Cu105  N109    2.013   .     S
Cu105  O115    1.932   .     S
Cu106  O113    1.958   .     S
Cu106  O117    1.917   .     S
Cu106  N110    2.013   .     S
Cu106  O112    1.956   .     S
Cu106  O116    1.932   .     S
Cu106  Cu177   2.679   .     S
O112   C146    1.290   .     S
O116   C162    1.295   .     S
O119   H120    0.990   .     S
O121   H122    0.990   .     S
O123   H124    0.991   .     S
O123   C168    1.374   .     S
O125   H126    0.989   .     S
H128   C166    1.084   .     S
O129   H130    0.992   .     S
O131   H132    0.992   .     S
O133   H134    0.989   .     S
O135   H136    0.989   .     S
O137   H138    0.989   .     S
O139   H140    0.989   .     S
C145   C156    1.446   .     S
C145   O185    1.288   .     A
C145   O39     1.290   1_655 S
C146   O186    1.287   .     A
C146   C155    1.445   .     S
C147   C149    1.410   .     A
C147   O201    1.381   .     S
C147   C176    1.430   .     A
C148   O203    1.381   .     S
C148   C175    1.428   .     A
C148   C150    1.405   .     A
C149   O191    1.385   .     S
C149   C821    1.403   1_554 S
C150   O193    1.384   .     S
C150   C822    1.402   .     S
C151   O205    1.386   .     S
C151   C156    1.405   .     A
C151   C585    1.401   1_545 S
C152   C155    1.405   .     A
C152   O207    1.386   .     S
C152   C370    1.401   .     S
C153   O209    1.385   .     S
C153   C367    1.401   .     S
C153   C11     1.413   1_655 S
C154   O211    1.384   .     S
C154   C584    1.401   1_545 S
C156   C10     1.414   1_655 S
C157   N182    1.368   .     A
C157   H213    1.082   .     S
C157   C159    1.417   .     A
C158   N181    1.368   .     A
C158   H214    1.082   .     S
C158   C160    1.417   .     A
C159   H215    1.082   .     S
C159   N181    1.367   .     A
C160   H216    1.082   .     S
C160   N182    1.367   .     A
C161   C163    1.477   .     S
C161   O189    1.298   .     A
C161   O43     1.297   1_655 S
C162   O190    1.302   .     A
C162   C164    1.482   .     S
C163   C167    1.417   .     A
C163   C169    1.397   .     A
C164   C168    1.416   .     A
C164   C170    1.402   .     A
C165   H199    1.084   .     S
C165   C173    1.408   .     A
C165   C167    1.396   .     A
C166   C168    1.392   .     A
C166   C174    1.405   .     A
C167   O53     1.378   1_655 S
C169   C171    1.406   .     A
C169   H180    1.081   .     S
C170   C172    1.409   .     A
C170   H179    1.080   .     S
C171   C173    1.414   .     A
C171   C175    1.422   .     A
C172   C174    1.417   .     A
C172   C176    1.425   .     A
C173   C797    1.403   .     S
C174   C798    1.402   1_554 S
C175   C824    1.418   .     S
C176   C823    1.418   1_554 S
Cu177  O190    1.917   .     S
Cu177  O186    1.958   .     S
Cu177  O183    1.956   .     S
Cu177  N181    2.013   .     S
Cu177  O187    1.932   .     S
Cu178  O185    1.958   .     S
Cu178  O189    1.917   .     S
Cu178  N182    2.013   .     S
Cu178  O184    1.956   .     S
Cu178  O188    1.932   .     S
Cu178  Cu33    2.679   1_655 S
O184   C2      1.290   1_655 S
O188   C18     1.295   1_655 S
O191   H192    0.990   .     S
O193   H194    0.990   .     S
O195   H196    0.991   .     S
O195   C24     1.374   1_655 S
O197   H198    0.989   .     S
H200   C22     1.084   1_655 S
O201   H202    0.992   .     S
O203   H204    0.992   .     S
O205   H206    0.989   .     S
O207   H208    0.989   .     S
O209   H210    0.989   .     S
O211   H212    0.989   .     S
C217   C228    1.446   .     S
C217   O257    1.288   .     A
C217   O327    1.290   .     S
C218   O258    1.287   .     A
C218   C227    1.445   .     S
C218   O400    1.290   1_455 S
C219   C221    1.410   .     A
C219   O273    1.381   .     S
C219   C248    1.430   .     A
C220   O275    1.381   .     S
C220   C247    1.428   .     A
C220   C222    1.405   .     A
C221   O263    1.385   .     S
C221   C893    1.403   1_554 S
C222   O265    1.384   .     S
C222   C894    1.402   .     S
C223   O277    1.386   .     S
C223   C228    1.405   .     A
C224   C227    1.405   .     A
C224   O279    1.386   .     S
C224   C442    1.401   .     S
C225   O281    1.385   .     S
C225   C439    1.401   .     S
C225   C299    1.413   .     S
C226   O283    1.384   .     S
C226   C372    1.414   1_455 S
C227   C369    1.413   1_455 S
C228   C298    1.414   .     S
C229   N254    1.368   .     A
C229   H285    1.082   .     S
C229   C231    1.417   .     A
C230   N253    1.368   .     A
C230   H286    1.082   .     S
C230   C232    1.417   .     A
C231   H287    1.082   .     S
C231   N253    1.367   .     A
C232   H288    1.082   .     S
C232   N254    1.367   .     A
C233   C235    1.477   .     S
C233   O261    1.298   .     A
C233   O331    1.297   .     S
C234   O262    1.302   .     A
C234   C236    1.482   .     S
C234   O404    1.295   1_455 S
C235   C239    1.417   .     A
C235   C241    1.397   .     A
C236   C240    1.416   .     A
C236   C242    1.402   .     A
C237   H271    1.084   .     S
C237   C245    1.408   .     A
C237   C239    1.396   .     A
C238   C240    1.392   .     A
C238   C246    1.405   .     A
C238   H416    1.084   1_455 S
C239   O341    1.378   .     S
C240   O411    1.374   1_455 S
C241   C243    1.406   .     A
C241   H252    1.081   .     S
C242   C244    1.409   .     A
C242   H251    1.080   .     S
C243   C245    1.414   .     A
C243   C247    1.422   .     A
C244   C246    1.417   .     A
C244   C248    1.425   .     A
C245   C869    1.403   .     S
C246   C870    1.402   1_554 S
C247   C896    1.418   .     S
C248   C895    1.418   1_554 S
Cu249  O262    1.917   .     S
Cu249  O258    1.958   .     S
Cu249  O255    1.956   .     S
Cu249  N253    2.013   .     S
Cu249  O259    1.932   .     S
Cu249  Cu394   2.679   1_455 S
Cu250  O257    1.958   .     S
Cu250  O261    1.917   .     S
Cu250  N254    2.013   .     S
Cu250  O256    1.956   .     S
Cu250  O260    1.932   .     S
Cu250  Cu321   2.679   .     S
O255   C361    1.290   1_455 S
O256   C290    1.290   .     S
O259   C377    1.297   1_455 S
O260   C306    1.295   .     S
O263   H264    0.990   .     S
O265   H266    0.990   .     S
O267   H268    0.991   .     S
O267   C312    1.374   .     S
O269   H270    0.989   .     S
O269   C383    1.378   1_455 S
H272   C310    1.084   .     S
O273   H274    0.992   .     S
O275   H276    0.992   .     S
O277   H278    0.989   .     S
O279   H280    0.989   .     S
O281   H282    0.989   .     S
O283   H284    0.989   .     S
C289   C300    1.446   .     S
C289   O329    1.288   .     A
C289   O399    1.290   .     S
C290   O330    1.287   .     A
C290   C299    1.445   .     S
C291   C293    1.410   .     A
C291   O345    1.381   .     S
C291   C320    1.430   .     A
C292   O347    1.381   .     S
C292   C319    1.428   .     A
C292   C294    1.405   .     A
C293   O335    1.385   .     S
C293   C965    1.403   1_554 S
C294   O337    1.384   .     S
C294   C966    1.402   .     S
C295   O349    1.386   .     S
C295   C300    1.405   .     A
C296   C299    1.405   .     A
C296   O351    1.386   .     S
C296   C514    1.401   .     S
C297   O353    1.385   .     S
C297   C511    1.401   .     S
C297   C371    1.413   .     S
C298   O355    1.384   .     S
C300   C370    1.414   .     S
C301   N326    1.368   .     A
C301   H357    1.082   .     S
C301   C303    1.417   .     A
C302   N325    1.368   .     A
C302   H358    1.082   .     S
C302   C304    1.417   .     A
C303   H359    1.082   .     S
C303   N325    1.367   .     A
C304   H360    1.082   .     S
C304   N326    1.367   .     A
C305   C307    1.477   .     S
C305   O333    1.298   .     A
C305   O403    1.297   .     S
C306   O334    1.302   .     A
C306   C308    1.482   .     S
C307   C311    1.417   .     A
C307   C313    1.397   .     A
C308   C312    1.416   .     A
C308   C314    1.402   .     A
C309   H343    1.084   .     S
C309   C317    1.408   .     A
C309   C311    1.396   .     A
C310   C312    1.392   .     A
C310   C318    1.405   .     A
C311   O413    1.378   .     S
C313   C315    1.406   .     A
C313   H324    1.081   .     S
C314   C316    1.409   .     A
C314   H323    1.080   .     S
C315   C317    1.414   .     A
C315   C319    1.422   .     A
C316   C318    1.417   .     A
C316   C320    1.425   .     A
C317   C941    1.403   .     S
C318   C942    1.402   1_554 S
C319   C968    1.418   .     S
C320   C967    1.418   1_554 S
Cu321  O334    1.917   .     S
Cu321  O330    1.958   .     S
Cu321  O327    1.956   .     S
Cu321  N325    2.013   .     S
Cu321  O331    1.932   .     S
Cu322  O329    1.958   .     S
Cu322  O333    1.917   .     S
Cu322  N326    2.013   .     S
Cu322  O328    1.956   .     S
Cu322  O332    1.932   .     S
Cu322  Cu393   2.679   .     S
O328   C362    1.290   .     S
O332   C378    1.295   .     S
O335   H336    0.990   .     S
O337   H338    0.990   .     S
O339   H340    0.991   .     S
O339   C384    1.374   .     S
O341   H342    0.989   .     S
H344   C382    1.084   .     S
O345   H346    0.992   .     S
O347   H348    0.992   .     S
O349   H350    0.989   .     S
O351   H352    0.989   .     S
O353   H354    0.989   .     S
O355   H356    0.989   .     S
C361   C372    1.446   .     S
C361   O401    1.288   .     A
C361   O255    1.290   1_655 S
C362   O402    1.287   .     A
C362   C371    1.445   .     S
C363   C365    1.410   .     A
C363   O417    1.381   .     S
C363   C392    1.430   .     A
C364   O419    1.381   .     S
C364   C391    1.428   .     A
C364   C366    1.405   .     A
C365   O407    1.385   .     S
C365   C1037   1.403   1_554 S
C366   O409    1.384   .     S
C366   C1038   1.402   .     S
C367   O421    1.386   .     S
C367   C372    1.405   .     A
C368   C371    1.405   .     A
C368   O423    1.386   .     S
C368   C586    1.401   .     S
C369   O425    1.385   .     S
C369   C583    1.401   .     S
C369   C227    1.413   1_655 S
C370   O427    1.384   .     S
C372   C226    1.414   1_655 S
C373   N398    1.368   .     A
C373   H429    1.082   .     S
C373   C375    1.417   .     A
C374   N397    1.368   .     A
C374   H430    1.082   .     S
C374   C376    1.417   .     A
C375   H431    1.082   .     S
C375   N397    1.367   .     A
C376   H432    1.082   .     S
C376   N398    1.367   .     A
C377   C379    1.477   .     S
C377   O405    1.298   .     A
C377   O259    1.297   1_655 S
C378   O406    1.302   .     A
C378   C380    1.482   .     S
C379   C383    1.417   .     A
C379   C385    1.397   .     A
C380   C384    1.416   .     A
C380   C386    1.402   .     A
C381   H415    1.084   .     S
C381   C389    1.408   .     A
C381   C383    1.396   .     A
C382   C384    1.392   .     A
C382   C390    1.405   .     A
C383   O269    1.378   1_655 S
C385   C387    1.406   .     A
C385   H396    1.081   .     S
C386   C388    1.409   .     A
C386   H395    1.080   .     S
C387   C389    1.414   .     A
C387   C391    1.422   .     A
C388   C390    1.417   .     A
C388   C392    1.425   .     A
C389   C1013   1.403   .     S
C390   C1014   1.402   1_554 S
C391   C1040   1.418   .     S
C392   C1039   1.418   1_554 S
Cu393  O406    1.917   .     S
Cu393  O402    1.958   .     S
Cu393  O399    1.956   .     S
Cu393  N397    2.013   .     S
Cu393  O403    1.932   .     S
Cu394  O401    1.958   .     S
Cu394  O405    1.917   .     S
Cu394  N398    2.013   .     S
Cu394  O400    1.956   .     S
Cu394  O404    1.932   .     S
Cu394  Cu249   2.679   1_655 S
O400   C218    1.290   1_655 S
O404   C234    1.295   1_655 S
O407   H408    0.990   .     S
O409   H410    0.990   .     S
O411   H412    0.991   .     S
O411   C240    1.374   1_655 S
O413   H414    0.989   .     S
H416   C238    1.084   1_655 S
O417   H418    0.992   .     S
O419   H420    0.992   .     S
O421   H422    0.989   .     S
O423   H424    0.989   .     S
O425   H426    0.989   .     S
O427   H428    0.989   .     S
C433   C444    1.446   .     S
C433   O473    1.288   .     A
C433   O543    1.290   .     S
C434   O474    1.287   .     A
C434   C443    1.445   .     S
C434   O616    1.290   1_455 S
C435   C437    1.410   .     A
C435   O489    1.381   .     S
C435   C464    1.430   .     A
C436   O491    1.381   .     S
C436   C463    1.428   .     A
C436   C438    1.405   .     A
C437   O479    1.385   .     S
C437   C1109   1.403   1_554 S
C438   O481    1.384   .     S
C438   C1110   1.402   .     S
C439   O493    1.386   .     S
C439   C444    1.405   .     A
C440   C443    1.405   .     A
C440   O495    1.386   .     S
C440   C10     1.401   1_565 S
C441   O497    1.385   .     S
C441   C7      1.401   1_565 S
C441   C515    1.413   .     S
C442   O499    1.384   .     S
C442   C588    1.414   1_455 S
C443   C585    1.413   1_455 S
C444   C514    1.414   .     S
C445   N470    1.368   .     A
C445   H501    1.082   .     S
C445   C447    1.417   .     A
C446   N469    1.368   .     A
C446   H502    1.082   .     S
C446   C448    1.417   .     A
C447   H503    1.082   .     S
C447   N469    1.367   .     A
C448   H504    1.082   .     S
C448   N470    1.367   .     A
C449   C451    1.477   .     S
C449   O477    1.298   .     A
C449   O547    1.297   .     S
C450   O478    1.302   .     A
C450   C452    1.482   .     S
C450   O620    1.295   1_455 S
C451   C455    1.417   .     A
C451   C457    1.397   .     A
C452   C456    1.416   .     A
C452   C458    1.402   .     A
C453   H487    1.084   .     S
C453   C461    1.408   .     A
C453   C455    1.396   .     A
C454   C456    1.392   .     A
C454   C462    1.405   .     A
C454   H632    1.084   1_455 S
C455   O557    1.378   .     S
C456   O627    1.374   1_455 S
C457   C459    1.406   .     A
C457   H468    1.081   .     S
C458   C460    1.409   .     A
C458   H467    1.080   .     S
C459   C461    1.414   .     A
C459   C463    1.422   .     A
C460   C462    1.417   .     A
C460   C464    1.425   .     A
C461   C1085   1.403   .     S
C462   C1086   1.402   1_554 S
C463   C1112   1.418   .     S
C464   C1111   1.418   1_554 S
Cu465  O478    1.917   .     S
Cu465  O474    1.958   .     S
Cu465  O471    1.956   .     S
Cu465  N469    2.013   .     S
Cu465  O475    1.932   .     S
Cu465  Cu610   2.679   1_455 S
Cu466  O473    1.958   .     S
Cu466  O477    1.917   .     S
Cu466  N470    2.013   .     S
Cu466  O472    1.956   .     S
Cu466  O476    1.932   .     S
Cu466  Cu537   2.679   .     S
O471   C577    1.290   1_455 S
O472   C506    1.290   .     S
O475   C593    1.297   1_455 S
O476   C522    1.295   .     S
O479   H480    0.990   .     S
O481   H482    0.990   .     S
O483   H484    0.991   .     S
O483   C528    1.374   .     S
O485   H486    0.989   .     S
O485   C599    1.378   1_455 S
H488   C526    1.084   .     S
O489   H490    0.992   .     S
O491   H492    0.992   .     S
O493   H494    0.989   .     S
O495   H496    0.989   .     S
O497   H498    0.989   .     S
O499   H500    0.989   .     S
C505   C516    1.446   .     S
C505   O545    1.288   .     A
C505   O615    1.290   .     S
C506   O546    1.287   .     A
C506   C515    1.445   .     S
C507   C509    1.410   .     A
C507   O561    1.381   .     S
C507   C536    1.430   .     A
C508   O563    1.381   .     S
C508   C535    1.428   .     A
C508   C510    1.405   .     A
C509   O551    1.385   .     S
C509   C1181   1.403   1_554 S
C510   O553    1.384   .     S
C510   C1182   1.402   .     S
C511   O565    1.386   .     S
C511   C516    1.405   .     A
C512   C515    1.405   .     A
C512   O567    1.386   .     S
C512   C82     1.401   1_565 S
C513   O569    1.385   .     S
C513   C79     1.401   1_565 S
C513   C587    1.413   .     S
C514   O571    1.384   .     S
C516   C586    1.414   .     S
C517   N542    1.368   .     A
C517   H573    1.082   .     S
C517   C519    1.417   .     A
C518   N541    1.368   .     A
C518   H574    1.082   .     S
C518   C520    1.417   .     A
C519   H575    1.082   .     S
C519   N541    1.367   .     A
C520   H576    1.082   .     S
C520   N542    1.367   .     A
C521   C523    1.477   .     S
C521   O549    1.298   .     A
C521   O619    1.297   .     S
C522   O550    1.302   .     A
C522   C524    1.482   .     S
C523   C527    1.417   .     A
C523   C529    1.397   .     A
C524   C528    1.416   .     A
C524   C530    1.402   .     A
C525   H559    1.084   .     S
C525   C533    1.408   .     A
C525   C527    1.396   .     A
C526   C528    1.392   .     A
C526   C534    1.405   .     A
C527   O629    1.378   .     S
C529   C531    1.406   .     A
C529   H540    1.081   .     S
C530   C532    1.409   .     A
C530   H539    1.080   .     S
C531   C533    1.414   .     A
C531   C535    1.422   .     A
C532   C534    1.417   .     A
C532   C536    1.425   .     A
C533   C1157   1.403   .     S
C534   C1158   1.402   1_554 S
C535   C1184   1.418   .     S
C536   C1183   1.418   1_554 S
Cu537  O550    1.917   .     S
Cu537  O546    1.958   .     S
Cu537  O543    1.956   .     S
Cu537  N541    2.013   .     S
Cu537  O547    1.932   .     S
Cu538  O545    1.958   .     S
Cu538  O549    1.917   .     S
Cu538  N542    2.013   .     S
Cu538  O544    1.956   .     S
Cu538  O548    1.932   .     S
Cu538  Cu609   2.679   .     S
O544   C578    1.290   .     S
O548   C594    1.295   .     S
O551   H552    0.990   .     S
O553   H554    0.990   .     S
O555   H556    0.991   .     S
O555   C600    1.374   .     S
O557   H558    0.989   .     S
H560   C598    1.084   .     S
O561   H562    0.992   .     S
O563   H564    0.992   .     S
O565   H566    0.989   .     S
O567   H568    0.989   .     S
O569   H570    0.989   .     S
O571   H572    0.989   .     S
C577   C588    1.446   .     S
C577   O617    1.288   .     A
C577   O471    1.290   1_655 S
C578   O618    1.287   .     A
C578   C587    1.445   .     S
C579   C581    1.410   .     A
C579   O633    1.381   .     S
C579   C608    1.430   .     A
C580   O635    1.381   .     S
C580   C607    1.428   .     A
C580   C582    1.405   .     A
C581   O623    1.385   .     S
C581   C1253   1.403   1_554 S
C582   O625    1.384   .     S
C582   C1254   1.402   .     S
C583   O637    1.386   .     S
C583   C588    1.405   .     A
C584   C587    1.405   .     A
C584   O639    1.386   .     S
C584   C154    1.401   1_565 S
C585   O641    1.385   .     S
C585   C151    1.401   1_565 S
C585   C443    1.413   1_655 S
C586   O643    1.384   .     S
C588   C442    1.414   1_655 S
C589   N614    1.368   .     A
C589   H645    1.082   .     S
C589   C591    1.417   .     A
C590   N613    1.368   .     A
C590   H646    1.082   .     S
C590   C592    1.417   .     A
C591   H647    1.082   .     S
C591   N613    1.367   .     A
C592   H648    1.082   .     S
C592   N614    1.367   .     A
C593   C595    1.477   .     S
C593   O621    1.298   .     A
C593   O475    1.297   1_655 S
C594   O622    1.302   .     A
C594   C596    1.482   .     S
C595   C599    1.417   .     A
C595   C601    1.397   .     A
C596   C600    1.416   .     A
C596   C602    1.402   .     A
C597   H631    1.084   .     S
C597   C605    1.408   .     A
C597   C599    1.396   .     A
C598   C600    1.392   .     A
C598   C606    1.405   .     A
C599   O485    1.378   1_655 S
C601   C603    1.406   .     A
C601   H612    1.081   .     S
C602   C604    1.409   .     A
C602   H611    1.080   .     S
C603   C605    1.414   .     A
C603   C607    1.422   .     A
C604   C606    1.417   .     A
C604   C608    1.425   .     A
C605   C1229   1.403   .     S
C606   C1230   1.402   1_554 S
C607   C1256   1.418   .     S
C608   C1255   1.418   1_554 S
Cu609  O622    1.917   .     S
Cu609  O618    1.958   .     S
Cu609  O615    1.956   .     S
Cu609  N613    2.013   .     S
Cu609  O619    1.932   .     S
Cu610  O617    1.958   .     S
Cu610  O621    1.917   .     S
Cu610  N614    2.013   .     S
Cu610  O616    1.956   .     S
Cu610  O620    1.932   .     S
Cu610  Cu465   2.679   1_655 S
O616   C434    1.290   1_655 S
O620   C450    1.295   1_655 S
O623   H624    0.990   .     S
O625   H626    0.990   .     S
O627   H628    0.991   .     S
O627   C456    1.374   1_655 S
O629   H630    0.989   .     S
H632   C454    1.084   1_655 S
O633   H634    0.992   .     S
O635   H636    0.992   .     S
O637   H638    0.989   .     S
O639   H640    0.989   .     S
O641   H642    0.989   .     S
O643   H644    0.989   .     S
C649   C660    1.446   .     S
C649   O689    1.288   .     A
C649   O759    1.290   .     S
C650   O690    1.287   .     A
C650   C659    1.445   .     S
C650   O832    1.290   1_455 S
C651   C653    1.410   .     A
C651   O705    1.381   .     S
C651   C680    1.430   .     A
C652   O707    1.381   .     S
C652   C679    1.428   .     A
C652   C654    1.405   .     A
C653   O695    1.385   .     S
C654   O697    1.384   .     S
C654   C30     1.402   1_556 S
C655   O709    1.386   .     S
C655   C660    1.405   .     A
C655   C1089   1.401   1_545 S
C656   C659    1.405   .     A
C656   O711    1.386   .     S
C656   C874    1.401   .     S
C657   O713    1.385   .     S
C657   C871    1.401   .     S
C657   C731    1.413   .     S
C658   O715    1.384   .     S
C658   C1088   1.401   1_545 S
C658   C804    1.414   1_455 S
C659   C801    1.413   1_455 S
C660   C730    1.414   .     S
C661   N686    1.368   .     A
C661   H717    1.082   .     S
C661   C663    1.417   .     A
C662   N685    1.368   .     A
C662   H718    1.082   .     S
C662   C664    1.417   .     A
C663   H719    1.082   .     S
C663   N685    1.367   .     A
C664   H720    1.082   .     S
C664   N686    1.367   .     A
C665   C667    1.477   .     S
C665   O693    1.298   .     A
C665   O763    1.297   .     S
C666   O694    1.302   .     A
C666   C668    1.482   .     S
C666   O836    1.295   1_455 S
C667   C671    1.417   .     A
C667   C673    1.397   .     A
C668   C672    1.416   .     A
C668   C674    1.402   .     A
C669   H703    1.084   .     S
C669   C677    1.408   .     A
C669   C671    1.396   .     A
C670   C672    1.392   .     A
C670   C678    1.405   .     A
C670   H848    1.084   1_455 S
C671   O773    1.378   .     S
C672   O843    1.374   1_455 S
C673   C675    1.406   .     A
C673   H684    1.081   .     S
C674   C676    1.409   .     A
C674   H683    1.080   .     S
C675   C677    1.414   .     A
C675   C679    1.422   .     A
C676   C678    1.417   .     A
C676   C680    1.425   .     A
C677   C5      1.403   1_556 S
C679   C32     1.418   1_556 S
Cu681  O694    1.917   .     S
Cu681  O690    1.958   .     S
Cu681  O687    1.956   .     S
Cu681  N685    2.013   .     S
Cu681  O691    1.932   .     S
Cu681  Cu826   2.679   1_455 S
Cu682  O689    1.958   .     S
Cu682  O693    1.917   .     S
Cu682  N686    2.013   .     S
Cu682  O688    1.956   .     S
Cu682  O692    1.932   .     S
Cu682  Cu753   2.679   .     S
O687   C793    1.290   1_455 S
O688   C722    1.290   .     S
O691   C809    1.297   1_455 S
O692   C738    1.295   .     S
O695   H696    0.990   .     S
O697   H698    0.990   .     S
O699   H700    0.991   .     S
O699   C744    1.374   .     S
O701   H702    0.989   .     S
O701   C815    1.378   1_455 S
H704   C742    1.084   .     S
O705   H706    0.992   .     S
O707   H708    0.992   .     S
O709   H710    0.989   .     S
O711   H712    0.989   .     S
O713   H714    0.989   .     S
O715   H716    0.989   .     S
C721   C732    1.446   .     S
C721   O761    1.288   .     A
C721   O831    1.290   .     S
C722   O762    1.287   .     A
C722   C731    1.445   .     S
C723   C725    1.410   .     A
C723   O777    1.381   .     S
C723   C752    1.430   .     A
C724   O779    1.381   .     S
C724   C751    1.428   .     A
C724   C726    1.405   .     A
C725   O767    1.385   .     S
C726   O769    1.384   .     S
C726   C102    1.402   1_556 S
C727   O781    1.386   .     S
C727   C732    1.405   .     A
C727   C1161   1.401   1_545 S
C728   C731    1.405   .     A
C728   O783    1.386   .     S
C728   C946    1.401   .     S
C729   O785    1.385   .     S
C729   C943    1.401   .     S
C729   C803    1.413   .     S
C730   O787    1.384   .     S
C730   C1160   1.401   1_545 S
C732   C802    1.414   .     S
C733   N758    1.368   .     A
C733   H789    1.082   .     S
C733   C735    1.417   .     A
C734   N757    1.368   .     A
C734   H790    1.082   .     S
C734   C736    1.417   .     A
C735   H791    1.082   .     S
C735   N757    1.367   .     A
C736   H792    1.082   .     S
C736   N758    1.367   .     A
C737   C739    1.477   .     S
C737   O765    1.298   .     A
C737   O835    1.297   .     S
C738   O766    1.302   .     A
C738   C740    1.482   .     S
C739   C743    1.417   .     A
C739   C745    1.397   .     A
C740   C744    1.416   .     A
C740   C746    1.402   .     A
C741   H775    1.084   .     S
C741   C749    1.408   .     A
C741   C743    1.396   .     A
C742   C744    1.392   .     A
C742   C750    1.405   .     A
C743   O845    1.378   .     S
C745   C747    1.406   .     A
C745   H756    1.081   .     S
C746   C748    1.409   .     A
C746   H755    1.080   .     S
C747   C749    1.414   .     A
C747   C751    1.422   .     A
C748   C750    1.417   .     A
C748   C752    1.425   .     A
C749   C77     1.403   1_556 S
C751   C104    1.418   1_556 S
Cu753  O766    1.917   .     S
Cu753  O762    1.958   .     S
Cu753  O759    1.956   .     S
Cu753  N757    2.013   .     S
Cu753  O763    1.932   .     S
Cu754  O761    1.958   .     S
Cu754  O765    1.917   .     S
Cu754  N758    2.013   .     S
Cu754  O760    1.956   .     S
Cu754  O764    1.932   .     S
Cu754  Cu825   2.679   .     S
O760   C794    1.290   .     S
O764   C810    1.295   .     S
O767   H768    0.990   .     S
O769   H770    0.990   .     S
O771   H772    0.991   .     S
O771   C816    1.374   .     S
O773   H774    0.989   .     S
H776   C814    1.084   .     S
O777   H778    0.992   .     S
O779   H780    0.992   .     S
O781   H782    0.989   .     S
O783   H784    0.989   .     S
O785   H786    0.989   .     S
O787   H788    0.989   .     S
C793   C804    1.446   .     S
C793   O833    1.288   .     A
C793   O687    1.290   1_655 S
C794   O834    1.287   .     A
C794   C803    1.445   .     S
C795   C797    1.410   .     A
C795   O849    1.381   .     S
C795   C824    1.430   .     A
C796   O851    1.381   .     S
C796   C823    1.428   .     A
C796   C798    1.405   .     A
C797   O839    1.385   .     S
C798   O841    1.384   .     S
C798   C174    1.402   1_556 S
C799   O853    1.386   .     S
C799   C804    1.405   .     A
C799   C1233   1.401   1_545 S
C800   C803    1.405   .     A
C800   O855    1.386   .     S
C800   C1018   1.401   .     S
C801   O857    1.385   .     S
C801   C1015   1.401   .     S
C801   C659    1.413   1_655 S
C802   O859    1.384   .     S
C802   C1232   1.401   1_545 S
C804   C658    1.414   1_655 S
C805   N830    1.368   .     A
C805   H861    1.082   .     S
C805   C807    1.417   .     A
C806   N829    1.368   .     A
C806   H862    1.082   .     S
C806   C808    1.417   .     A
C807   H863    1.082   .     S
C807   N829    1.367   .     A
C808   H864    1.082   .     S
C808   N830    1.367   .     A
C809   C811    1.477   .     S
C809   O837    1.298   .     A
C809   O691    1.297   1_655 S
C810   O838    1.302   .     A
C810   C812    1.482   .     S
C811   C815    1.417   .     A
C811   C817    1.397   .     A
C812   C816    1.416   .     A
C812   C818    1.402   .     A
C813   H847    1.084   .     S
C813   C821    1.408   .     A
C813   C815    1.396   .     A
C814   C816    1.392   .     A
C814   C822    1.405   .     A
C815   O701    1.378   1_655 S
C817   C819    1.406   .     A
C817   H828    1.081   .     S
C818   C820    1.409   .     A
C818   H827    1.080   .     S
C819   C821    1.414   .     A
C819   C823    1.422   .     A
C820   C822    1.417   .     A
C820   C824    1.425   .     A
C821   C149    1.403   1_556 S
C823   C176    1.418   1_556 S
Cu825  O838    1.917   .     S
Cu825  O834    1.958   .     S
Cu825  O831    1.956   .     S
Cu825  N829    2.013   .     S
Cu825  O835    1.932   .     S
Cu826  O833    1.958   .     S
Cu826  O837    1.917   .     S
Cu826  N830    2.013   .     S
Cu826  O832    1.956   .     S
Cu826  O836    1.932   .     S
Cu826  Cu681   2.679   1_655 S
O832   C650    1.290   1_655 S
O836   C666    1.295   1_655 S
O839   H840    0.990   .     S
O841   H842    0.990   .     S
O843   H844    0.991   .     S
O843   C672    1.374   1_655 S
O845   H846    0.989   .     S
H848   C670    1.084   1_655 S
O849   H850    0.992   .     S
O851   H852    0.992   .     S
O853   H854    0.989   .     S
O855   H856    0.989   .     S
O857   H858    0.989   .     S
O859   H860    0.989   .     S
C865   C876    1.446   .     S
C865   O905    1.288   .     A
C865   O975    1.290   .     S
C866   O906    1.287   .     A
C866   C875    1.445   .     S
C866   O1048   1.290   1_455 S
C867   C869    1.410   .     A
C867   O921    1.381   .     S
C867   C896    1.430   .     A
C868   O923    1.381   .     S
C868   C895    1.428   .     A
C868   C870    1.405   .     A
C869   O911    1.385   .     S
C870   O913    1.384   .     S
C870   C246    1.402   1_556 S
C871   O925    1.386   .     S
C871   C876    1.405   .     A
C872   C875    1.405   .     A
C872   O927    1.386   .     S
C872   C1090   1.401   .     S
C873   O929    1.385   .     S
C873   C1087   1.401   .     S
C873   C947    1.413   .     S
C874   O931    1.384   .     S
C874   C1020   1.414   1_455 S
C875   C1017   1.413   1_455 S
C876   C946    1.414   .     S
C877   N902    1.368   .     A
C877   H933    1.082   .     S
C877   C879    1.417   .     A
C878   N901    1.368   .     A
C878   H934    1.082   .     S
C878   C880    1.417   .     A
C879   H935    1.082   .     S
C879   N901    1.367   .     A
C880   H936    1.082   .     S
C880   N902    1.367   .     A
C881   C883    1.477   .     S
C881   O909    1.298   .     A
C881   O979    1.297   .     S
C882   O910    1.302   .     A
C882   C884    1.482   .     S
C882   O1052   1.295   1_455 S
C883   C887    1.417   .     A
C883   C889    1.397   .     A
C884   C888    1.416   .     A
C884   C890    1.402   .     A
C885   H919    1.084   .     S
C885   C893    1.408   .     A
C885   C887    1.396   .     A
C886   C888    1.392   .     A
C886   C894    1.405   .     A
C886   H1064   1.084   1_455 S
C887   O989    1.378   .     S
C888   O1059   1.374   1_455 S
C889   C891    1.406   .     A
C889   H900    1.081   .     S
C890   C892    1.409   .     A
C890   H899    1.080   .     S
C891   C893    1.414   .     A
C891   C895    1.422   .     A
C892   C894    1.417   .     A
C892   C896    1.425   .     A
C893   C221    1.403   1_556 S
C895   C248    1.418   1_556 S
Cu897  O910    1.917   .     S
Cu897  O906    1.958   .     S
Cu897  O903    1.956   .     S
Cu897  N901    2.013   .     S
Cu897  O907    1.932   .     S
Cu897  Cu1042  2.679   1_455 S
Cu898  O905    1.958   .     S
Cu898  O909    1.917   .     S
Cu898  N902    2.013   .     S
Cu898  O904    1.956   .     S
Cu898  O908    1.932   .     S
Cu898  Cu969   2.679   .     S
O903   C1009   1.290   1_455 S
O904   C938    1.290   .     S
O907   C1025   1.297   1_455 S
O908   C954    1.295   .     S
O911   H912    0.990   .     S
O913   H914    0.990   .     S
O915   H916    0.991   .     S
O915   C960    1.374   .     S
O917   H918    0.989   .     S
O917   C1031   1.378   1_455 S
H920   C958    1.084   .     S
O921   H922    0.992   .     S
O923   H924    0.992   .     S
O925   H926    0.989   .     S
O927   H928    0.989   .     S
O929   H930    0.989   .     S
O931   H932    0.989   .     S
C937   C948    1.446   .     S
C937   O977    1.288   .     A
C937   O1047   1.290   .     S
C938   O978    1.287   .     A
C938   C947    1.445   .     S
C939   C941    1.410   .     A
C939   O993    1.381   .     S
C939   C968    1.430   .     A
C940   O995    1.381   .     S
C940   C967    1.428   .     A
C940   C942    1.405   .     A
C941   O983    1.385   .     S
C942   O985    1.384   .     S
C942   C318    1.402   1_556 S
C943   O997    1.386   .     S
C943   C948    1.405   .     A
C944   C947    1.405   .     A
C944   O999    1.386   .     S
C944   C1162   1.401   .     S
C945   O1001   1.385   .     S
C945   C1159   1.401   .     S
C945   C1019   1.413   .     S
C946   O1003   1.384   .     S
C948   C1018   1.414   .     S
C949   N974    1.368   .     A
C949   H1005   1.082   .     S
C949   C951    1.417   .     A
C950   N973    1.368   .     A
C950   H1006   1.082   .     S
C950   C952    1.417   .     A
C951   H1007   1.082   .     S
C951   N973    1.367   .     A
C952   H1008   1.082   .     S
C952   N974    1.367   .     A
C953   C955    1.477   .     S
C953   O981    1.298   .     A
C953   O1051   1.297   .     S
C954   O982    1.302   .     A
C954   C956    1.482   .     S
C955   C959    1.417   .     A
C955   C961    1.397   .     A
C956   C960    1.416   .     A
C956   C962    1.402   .     A
C957   H991    1.084   .     S
C957   C965    1.408   .     A
C957   C959    1.396   .     A
C958   C960    1.392   .     A
C958   C966    1.405   .     A
C959   O1061   1.378   .     S
C961   C963    1.406   .     A
C961   H972    1.081   .     S
C962   C964    1.409   .     A
C962   H971    1.080   .     S
C963   C965    1.414   .     A
C963   C967    1.422   .     A
C964   C966    1.417   .     A
C964   C968    1.425   .     A
C965   C293    1.403   1_556 S
C967   C320    1.418   1_556 S
Cu969  O982    1.917   .     S
Cu969  O978    1.958   .     S
Cu969  O975    1.956   .     S
Cu969  N973    2.013   .     S
Cu969  O979    1.932   .     S
Cu970  O977    1.958   .     S
Cu970  O981    1.917   .     S
Cu970  N974    2.013   .     S
Cu970  O976    1.956   .     S
Cu970  O980    1.932   .     S
Cu970  Cu1041  2.679   .     S
O976   C1010   1.290   .     S
O980   C1026   1.295   .     S
O983   H984    0.990   .     S
O985   H986    0.990   .     S
O987   H988    0.991   .     S
O987   C1032   1.374   .     S
O989   H990    0.989   .     S
H992   C1030   1.084   .     S
O993   H994    0.992   .     S
O995   H996    0.992   .     S
O997   H998    0.989   .     S
O999   H1000   0.989   .     S
O1001  H1002   0.989   .     S
O1003  H1004   0.989   .     S
C1009  C1020   1.446   .     S
C1009  O1049   1.288   .     A
C1009  O903    1.290   1_655 S
C1010  O1050   1.287   .     A
C1010  C1019   1.445   .     S
C1011  C1013   1.410   .     A
C1011  O1065   1.381   .     S
C1011  C1040   1.430   .     A
C1012  O1067   1.381   .     S
C1012  C1039   1.428   .     A
C1012  C1014   1.405   .     A
C1013  O1055   1.385   .     S
C1014  O1057   1.384   .     S
C1014  C390    1.402   1_556 S
C1015  O1069   1.386   .     S
C1015  C1020   1.405   .     A
C1016  C1019   1.405   .     A
C1016  O1071   1.386   .     S
C1016  C1234   1.401   .     S
C1017  O1073   1.385   .     S
C1017  C1231   1.401   .     S
C1017  C875    1.413   1_655 S
C1018  O1075   1.384   .     S
C1020  C874    1.414   1_655 S
C1021  N1046   1.368   .     A
C1021  H1077   1.082   .     S
C1021  C1023   1.417   .     A
C1022  N1045   1.368   .     A
C1022  H1078   1.082   .     S
C1022  C1024   1.417   .     A
C1023  H1079   1.082   .     S
C1023  N1045   1.367   .     A
C1024  H1080   1.082   .     S
C1024  N1046   1.367   .     A
C1025  C1027   1.477   .     S
C1025  O1053   1.298   .     A
C1025  O907    1.297   1_655 S
C1026  O1054   1.302   .     A
C1026  C1028   1.482   .     S
C1027  C1031   1.417   .     A
C1027  C1033   1.397   .     A
C1028  C1032   1.416   .     A
C1028  C1034   1.402   .     A
C1029  H1063   1.084   .     S
C1029  C1037   1.408   .     A
C1029  C1031   1.396   .     A
C1030  C1032   1.392   .     A
C1030  C1038   1.405   .     A
C1031  O917    1.378   1_655 S
C1033  C1035   1.406   .     A
C1033  H1044   1.081   .     S
C1034  C1036   1.409   .     A
C1034  H1043   1.080   .     S
C1035  C1037   1.414   .     A
C1035  C1039   1.422   .     A
C1036  C1038   1.417   .     A
C1036  C1040   1.425   .     A
C1037  C365    1.403   1_556 S
C1039  C392    1.418   1_556 S
Cu1041 O1054   1.917   .     S
Cu1041 O1050   1.958   .     S
Cu1041 O1047   1.956   .     S
Cu1041 N1045   2.013   .     S
Cu1041 O1051   1.932   .     S
Cu1042 O1049   1.958   .     S
Cu1042 O1053   1.917   .     S
Cu1042 N1046   2.013   .     S
Cu1042 O1048   1.956   .     S
Cu1042 O1052   1.932   .     S
Cu1042 Cu897   2.679   1_655 S
O1048  C866    1.290   1_655 S
O1052  C882    1.295   1_655 S
O1055  H1056   0.990   .     S
O1057  H1058   0.990   .     S
O1059  H1060   0.991   .     S
O1059  C888    1.374   1_655 S
O1061  H1062   0.989   .     S
H1064  C886    1.084   1_655 S
O1065  H1066   0.992   .     S
O1067  H1068   0.992   .     S
O1069  H1070   0.989   .     S
O1071  H1072   0.989   .     S
O1073  H1074   0.989   .     S
O1075  H1076   0.989   .     S
C1081  C1092   1.446   .     S
C1081  O1121   1.288   .     A
C1081  O1191   1.290   .     S
C1082  O1122   1.287   .     A
C1082  C1091   1.445   .     S
C1082  O1264   1.290   1_455 S
C1083  C1085   1.410   .     A
C1083  O1137   1.381   .     S
C1083  C1112   1.430   .     A
C1084  O1139   1.381   .     S
C1084  C1111   1.428   .     A
C1084  C1086   1.405   .     A
C1085  O1127   1.385   .     S
C1086  O1129   1.384   .     S
C1086  C462    1.402   1_556 S
C1087  O1141   1.386   .     S
C1087  C1092   1.405   .     A
C1088  C1091   1.405   .     A
C1088  O1143   1.386   .     S
C1088  C658    1.401   1_565 S
C1089  O1145   1.385   .     S
C1089  C655    1.401   1_565 S
C1089  C1163   1.413   .     S
C1090  O1147   1.384   .     S
C1090  C1236   1.414   1_455 S
C1091  C1233   1.413   1_455 S
C1092  C1162   1.414   .     S
C1093  N1118   1.368   .     A
C1093  H1149   1.082   .     S
C1093  C1095   1.417   .     A
C1094  N1117   1.368   .     A
C1094  H1150   1.082   .     S
C1094  C1096   1.417   .     A
C1095  H1151   1.082   .     S
C1095  N1117   1.367   .     A
C1096  H1152   1.082   .     S
C1096  N1118   1.367   .     A
C1097  C1099   1.477   .     S
C1097  O1125   1.298   .     A
C1097  O1195   1.297   .     S
C1098  O1126   1.302   .     A
C1098  C1100   1.482   .     S
C1098  O1268   1.295   1_455 S
C1099  C1103   1.417   .     A
C1099  C1105   1.397   .     A
C1100  C1104   1.416   .     A
C1100  C1106   1.402   .     A
C1101  H1135   1.084   .     S
C1101  C1109   1.408   .     A
C1101  C1103   1.396   .     A
C1102  C1104   1.392   .     A
C1102  C1110   1.405   .     A
C1102  H1280   1.084   1_455 S
C1103  O1205   1.378   .     S
C1104  O1275   1.374   1_455 S
C1105  C1107   1.406   .     A
C1105  H1116   1.081   .     S
C1106  C1108   1.409   .     A
C1106  H1115   1.080   .     S
C1107  C1109   1.414   .     A
C1107  C1111   1.422   .     A
C1108  C1110   1.417   .     A
C1108  C1112   1.425   .     A
C1109  C437    1.403   1_556 S
C1111  C464    1.418   1_556 S
Cu1113 O1126   1.917   .     S
Cu1113 O1122   1.958   .     S
Cu1113 O1119   1.956   .     S
Cu1113 N1117   2.013   .     S
Cu1113 O1123   1.932   .     S
Cu1113 Cu1258  2.679   1_455 S
Cu1114 O1121   1.958   .     S
Cu1114 O1125   1.917   .     S
Cu1114 N1118   2.013   .     S
Cu1114 O1120   1.956   .     S
Cu1114 O1124   1.932   .     S
Cu1114 Cu1185  2.679   .     S
O1119  C1225   1.290   1_455 S
O1120  C1154   1.290   .     S
O1123  C1241   1.297   1_455 S
O1124  C1170   1.295   .     S
O1127  H1128   0.990   .     S
O1129  H1130   0.990   .     S
O1131  H1132   0.991   .     S
O1131  C1176   1.374   .     S
O1133  H1134   0.989   .     S
O1133  C1247   1.378   1_455 S
H1136  C1174   1.084   .     S
O1137  H1138   0.992   .     S
O1139  H1140   0.992   .     S
O1141  H1142   0.989   .     S
O1143  H1144   0.989   .     S
O1145  H1146   0.989   .     S
O1147  H1148   0.989   .     S
C1153  C1164   1.446   .     S
C1153  O1193   1.288   .     A
C1153  O1263   1.290   .     S
C1154  O1194   1.287   .     A
C1154  C1163   1.445   .     S
C1155  C1157   1.410   .     A
C1155  O1209   1.381   .     S
C1155  C1184   1.430   .     A
C1156  O1211   1.381   .     S
C1156  C1183   1.428   .     A
C1156  C1158   1.405   .     A
C1157  O1199   1.385   .     S
C1158  O1201   1.384   .     S
C1158  C534    1.402   1_556 S
C1159  O1213   1.386   .     S
C1159  C1164   1.405   .     A
C1160  C1163   1.405   .     A
C1160  O1215   1.386   .     S
C1160  C730    1.401   1_565 S
C1161  O1217   1.385   .     S
C1161  C727    1.401   1_565 S
C1161  C1235   1.413   .     S
C1162  O1219   1.384   .     S
C1164  C1234   1.414   .     S
C1165  N1190   1.368   .     A
C1165  H1221   1.082   .     S
C1165  C1167   1.417   .     A
C1166  N1189   1.368   .     A
C1166  H1222   1.082   .     S
C1166  C1168   1.417   .     A
C1167  H1223   1.082   .     S
C1167  N1189   1.367   .     A
C1168  H1224   1.082   .     S
C1168  N1190   1.367   .     A
C1169  C1171   1.477   .     S
C1169  O1197   1.298   .     A
C1169  O1267   1.297   .     S
C1170  O1198   1.302   .     A
C1170  C1172   1.482   .     S
C1171  C1175   1.417   .     A
C1171  C1177   1.397   .     A
C1172  C1176   1.416   .     A
C1172  C1178   1.402   .     A
C1173  H1207   1.084   .     S
C1173  C1181   1.408   .     A
C1173  C1175   1.396   .     A
C1174  C1176   1.392   .     A
C1174  C1182   1.405   .     A
C1175  O1277   1.378   .     S
C1177  C1179   1.406   .     A
C1177  H1188   1.081   .     S
C1178  C1180   1.409   .     A
C1178  H1187   1.080   .     S
C1179  C1181   1.414   .     A
C1179  C1183   1.422   .     A
C1180  C1182   1.417   .     A
C1180  C1184   1.425   .     A
C1181  C509    1.403   1_556 S
C1183  C536    1.418   1_556 S
Cu1185 O1198   1.917   .     S
Cu1185 O1194   1.958   .     S
Cu1185 O1191   1.956   .     S
Cu1185 N1189   2.013   .     S
Cu1185 O1195   1.932   .     S
Cu1186 O1193   1.958   .     S
Cu1186 O1197   1.917   .     S
Cu1186 N1190   2.013   .     S
Cu1186 O1192   1.956   .     S
Cu1186 O1196   1.932   .     S
Cu1186 Cu1257  2.679   .     S
O1192  C1226   1.290   .     S
O1196  C1242   1.295   .     S
O1199  H1200   0.990   .     S
O1201  H1202   0.990   .     S
O1203  H1204   0.991   .     S
O1203  C1248   1.374   .     S
O1205  H1206   0.989   .     S
H1208  C1246   1.084   .     S
O1209  H1210   0.992   .     S
O1211  H1212   0.992   .     S
O1213  H1214   0.989   .     S
O1215  H1216   0.989   .     S
O1217  H1218   0.989   .     S
O1219  H1220   0.989   .     S
C1225  C1236   1.446   .     S
C1225  O1265   1.288   .     A
C1225  O1119   1.290   1_655 S
C1226  O1266   1.287   .     A
C1226  C1235   1.445   .     S
C1227  C1229   1.410   .     A
C1227  O1281   1.381   .     S
C1227  C1256   1.430   .     A
C1228  O1283   1.381   .     S
C1228  C1255   1.428   .     A
C1228  C1230   1.405   .     A
C1229  O1271   1.385   .     S
C1230  O1273   1.384   .     S
C1230  C606    1.402   1_556 S
C1231  O1285   1.386   .     S
C1231  C1236   1.405   .     A
C1232  C1235   1.405   .     A
C1232  O1287   1.386   .     S
C1232  C802    1.401   1_565 S
C1233  O1289   1.385   .     S
C1233  C799    1.401   1_565 S
C1233  C1091   1.413   1_655 S
C1234  O1291   1.384   .     S
C1236  C1090   1.414   1_655 S
C1237  N1262   1.368   .     A
C1237  H1293   1.082   .     S
C1237  C1239   1.417   .     A
C1238  N1261   1.368   .     A
C1238  H1294   1.082   .     S
C1238  C1240   1.417   .     A
C1239  H1295   1.082   .     S
C1239  N1261   1.367   .     A
C1240  H1296   1.082   .     S
C1240  N1262   1.367   .     A
C1241  C1243   1.477   .     S
C1241  O1269   1.298   .     A
C1241  O1123   1.297   1_655 S
C1242  O1270   1.302   .     A
C1242  C1244   1.482   .     S
C1243  C1247   1.417   .     A
C1243  C1249   1.397   .     A
C1244  C1248   1.416   .     A
C1244  C1250   1.402   .     A
C1245  H1279   1.084   .     S
C1245  C1253   1.408   .     A
C1245  C1247   1.396   .     A
C1246  C1248   1.392   .     A
C1246  C1254   1.405   .     A
C1247  O1133   1.378   1_655 S
C1249  C1251   1.406   .     A
C1249  H1260   1.081   .     S
C1250  C1252   1.409   .     A
C1250  H1259   1.080   .     S
C1251  C1253   1.414   .     A
C1251  C1255   1.422   .     A
C1252  C1254   1.417   .     A
C1252  C1256   1.425   .     A
C1253  C581    1.403   1_556 S
C1255  C608    1.418   1_556 S
Cu1257 O1270   1.917   .     S
Cu1257 O1266   1.958   .     S
Cu1257 O1263   1.956   .     S
Cu1257 N1261   2.013   .     S
Cu1257 O1267   1.932   .     S
Cu1258 O1265   1.958   .     S
Cu1258 O1269   1.917   .     S
Cu1258 N1262   2.013   .     S
Cu1258 O1264   1.956   .     S
Cu1258 O1268   1.932   .     S
Cu1258 Cu1113  2.679   1_655 S
O1264  C1082   1.290   1_655 S
O1268  C1098   1.295   1_655 S
O1271  H1272   0.990   .     S
O1273  H1274   0.990   .     S
O1275  H1276   0.991   .     S
O1275  C1104   1.374   1_655 S
O1277  H1278   0.989   .     S
H1280  C1102   1.084   1_655 S
O1281  H1282   0.992   .     S
O1283  H1284   0.992   .     S
O1285  H1286   0.989   .     S
O1287  H1288   0.989   .     S
O1289  H1290   0.989   .     S
O1291  H1292   0.989   .     S
