data_str_m2_o2_o10_pcu_sym.187
_audit_creation_date              2020-01-03
_audit_creation_method            'Materials Studio'
_symmetry_space_group_name_H-M    'P1'
_symmetry_Int_Tables_number       1
_symmetry_cell_setting            triclinic
loop_
_symmetry_equiv_pos_as_xyz
  x,y,z
_cell_length_a                    26.6176
_cell_length_b                    30.3481
_cell_length_c                    27.5802
_cell_angle_alpha                 90.3145
_cell_angle_beta                  97.7076
_cell_angle_gamma                 90.6833
loop_
_atom_site_label
_atom_site_type_symbol
_atom_site_fract_x
_atom_site_fract_y
_atom_site_fract_z
_atom_site_U_iso_or_equiv
_atom_site_adp_type
_atom_site_occupancy
C1     C     0.16616   0.16490   0.24979   0.00000  Uiso   1.00
C2     C     0.16723   0.33496   0.25014   0.00000  Uiso   1.00
C3     C     0.19459   0.21940   0.05689   0.00000  Uiso   1.00
C4     C     0.13235   0.22354   0.44178   0.00000  Uiso   1.00
C5     C     0.19417   0.21979   0.10778   0.00000  Uiso   1.00
C6     C     0.13321   0.22381   0.39093   0.00000  Uiso   1.00
C7     C     0.13664   0.27878   0.10117   0.00000  Uiso   1.00
C8     C     0.20190   0.27442   0.40009   0.00000  Uiso   1.00
C9     C     0.13460   0.27894   0.04968   0.00000  Uiso   1.00
C10    C     0.20351   0.27448   0.45153   0.00000  Uiso   1.00
C11    C     0.16523   0.24942   0.02707   0.00000  Uiso   1.00
C12    C     0.16714   0.24941   0.47287   0.00000  Uiso   1.00
C13    C     0.06812   0.25147   0.23776   0.00000  Uiso   1.00
C14    C     0.26530   0.25086   0.26221   0.00000  Uiso   1.00
C15    C     0.01350   0.25237   0.23048   0.00000  Uiso   1.00
C16    C     0.31987   0.25472   0.26906   0.00000  Uiso   1.00
C17    C     0.19565   0.04807   0.28695   0.00000  Uiso   1.00
C18    C     0.12163   0.45095   0.23410   0.00000  Uiso   1.00
C19    C     0.19692   0.09385   0.28616   0.00000  Uiso   1.00
C20    C     0.12254   0.40515   0.23272   0.00000  Uiso   1.00
C21    C     0.16547   0.11662   0.24951   0.00000  Uiso   1.00
C22    C     0.16734   0.38299   0.25011   0.00000  Uiso   1.00
C23    C     0.13357   0.09244   0.21314   0.00000  Uiso   1.00
C24    C     0.21204   0.40727   0.26634   0.00000  Uiso   1.00
C25    C     0.13505   0.04651   0.21336   0.00000  Uiso   1.00
C26    C     0.21090   0.45317   0.26588   0.00000  Uiso   1.00
C27    C     0.16530   0.02401   0.25040   0.00000  Uiso   1.00
C28    C     0.16578   0.47537   0.25047   0.00000  Uiso   1.00
Cu29   Cu    0.16667   0.25000   0.29822   0.00000  Uiso   1.00
Cu30   Cu    0.16667   0.25001   0.20179   0.00000  Uiso   1.00
H31    H     0.21888   0.03135   0.31626   0.00000  Uiso   1.00
H32    H     0.08621   0.46729   0.22229   0.00000  Uiso   1.00
H33    H     0.11240   0.02820   0.18435   0.00000  Uiso   1.00
H34    H     0.24561   0.47166   0.27680   0.00000  Uiso   1.00
H35    H     0.21778   0.19574   0.04084   0.00000  Uiso   1.00
H36    H     0.10464   0.20316   0.45682   0.00000  Uiso   1.00
H37    H     0.21635   0.19597   0.13015   0.00000  Uiso   1.00
H38    H     0.10671   0.20315   0.36757   0.00000  Uiso   1.00
H39    H     0.11362   0.30133   0.11889   0.00000  Uiso   1.00
H40    H     0.22951   0.29330   0.38349   0.00000  Uiso   1.00
N41    N     0.16667   0.25001   0.12935   0.00000  Uiso   1.00
N42    N     0.16667   0.24999   0.37066   0.00000  Uiso   1.00
O43    O     0.16667   0.18572   0.29072   0.00000  Uiso   1.00
O44    O     0.16666   0.31428   0.20929   0.00000  Uiso   1.00
O45    O     0.16667   0.18573   0.20928   0.00000  Uiso   1.00
O46    O     0.16666   0.31427   0.29072   0.00000  Uiso   1.00
O47    O     0.09161   0.25000   0.28132   0.00000  Uiso   1.00
O48    O     0.24172   0.25000   0.21868   0.00000  Uiso   1.00
O49    O     0.09161   0.25000   0.19989   0.00000  Uiso   1.00
O50    O     0.24172   0.25000   0.30012   0.00000  Uiso   1.00
I51    I     0.31724   0.24993   0.15355   0.00000  Uiso   1.00
I52    I     0.01638   0.26934   0.34420   0.00000  Uiso   1.00
I53    I     0.25047   0.12526   0.34019   0.00000  Uiso   1.00
I54    I     0.05524   0.37160   0.20243   0.00000  Uiso   1.00
S55    S     0.08900   0.11774   0.16854   0.00000  Uiso   1.00
O56    O     0.11640   0.13884   0.13030   0.00000  Uiso   1.00
O57    O     0.05165   0.08433   0.14405   0.00000  Uiso   1.00
O58    O     0.05721   0.15650   0.19515   0.00000  Uiso   1.00
H59    H     0.04219   0.14093   0.22133   0.00000  Uiso   1.00
S60    S     0.27035   0.38134   0.28538   0.00000  Uiso   1.00
O61    O     0.28008   0.34838   0.24710   0.00000  Uiso   1.00
O62    O     0.31341   0.41426   0.29249   0.00000  Uiso   1.00
O63    O     0.26698   0.35525   0.33834   0.00000  Uiso   1.00
H64    H     0.25730   0.37826   0.36082   0.00000  Uiso   1.00
S65    S     0.09271   0.31501   0.01456   0.00000  Uiso   1.00
O66    O     0.05499   0.28806   0.48098   0.00000  Uiso   1.00
O67    O     0.06498   0.34305   0.04712   0.00000  Uiso   1.00
O68    O     0.12551   0.34771   0.48073   0.00000  Uiso   1.00
H69    H     0.09953   0.36161   0.45675   0.00000  Uiso   1.00
S70    S     0.25271   0.30382   0.48810   0.00000  Uiso   1.00
O71    O     0.28794   0.27112   0.01501   0.00000  Uiso   1.00
O72    O     0.28184   0.33224   0.45684   0.00000  Uiso   1.00
O73    O     0.22856   0.33577   0.02905   0.00000  Uiso   1.00
H74    H     0.25804   0.34478   0.05301   0.00000  Uiso   1.00
C75    C     0.49949   0.16490   0.24979   0.00000  Uiso   1.00
C76    C     0.50057   0.33496   0.25014   0.00000  Uiso   1.00
C77    C     0.52792   0.21940   0.05689   0.00000  Uiso   1.00
C78    C     0.46569   0.22354   0.44178   0.00000  Uiso   1.00
C79    C     0.52750   0.21979   0.10778   0.00000  Uiso   1.00
C80    C     0.46655   0.22381   0.39093   0.00000  Uiso   1.00
C81    C     0.46997   0.27878   0.10117   0.00000  Uiso   1.00
C82    C     0.53523   0.27442   0.40009   0.00000  Uiso   1.00
C83    C     0.46794   0.27894   0.04968   0.00000  Uiso   1.00
C84    C     0.53684   0.27448   0.45153   0.00000  Uiso   1.00
C85    C     0.49856   0.24942   0.02707   0.00000  Uiso   1.00
C86    C     0.50047   0.24941   0.47287   0.00000  Uiso   1.00
C87    C     0.40145   0.25147   0.23776   0.00000  Uiso   1.00
C88    C     0.59863   0.25086   0.26221   0.00000  Uiso   1.00
C89    C     0.34684   0.25237   0.23048   0.00000  Uiso   1.00
C90    C     0.65321   0.25472   0.26906   0.00000  Uiso   1.00
C91    C     0.52898   0.04807   0.28695   0.00000  Uiso   1.00
C92    C     0.45496   0.45095   0.23410   0.00000  Uiso   1.00
C93    C     0.53026   0.09385   0.28616   0.00000  Uiso   1.00
C94    C     0.45587   0.40515   0.23272   0.00000  Uiso   1.00
C95    C     0.49880   0.11662   0.24951   0.00000  Uiso   1.00
C96    C     0.50068   0.38299   0.25011   0.00000  Uiso   1.00
C97    C     0.46690   0.09244   0.21314   0.00000  Uiso   1.00
C98    C     0.54538   0.40727   0.26634   0.00000  Uiso   1.00
C99    C     0.46838   0.04651   0.21336   0.00000  Uiso   1.00
C100   C     0.54424   0.45317   0.26588   0.00000  Uiso   1.00
C101   C     0.49863   0.02401   0.25040   0.00000  Uiso   1.00
C102   C     0.49911   0.47537   0.25047   0.00000  Uiso   1.00
Cu103  Cu    0.50000   0.25000   0.29822   0.00000  Uiso   1.00
Cu104  Cu    0.50000   0.25001   0.20179   0.00000  Uiso   1.00
H105   H     0.55221   0.03135   0.31626   0.00000  Uiso   1.00
H106   H     0.41955   0.46729   0.22229   0.00000  Uiso   1.00
H107   H     0.44574   0.02820   0.18435   0.00000  Uiso   1.00
H108   H     0.57894   0.47166   0.27680   0.00000  Uiso   1.00
H109   H     0.55111   0.19574   0.04084   0.00000  Uiso   1.00
H110   H     0.43797   0.20316   0.45682   0.00000  Uiso   1.00
H111   H     0.54968   0.19597   0.13015   0.00000  Uiso   1.00
H112   H     0.44004   0.20315   0.36757   0.00000  Uiso   1.00
H113   H     0.44696   0.30133   0.11889   0.00000  Uiso   1.00
H114   H     0.56284   0.29330   0.38349   0.00000  Uiso   1.00
N115   N     0.50000   0.25001   0.12935   0.00000  Uiso   1.00
N116   N     0.50000   0.24999   0.37066   0.00000  Uiso   1.00
O117   O     0.50000   0.18572   0.29072   0.00000  Uiso   1.00
O118   O     0.50000   0.31428   0.20929   0.00000  Uiso   1.00
O119   O     0.50000   0.18573   0.20928   0.00000  Uiso   1.00
O120   O     0.50000   0.31427   0.29072   0.00000  Uiso   1.00
O121   O     0.42495   0.25000   0.28132   0.00000  Uiso   1.00
O122   O     0.57505   0.25000   0.21868   0.00000  Uiso   1.00
O123   O     0.42495   0.25000   0.19989   0.00000  Uiso   1.00
O124   O     0.57505   0.25000   0.30012   0.00000  Uiso   1.00
I125   I     0.65057   0.24993   0.15355   0.00000  Uiso   1.00
I126   I     0.34972   0.26934   0.34420   0.00000  Uiso   1.00
I127   I     0.58380   0.12526   0.34019   0.00000  Uiso   1.00
I128   I     0.38858   0.37160   0.20243   0.00000  Uiso   1.00
S129   S     0.42233   0.11774   0.16854   0.00000  Uiso   1.00
O130   O     0.44973   0.13884   0.13030   0.00000  Uiso   1.00
O131   O     0.38498   0.08433   0.14405   0.00000  Uiso   1.00
O132   O     0.39054   0.15650   0.19515   0.00000  Uiso   1.00
H133   H     0.37553   0.14093   0.22133   0.00000  Uiso   1.00
S134   S     0.60368   0.38134   0.28538   0.00000  Uiso   1.00
O135   O     0.61342   0.34838   0.24710   0.00000  Uiso   1.00
O136   O     0.64674   0.41426   0.29249   0.00000  Uiso   1.00
O137   O     0.60031   0.35525   0.33834   0.00000  Uiso   1.00
H138   H     0.59063   0.37826   0.36082   0.00000  Uiso   1.00
S139   S     0.42604   0.31501   0.01456   0.00000  Uiso   1.00
O140   O     0.38832   0.28806   0.48098   0.00000  Uiso   1.00
O141   O     0.39831   0.34305   0.04712   0.00000  Uiso   1.00
O142   O     0.45884   0.34771   0.48073   0.00000  Uiso   1.00
H143   H     0.43286   0.36161   0.45675   0.00000  Uiso   1.00
S144   S     0.58605   0.30382   0.48810   0.00000  Uiso   1.00
O145   O     0.62127   0.27112   0.01501   0.00000  Uiso   1.00
O146   O     0.61517   0.33224   0.45684   0.00000  Uiso   1.00
O147   O     0.56189   0.33577   0.02905   0.00000  Uiso   1.00
H148   H     0.59137   0.34478   0.05301   0.00000  Uiso   1.00
C149   C     0.83283   0.16490   0.24979   0.00000  Uiso   1.00
C150   C     0.83390   0.33496   0.25014   0.00000  Uiso   1.00
C151   C     0.86126   0.21940   0.05689   0.00000  Uiso   1.00
C152   C     0.79902   0.22354   0.44178   0.00000  Uiso   1.00
C153   C     0.86084   0.21979   0.10778   0.00000  Uiso   1.00
C154   C     0.79988   0.22381   0.39093   0.00000  Uiso   1.00
C155   C     0.80330   0.27878   0.10117   0.00000  Uiso   1.00
C156   C     0.86856   0.27442   0.40009   0.00000  Uiso   1.00
C157   C     0.80127   0.27894   0.04968   0.00000  Uiso   1.00
C158   C     0.87017   0.27448   0.45153   0.00000  Uiso   1.00
C159   C     0.83189   0.24942   0.02707   0.00000  Uiso   1.00
C160   C     0.83381   0.24941   0.47287   0.00000  Uiso   1.00
C161   C     0.73478   0.25147   0.23776   0.00000  Uiso   1.00
C162   C     0.93196   0.25086   0.26221   0.00000  Uiso   1.00
C163   C     0.68017   0.25237   0.23048   0.00000  Uiso   1.00
C164   C     0.98654   0.25472   0.26906   0.00000  Uiso   1.00
C165   C     0.86231   0.04807   0.28695   0.00000  Uiso   1.00
C166   C     0.78829   0.45095   0.23410   0.00000  Uiso   1.00
C167   C     0.86359   0.09385   0.28616   0.00000  Uiso   1.00
C168   C     0.78920   0.40515   0.23272   0.00000  Uiso   1.00
C169   C     0.83213   0.11662   0.24951   0.00000  Uiso   1.00
C170   C     0.83401   0.38299   0.25011   0.00000  Uiso   1.00
C171   C     0.80023   0.09244   0.21314   0.00000  Uiso   1.00
C172   C     0.87871   0.40727   0.26634   0.00000  Uiso   1.00
C173   C     0.80171   0.04651   0.21336   0.00000  Uiso   1.00
C174   C     0.87757   0.45317   0.26588   0.00000  Uiso   1.00
C175   C     0.83197   0.02401   0.25040   0.00000  Uiso   1.00
C176   C     0.83245   0.47537   0.25047   0.00000  Uiso   1.00
Cu177  Cu    0.83333   0.25000   0.29822   0.00000  Uiso   1.00
Cu178  Cu    0.83333   0.25001   0.20179   0.00000  Uiso   1.00
H179   H     0.88555   0.03135   0.31626   0.00000  Uiso   1.00
H180   H     0.75288   0.46729   0.22229   0.00000  Uiso   1.00
H181   H     0.77907   0.02820   0.18435   0.00000  Uiso   1.00
H182   H     0.91227   0.47166   0.27680   0.00000  Uiso   1.00
H183   H     0.88444   0.19574   0.04084   0.00000  Uiso   1.00
H184   H     0.77131   0.20316   0.45682   0.00000  Uiso   1.00
H185   H     0.88302   0.19597   0.13015   0.00000  Uiso   1.00
H186   H     0.77337   0.20315   0.36757   0.00000  Uiso   1.00
H187   H     0.78029   0.30133   0.11889   0.00000  Uiso   1.00
H188   H     0.89617   0.29330   0.38349   0.00000  Uiso   1.00
N189   N     0.83333   0.25001   0.12935   0.00000  Uiso   1.00
N190   N     0.83333   0.24999   0.37066   0.00000  Uiso   1.00
O191   O     0.83334   0.18572   0.29072   0.00000  Uiso   1.00
O192   O     0.83333   0.31428   0.20929   0.00000  Uiso   1.00
O193   O     0.83334   0.18573   0.20928   0.00000  Uiso   1.00
O194   O     0.83333   0.31427   0.29072   0.00000  Uiso   1.00
O195   O     0.75828   0.25000   0.28132   0.00000  Uiso   1.00
O196   O     0.90839   0.25000   0.21868   0.00000  Uiso   1.00
O197   O     0.75828   0.25000   0.19989   0.00000  Uiso   1.00
O198   O     0.90839   0.25000   0.30012   0.00000  Uiso   1.00
I199   I     0.98390   0.24993   0.15355   0.00000  Uiso   1.00
I200   I     0.68305   0.26934   0.34420   0.00000  Uiso   1.00
I201   I     0.91714   0.12526   0.34019   0.00000  Uiso   1.00
I202   I     0.72191   0.37160   0.20243   0.00000  Uiso   1.00
S203   S     0.75567   0.11774   0.16854   0.00000  Uiso   1.00
O204   O     0.78307   0.13884   0.13030   0.00000  Uiso   1.00
O205   O     0.71832   0.08433   0.14405   0.00000  Uiso   1.00
O206   O     0.72387   0.15650   0.19515   0.00000  Uiso   1.00
H207   H     0.70886   0.14093   0.22133   0.00000  Uiso   1.00
S208   S     0.93701   0.38134   0.28538   0.00000  Uiso   1.00
O209   O     0.94675   0.34838   0.24710   0.00000  Uiso   1.00
O210   O     0.98007   0.41426   0.29249   0.00000  Uiso   1.00
O211   O     0.93364   0.35525   0.33834   0.00000  Uiso   1.00
H212   H     0.92396   0.37826   0.36082   0.00000  Uiso   1.00
S213   S     0.75937   0.31501   0.01456   0.00000  Uiso   1.00
O214   O     0.72165   0.28806   0.48098   0.00000  Uiso   1.00
O215   O     0.73164   0.34305   0.04712   0.00000  Uiso   1.00
O216   O     0.79218   0.34771   0.48073   0.00000  Uiso   1.00
H217   H     0.76619   0.36161   0.45675   0.00000  Uiso   1.00
S218   S     0.91938   0.30382   0.48810   0.00000  Uiso   1.00
O219   O     0.95461   0.27112   0.01501   0.00000  Uiso   1.00
O220   O     0.94851   0.33224   0.45684   0.00000  Uiso   1.00
O221   O     0.89522   0.33577   0.02905   0.00000  Uiso   1.00
H222   H     0.92471   0.34478   0.05301   0.00000  Uiso   1.00
C223   C     0.16616   0.66490   0.24979   0.00000  Uiso   1.00
C224   C     0.16723   0.83496   0.25014   0.00000  Uiso   1.00
C225   C     0.19459   0.71940   0.05689   0.00000  Uiso   1.00
C226   C     0.13235   0.72354   0.44178   0.00000  Uiso   1.00
C227   C     0.19417   0.71979   0.10778   0.00000  Uiso   1.00
C228   C     0.13321   0.72381   0.39093   0.00000  Uiso   1.00
C229   C     0.13664   0.77878   0.10117   0.00000  Uiso   1.00
C230   C     0.20190   0.77442   0.40009   0.00000  Uiso   1.00
C231   C     0.13460   0.77894   0.04968   0.00000  Uiso   1.00
C232   C     0.20351   0.77448   0.45153   0.00000  Uiso   1.00
C233   C     0.16523   0.74942   0.02707   0.00000  Uiso   1.00
C234   C     0.16714   0.74941   0.47287   0.00000  Uiso   1.00
C235   C     0.06812   0.75147   0.23776   0.00000  Uiso   1.00
C236   C     0.26530   0.75086   0.26221   0.00000  Uiso   1.00
C237   C     0.01350   0.75237   0.23048   0.00000  Uiso   1.00
C238   C     0.31987   0.75472   0.26906   0.00000  Uiso   1.00
C239   C     0.19565   0.54807   0.28695   0.00000  Uiso   1.00
C240   C     0.12163   0.95095   0.23410   0.00000  Uiso   1.00
C241   C     0.19692   0.59385   0.28616   0.00000  Uiso   1.00
C242   C     0.12254   0.90515   0.23272   0.00000  Uiso   1.00
C243   C     0.16547   0.61662   0.24951   0.00000  Uiso   1.00
C244   C     0.16734   0.88299   0.25011   0.00000  Uiso   1.00
C245   C     0.13357   0.59244   0.21314   0.00000  Uiso   1.00
C246   C     0.21204   0.90727   0.26634   0.00000  Uiso   1.00
C247   C     0.13505   0.54651   0.21336   0.00000  Uiso   1.00
C248   C     0.21090   0.95317   0.26588   0.00000  Uiso   1.00
C249   C     0.16530   0.52401   0.25040   0.00000  Uiso   1.00
C250   C     0.16578   0.97537   0.25047   0.00000  Uiso   1.00
Cu251  Cu    0.16667   0.75000   0.29822   0.00000  Uiso   1.00
Cu252  Cu    0.16667   0.75001   0.20179   0.00000  Uiso   1.00
H253   H     0.21888   0.53135   0.31626   0.00000  Uiso   1.00
H254   H     0.08621   0.96729   0.22229   0.00000  Uiso   1.00
H255   H     0.11240   0.52820   0.18435   0.00000  Uiso   1.00
H256   H     0.24561   0.97166   0.27680   0.00000  Uiso   1.00
H257   H     0.21778   0.69574   0.04084   0.00000  Uiso   1.00
H258   H     0.10464   0.70316   0.45682   0.00000  Uiso   1.00
H259   H     0.21635   0.69597   0.13015   0.00000  Uiso   1.00
H260   H     0.10671   0.70315   0.36757   0.00000  Uiso   1.00
H261   H     0.11362   0.80133   0.11889   0.00000  Uiso   1.00
H262   H     0.22951   0.79330   0.38349   0.00000  Uiso   1.00
N263   N     0.16667   0.75001   0.12935   0.00000  Uiso   1.00
N264   N     0.16667   0.74999   0.37066   0.00000  Uiso   1.00
O265   O     0.16667   0.68572   0.29072   0.00000  Uiso   1.00
O266   O     0.16666   0.81428   0.20929   0.00000  Uiso   1.00
O267   O     0.16667   0.68573   0.20928   0.00000  Uiso   1.00
O268   O     0.16666   0.81427   0.29072   0.00000  Uiso   1.00
O269   O     0.09161   0.75000   0.28132   0.00000  Uiso   1.00
O270   O     0.24172   0.75000   0.21868   0.00000  Uiso   1.00
O271   O     0.09161   0.75000   0.19989   0.00000  Uiso   1.00
O272   O     0.24172   0.75000   0.30012   0.00000  Uiso   1.00
I273   I     0.31724   0.74993   0.15355   0.00000  Uiso   1.00
I274   I     0.01638   0.76934   0.34420   0.00000  Uiso   1.00
I275   I     0.25047   0.62526   0.34019   0.00000  Uiso   1.00
I276   I     0.05524   0.87160   0.20243   0.00000  Uiso   1.00
S277   S     0.08900   0.61774   0.16854   0.00000  Uiso   1.00
O278   O     0.11640   0.63884   0.13030   0.00000  Uiso   1.00
O279   O     0.05165   0.58433   0.14405   0.00000  Uiso   1.00
O280   O     0.05721   0.65650   0.19515   0.00000  Uiso   1.00
H281   H     0.04219   0.64093   0.22133   0.00000  Uiso   1.00
S282   S     0.27035   0.88134   0.28538   0.00000  Uiso   1.00
O283   O     0.28008   0.84838   0.24710   0.00000  Uiso   1.00
O284   O     0.31341   0.91426   0.29249   0.00000  Uiso   1.00
O285   O     0.26698   0.85525   0.33834   0.00000  Uiso   1.00
H286   H     0.25730   0.87826   0.36082   0.00000  Uiso   1.00
S287   S     0.09271   0.81501   0.01456   0.00000  Uiso   1.00
O288   O     0.05499   0.78806   0.48098   0.00000  Uiso   1.00
O289   O     0.06498   0.84305   0.04712   0.00000  Uiso   1.00
O290   O     0.12551   0.84771   0.48073   0.00000  Uiso   1.00
H291   H     0.09953   0.86161   0.45675   0.00000  Uiso   1.00
S292   S     0.25271   0.80382   0.48810   0.00000  Uiso   1.00
O293   O     0.28794   0.77112   0.01501   0.00000  Uiso   1.00
O294   O     0.28184   0.83224   0.45684   0.00000  Uiso   1.00
O295   O     0.22856   0.83577   0.02905   0.00000  Uiso   1.00
H296   H     0.25804   0.84478   0.05301   0.00000  Uiso   1.00
C297   C     0.49949   0.66490   0.24979   0.00000  Uiso   1.00
C298   C     0.50057   0.83496   0.25014   0.00000  Uiso   1.00
C299   C     0.52792   0.71940   0.05689   0.00000  Uiso   1.00
C300   C     0.46569   0.72354   0.44178   0.00000  Uiso   1.00
C301   C     0.52750   0.71979   0.10778   0.00000  Uiso   1.00
C302   C     0.46655   0.72381   0.39093   0.00000  Uiso   1.00
C303   C     0.46997   0.77878   0.10117   0.00000  Uiso   1.00
C304   C     0.53523   0.77442   0.40009   0.00000  Uiso   1.00
C305   C     0.46794   0.77894   0.04968   0.00000  Uiso   1.00
C306   C     0.53684   0.77448   0.45153   0.00000  Uiso   1.00
C307   C     0.49856   0.74942   0.02707   0.00000  Uiso   1.00
C308   C     0.50047   0.74941   0.47287   0.00000  Uiso   1.00
C309   C     0.40145   0.75147   0.23776   0.00000  Uiso   1.00
C310   C     0.59863   0.75086   0.26221   0.00000  Uiso   1.00
C311   C     0.34684   0.75237   0.23048   0.00000  Uiso   1.00
C312   C     0.65321   0.75472   0.26906   0.00000  Uiso   1.00
C313   C     0.52898   0.54807   0.28695   0.00000  Uiso   1.00
C314   C     0.45496   0.95095   0.23410   0.00000  Uiso   1.00
C315   C     0.53026   0.59385   0.28616   0.00000  Uiso   1.00
C316   C     0.45587   0.90515   0.23272   0.00000  Uiso   1.00
C317   C     0.49880   0.61662   0.24951   0.00000  Uiso   1.00
C318   C     0.50068   0.88299   0.25011   0.00000  Uiso   1.00
C319   C     0.46690   0.59244   0.21314   0.00000  Uiso   1.00
C320   C     0.54538   0.90727   0.26634   0.00000  Uiso   1.00
C321   C     0.46838   0.54651   0.21336   0.00000  Uiso   1.00
C322   C     0.54424   0.95317   0.26588   0.00000  Uiso   1.00
C323   C     0.49863   0.52401   0.25040   0.00000  Uiso   1.00
C324   C     0.49911   0.97537   0.25047   0.00000  Uiso   1.00
Cu325  Cu    0.50000   0.75000   0.29822   0.00000  Uiso   1.00
Cu326  Cu    0.50000   0.75001   0.20179   0.00000  Uiso   1.00
H327   H     0.55221   0.53135   0.31626   0.00000  Uiso   1.00
H328   H     0.41955   0.96729   0.22229   0.00000  Uiso   1.00
H329   H     0.44574   0.52820   0.18435   0.00000  Uiso   1.00
H330   H     0.57894   0.97166   0.27680   0.00000  Uiso   1.00
H331   H     0.55111   0.69574   0.04084   0.00000  Uiso   1.00
H332   H     0.43797   0.70316   0.45682   0.00000  Uiso   1.00
H333   H     0.54968   0.69597   0.13015   0.00000  Uiso   1.00
H334   H     0.44004   0.70315   0.36757   0.00000  Uiso   1.00
H335   H     0.44696   0.80133   0.11889   0.00000  Uiso   1.00
H336   H     0.56284   0.79330   0.38349   0.00000  Uiso   1.00
N337   N     0.50000   0.75001   0.12935   0.00000  Uiso   1.00
N338   N     0.50000   0.74999   0.37066   0.00000  Uiso   1.00
O339   O     0.50000   0.68572   0.29072   0.00000  Uiso   1.00
O340   O     0.50000   0.81428   0.20929   0.00000  Uiso   1.00
O341   O     0.50000   0.68573   0.20928   0.00000  Uiso   1.00
O342   O     0.50000   0.81427   0.29072   0.00000  Uiso   1.00
O343   O     0.42495   0.75000   0.28132   0.00000  Uiso   1.00
O344   O     0.57505   0.75000   0.21868   0.00000  Uiso   1.00
O345   O     0.42495   0.75000   0.19989   0.00000  Uiso   1.00
O346   O     0.57505   0.75000   0.30012   0.00000  Uiso   1.00
I347   I     0.65057   0.74993   0.15355   0.00000  Uiso   1.00
I348   I     0.34972   0.76934   0.34420   0.00000  Uiso   1.00
I349   I     0.58380   0.62526   0.34019   0.00000  Uiso   1.00
I350   I     0.38858   0.87160   0.20243   0.00000  Uiso   1.00
S351   S     0.42233   0.61774   0.16854   0.00000  Uiso   1.00
O352   O     0.44973   0.63884   0.13030   0.00000  Uiso   1.00
O353   O     0.38498   0.58433   0.14405   0.00000  Uiso   1.00
O354   O     0.39054   0.65650   0.19515   0.00000  Uiso   1.00
H355   H     0.37553   0.64093   0.22133   0.00000  Uiso   1.00
S356   S     0.60368   0.88134   0.28538   0.00000  Uiso   1.00
O357   O     0.61342   0.84838   0.24710   0.00000  Uiso   1.00
O358   O     0.64674   0.91426   0.29249   0.00000  Uiso   1.00
O359   O     0.60031   0.85525   0.33834   0.00000  Uiso   1.00
H360   H     0.59063   0.87826   0.36082   0.00000  Uiso   1.00
S361   S     0.42604   0.81501   0.01456   0.00000  Uiso   1.00
O362   O     0.38832   0.78806   0.48098   0.00000  Uiso   1.00
O363   O     0.39831   0.84305   0.04712   0.00000  Uiso   1.00
O364   O     0.45884   0.84771   0.48073   0.00000  Uiso   1.00
H365   H     0.43286   0.86161   0.45675   0.00000  Uiso   1.00
S366   S     0.58605   0.80382   0.48810   0.00000  Uiso   1.00
O367   O     0.62127   0.77112   0.01501   0.00000  Uiso   1.00
O368   O     0.61517   0.83224   0.45684   0.00000  Uiso   1.00
O369   O     0.56189   0.83577   0.02905   0.00000  Uiso   1.00
H370   H     0.59137   0.84478   0.05301   0.00000  Uiso   1.00
C371   C     0.83283   0.66490   0.24979   0.00000  Uiso   1.00
C372   C     0.83390   0.83496   0.25014   0.00000  Uiso   1.00
C373   C     0.86126   0.71940   0.05689   0.00000  Uiso   1.00
C374   C     0.79902   0.72354   0.44178   0.00000  Uiso   1.00
C375   C     0.86084   0.71979   0.10778   0.00000  Uiso   1.00
C376   C     0.79988   0.72381   0.39093   0.00000  Uiso   1.00
C377   C     0.80330   0.77878   0.10117   0.00000  Uiso   1.00
C378   C     0.86856   0.77442   0.40009   0.00000  Uiso   1.00
C379   C     0.80127   0.77894   0.04968   0.00000  Uiso   1.00
C380   C     0.87017   0.77448   0.45153   0.00000  Uiso   1.00
C381   C     0.83189   0.74942   0.02707   0.00000  Uiso   1.00
C382   C     0.83381   0.74941   0.47287   0.00000  Uiso   1.00
C383   C     0.73478   0.75147   0.23776   0.00000  Uiso   1.00
C384   C     0.93196   0.75086   0.26221   0.00000  Uiso   1.00
C385   C     0.68017   0.75237   0.23048   0.00000  Uiso   1.00
C386   C     0.98654   0.75472   0.26906   0.00000  Uiso   1.00
C387   C     0.86231   0.54807   0.28695   0.00000  Uiso   1.00
C388   C     0.78829   0.95095   0.23410   0.00000  Uiso   1.00
C389   C     0.86359   0.59385   0.28616   0.00000  Uiso   1.00
C390   C     0.78920   0.90515   0.23272   0.00000  Uiso   1.00
C391   C     0.83213   0.61662   0.24951   0.00000  Uiso   1.00
C392   C     0.83401   0.88299   0.25011   0.00000  Uiso   1.00
C393   C     0.80023   0.59244   0.21314   0.00000  Uiso   1.00
C394   C     0.87871   0.90727   0.26634   0.00000  Uiso   1.00
C395   C     0.80171   0.54651   0.21336   0.00000  Uiso   1.00
C396   C     0.87757   0.95317   0.26588   0.00000  Uiso   1.00
C397   C     0.83197   0.52401   0.25040   0.00000  Uiso   1.00
C398   C     0.83245   0.97537   0.25047   0.00000  Uiso   1.00
Cu399  Cu    0.83333   0.75000   0.29822   0.00000  Uiso   1.00
Cu400  Cu    0.83333   0.75001   0.20179   0.00000  Uiso   1.00
H401   H     0.88555   0.53135   0.31626   0.00000  Uiso   1.00
H402   H     0.75288   0.96729   0.22229   0.00000  Uiso   1.00
H403   H     0.77907   0.52820   0.18435   0.00000  Uiso   1.00
H404   H     0.91227   0.97166   0.27680   0.00000  Uiso   1.00
H405   H     0.88444   0.69574   0.04084   0.00000  Uiso   1.00
H406   H     0.77131   0.70316   0.45682   0.00000  Uiso   1.00
H407   H     0.88302   0.69597   0.13015   0.00000  Uiso   1.00
H408   H     0.77337   0.70315   0.36757   0.00000  Uiso   1.00
H409   H     0.78029   0.80133   0.11889   0.00000  Uiso   1.00
H410   H     0.89617   0.79330   0.38349   0.00000  Uiso   1.00
N411   N     0.83333   0.75001   0.12935   0.00000  Uiso   1.00
N412   N     0.83333   0.74999   0.37066   0.00000  Uiso   1.00
O413   O     0.83334   0.68572   0.29072   0.00000  Uiso   1.00
O414   O     0.83333   0.81428   0.20929   0.00000  Uiso   1.00
O415   O     0.83334   0.68573   0.20928   0.00000  Uiso   1.00
O416   O     0.83333   0.81427   0.29072   0.00000  Uiso   1.00
O417   O     0.75828   0.75000   0.28132   0.00000  Uiso   1.00
O418   O     0.90839   0.75000   0.21868   0.00000  Uiso   1.00
O419   O     0.75828   0.75000   0.19989   0.00000  Uiso   1.00
O420   O     0.90839   0.75000   0.30012   0.00000  Uiso   1.00
I421   I     0.98390   0.74993   0.15355   0.00000  Uiso   1.00
I422   I     0.68305   0.76934   0.34420   0.00000  Uiso   1.00
I423   I     0.91714   0.62526   0.34019   0.00000  Uiso   1.00
I424   I     0.72191   0.87160   0.20243   0.00000  Uiso   1.00
S425   S     0.75567   0.61774   0.16854   0.00000  Uiso   1.00
O426   O     0.78307   0.63884   0.13030   0.00000  Uiso   1.00
O427   O     0.71832   0.58433   0.14405   0.00000  Uiso   1.00
O428   O     0.72387   0.65650   0.19515   0.00000  Uiso   1.00
H429   H     0.70886   0.64093   0.22133   0.00000  Uiso   1.00
S430   S     0.93701   0.88134   0.28538   0.00000  Uiso   1.00
O431   O     0.94675   0.84838   0.24710   0.00000  Uiso   1.00
O432   O     0.98007   0.91426   0.29249   0.00000  Uiso   1.00
O433   O     0.93364   0.85525   0.33834   0.00000  Uiso   1.00
H434   H     0.92396   0.87826   0.36082   0.00000  Uiso   1.00
S435   S     0.75937   0.81501   0.01456   0.00000  Uiso   1.00
O436   O     0.72165   0.78806   0.48098   0.00000  Uiso   1.00
O437   O     0.73164   0.84305   0.04712   0.00000  Uiso   1.00
O438   O     0.79218   0.84771   0.48073   0.00000  Uiso   1.00
H439   H     0.76619   0.86161   0.45675   0.00000  Uiso   1.00
S440   S     0.91938   0.80382   0.48810   0.00000  Uiso   1.00
O441   O     0.95461   0.77112   0.01501   0.00000  Uiso   1.00
O442   O     0.94851   0.83224   0.45684   0.00000  Uiso   1.00
O443   O     0.89522   0.83577   0.02905   0.00000  Uiso   1.00
H444   H     0.92471   0.84478   0.05301   0.00000  Uiso   1.00
C445   C     0.16616   0.16490   0.74979   0.00000  Uiso   1.00
C446   C     0.16723   0.33496   0.75014   0.00000  Uiso   1.00
C447   C     0.19459   0.21940   0.55689   0.00000  Uiso   1.00
C448   C     0.13235   0.22354   0.94178   0.00000  Uiso   1.00
C449   C     0.19417   0.21979   0.60778   0.00000  Uiso   1.00
C450   C     0.13321   0.22381   0.89093   0.00000  Uiso   1.00
C451   C     0.13664   0.27878   0.60117   0.00000  Uiso   1.00
C452   C     0.20190   0.27442   0.90009   0.00000  Uiso   1.00
C453   C     0.13460   0.27894   0.54968   0.00000  Uiso   1.00
C454   C     0.20351   0.27448   0.95153   0.00000  Uiso   1.00
C455   C     0.16523   0.24942   0.52707   0.00000  Uiso   1.00
C456   C     0.16714   0.24941   0.97287   0.00000  Uiso   1.00
C457   C     0.06812   0.25147   0.73776   0.00000  Uiso   1.00
C458   C     0.26530   0.25086   0.76221   0.00000  Uiso   1.00
C459   C     0.01350   0.25237   0.73048   0.00000  Uiso   1.00
C460   C     0.31987   0.25472   0.76906   0.00000  Uiso   1.00
C461   C     0.19565   0.04807   0.78695   0.00000  Uiso   1.00
C462   C     0.12163   0.45095   0.73410   0.00000  Uiso   1.00
C463   C     0.19692   0.09385   0.78616   0.00000  Uiso   1.00
C464   C     0.12254   0.40515   0.73272   0.00000  Uiso   1.00
C465   C     0.16547   0.11662   0.74951   0.00000  Uiso   1.00
C466   C     0.16734   0.38299   0.75011   0.00000  Uiso   1.00
C467   C     0.13357   0.09244   0.71314   0.00000  Uiso   1.00
C468   C     0.21204   0.40727   0.76634   0.00000  Uiso   1.00
C469   C     0.13505   0.04651   0.71336   0.00000  Uiso   1.00
C470   C     0.21090   0.45317   0.76588   0.00000  Uiso   1.00
C471   C     0.16530   0.02401   0.75040   0.00000  Uiso   1.00
C472   C     0.16578   0.47537   0.75047   0.00000  Uiso   1.00
Cu473  Cu    0.16667   0.25000   0.79822   0.00000  Uiso   1.00
Cu474  Cu    0.16667   0.25001   0.70179   0.00000  Uiso   1.00
H475   H     0.21888   0.03135   0.81626   0.00000  Uiso   1.00
H476   H     0.08621   0.46729   0.72229   0.00000  Uiso   1.00
H477   H     0.11240   0.02820   0.68435   0.00000  Uiso   1.00
H478   H     0.24561   0.47166   0.77680   0.00000  Uiso   1.00
H479   H     0.21778   0.19574   0.54084   0.00000  Uiso   1.00
H480   H     0.10464   0.20316   0.95682   0.00000  Uiso   1.00
H481   H     0.21635   0.19597   0.63015   0.00000  Uiso   1.00
H482   H     0.10671   0.20315   0.86757   0.00000  Uiso   1.00
H483   H     0.11362   0.30133   0.61889   0.00000  Uiso   1.00
H484   H     0.22951   0.29330   0.88349   0.00000  Uiso   1.00
N485   N     0.16667   0.25001   0.62935   0.00000  Uiso   1.00
N486   N     0.16667   0.24999   0.87066   0.00000  Uiso   1.00
O487   O     0.16667   0.18572   0.79072   0.00000  Uiso   1.00
O488   O     0.16666   0.31428   0.70929   0.00000  Uiso   1.00
O489   O     0.16667   0.18573   0.70928   0.00000  Uiso   1.00
O490   O     0.16666   0.31427   0.79072   0.00000  Uiso   1.00
O491   O     0.09161   0.25000   0.78132   0.00000  Uiso   1.00
O492   O     0.24172   0.25000   0.71868   0.00000  Uiso   1.00
O493   O     0.09161   0.25000   0.69989   0.00000  Uiso   1.00
O494   O     0.24172   0.25000   0.80012   0.00000  Uiso   1.00
I495   I     0.31724   0.24993   0.65355   0.00000  Uiso   1.00
I496   I     0.01638   0.26934   0.84420   0.00000  Uiso   1.00
I497   I     0.25047   0.12526   0.84019   0.00000  Uiso   1.00
I498   I     0.05524   0.37160   0.70243   0.00000  Uiso   1.00
S499   S     0.08900   0.11774   0.66854   0.00000  Uiso   1.00
O500   O     0.11640   0.13884   0.63030   0.00000  Uiso   1.00
O501   O     0.05165   0.08433   0.64405   0.00000  Uiso   1.00
O502   O     0.05721   0.15650   0.69515   0.00000  Uiso   1.00
H503   H     0.04219   0.14093   0.72133   0.00000  Uiso   1.00
S504   S     0.27035   0.38134   0.78538   0.00000  Uiso   1.00
O505   O     0.28008   0.34838   0.74710   0.00000  Uiso   1.00
O506   O     0.31341   0.41426   0.79249   0.00000  Uiso   1.00
O507   O     0.26698   0.35525   0.83834   0.00000  Uiso   1.00
H508   H     0.25730   0.37826   0.86082   0.00000  Uiso   1.00
S509   S     0.09271   0.31501   0.51456   0.00000  Uiso   1.00
O510   O     0.05499   0.28806   0.98098   0.00000  Uiso   1.00
O511   O     0.06498   0.34305   0.54712   0.00000  Uiso   1.00
O512   O     0.12551   0.34771   0.98073   0.00000  Uiso   1.00
H513   H     0.09953   0.36161   0.95675   0.00000  Uiso   1.00
S514   S     0.25271   0.30382   0.98810   0.00000  Uiso   1.00
O515   O     0.28794   0.27112   0.51501   0.00000  Uiso   1.00
O516   O     0.28184   0.33224   0.95684   0.00000  Uiso   1.00
O517   O     0.22856   0.33577   0.52905   0.00000  Uiso   1.00
H518   H     0.25804   0.34478   0.55301   0.00000  Uiso   1.00
C519   C     0.49949   0.16490   0.74979   0.00000  Uiso   1.00
C520   C     0.50057   0.33496   0.75014   0.00000  Uiso   1.00
C521   C     0.52792   0.21940   0.55689   0.00000  Uiso   1.00
C522   C     0.46569   0.22354   0.94178   0.00000  Uiso   1.00
C523   C     0.52750   0.21979   0.60778   0.00000  Uiso   1.00
C524   C     0.46655   0.22381   0.89093   0.00000  Uiso   1.00
C525   C     0.46997   0.27878   0.60117   0.00000  Uiso   1.00
C526   C     0.53523   0.27442   0.90009   0.00000  Uiso   1.00
C527   C     0.46794   0.27894   0.54968   0.00000  Uiso   1.00
C528   C     0.53684   0.27448   0.95153   0.00000  Uiso   1.00
C529   C     0.49856   0.24942   0.52707   0.00000  Uiso   1.00
C530   C     0.50047   0.24941   0.97287   0.00000  Uiso   1.00
C531   C     0.40145   0.25147   0.73776   0.00000  Uiso   1.00
C532   C     0.59863   0.25086   0.76221   0.00000  Uiso   1.00
C533   C     0.34684   0.25237   0.73048   0.00000  Uiso   1.00
C534   C     0.65321   0.25472   0.76906   0.00000  Uiso   1.00
C535   C     0.52898   0.04807   0.78695   0.00000  Uiso   1.00
C536   C     0.45496   0.45095   0.73410   0.00000  Uiso   1.00
C537   C     0.53026   0.09385   0.78616   0.00000  Uiso   1.00
C538   C     0.45587   0.40515   0.73272   0.00000  Uiso   1.00
C539   C     0.49880   0.11662   0.74951   0.00000  Uiso   1.00
C540   C     0.50068   0.38299   0.75011   0.00000  Uiso   1.00
C541   C     0.46690   0.09244   0.71314   0.00000  Uiso   1.00
C542   C     0.54538   0.40727   0.76634   0.00000  Uiso   1.00
C543   C     0.46838   0.04651   0.71336   0.00000  Uiso   1.00
C544   C     0.54424   0.45317   0.76588   0.00000  Uiso   1.00
C545   C     0.49863   0.02401   0.75040   0.00000  Uiso   1.00
C546   C     0.49911   0.47537   0.75047   0.00000  Uiso   1.00
Cu547  Cu    0.50000   0.25000   0.79822   0.00000  Uiso   1.00
Cu548  Cu    0.50000   0.25001   0.70179   0.00000  Uiso   1.00
H549   H     0.55221   0.03135   0.81626   0.00000  Uiso   1.00
H550   H     0.41955   0.46729   0.72229   0.00000  Uiso   1.00
H551   H     0.44574   0.02820   0.68435   0.00000  Uiso   1.00
H552   H     0.57894   0.47166   0.77680   0.00000  Uiso   1.00
H553   H     0.55111   0.19574   0.54084   0.00000  Uiso   1.00
H554   H     0.43797   0.20316   0.95682   0.00000  Uiso   1.00
H555   H     0.54968   0.19597   0.63015   0.00000  Uiso   1.00
H556   H     0.44004   0.20315   0.86757   0.00000  Uiso   1.00
H557   H     0.44696   0.30133   0.61889   0.00000  Uiso   1.00
H558   H     0.56284   0.29330   0.88349   0.00000  Uiso   1.00
N559   N     0.50000   0.25001   0.62935   0.00000  Uiso   1.00
N560   N     0.50000   0.24999   0.87066   0.00000  Uiso   1.00
O561   O     0.50000   0.18572   0.79072   0.00000  Uiso   1.00
O562   O     0.50000   0.31428   0.70929   0.00000  Uiso   1.00
O563   O     0.50000   0.18573   0.70928   0.00000  Uiso   1.00
O564   O     0.50000   0.31427   0.79072   0.00000  Uiso   1.00
O565   O     0.42495   0.25000   0.78132   0.00000  Uiso   1.00
O566   O     0.57505   0.25000   0.71868   0.00000  Uiso   1.00
O567   O     0.42495   0.25000   0.69989   0.00000  Uiso   1.00
O568   O     0.57505   0.25000   0.80012   0.00000  Uiso   1.00
I569   I     0.65057   0.24993   0.65355   0.00000  Uiso   1.00
I570   I     0.34972   0.26934   0.84420   0.00000  Uiso   1.00
I571   I     0.58380   0.12526   0.84019   0.00000  Uiso   1.00
I572   I     0.38858   0.37160   0.70243   0.00000  Uiso   1.00
S573   S     0.42233   0.11774   0.66854   0.00000  Uiso   1.00
O574   O     0.44973   0.13884   0.63030   0.00000  Uiso   1.00
O575   O     0.38498   0.08433   0.64405   0.00000  Uiso   1.00
O576   O     0.39054   0.15650   0.69515   0.00000  Uiso   1.00
H577   H     0.37553   0.14093   0.72133   0.00000  Uiso   1.00
S578   S     0.60368   0.38134   0.78538   0.00000  Uiso   1.00
O579   O     0.61342   0.34838   0.74710   0.00000  Uiso   1.00
O580   O     0.64674   0.41426   0.79249   0.00000  Uiso   1.00
O581   O     0.60031   0.35525   0.83834   0.00000  Uiso   1.00
H582   H     0.59063   0.37826   0.86082   0.00000  Uiso   1.00
S583   S     0.42604   0.31501   0.51456   0.00000  Uiso   1.00
O584   O     0.38832   0.28806   0.98098   0.00000  Uiso   1.00
O585   O     0.39831   0.34305   0.54712   0.00000  Uiso   1.00
O586   O     0.45884   0.34771   0.98073   0.00000  Uiso   1.00
H587   H     0.43286   0.36161   0.95675   0.00000  Uiso   1.00
S588   S     0.58605   0.30382   0.98810   0.00000  Uiso   1.00
O589   O     0.62127   0.27112   0.51501   0.00000  Uiso   1.00
O590   O     0.61517   0.33224   0.95684   0.00000  Uiso   1.00
O591   O     0.56189   0.33577   0.52905   0.00000  Uiso   1.00
H592   H     0.59137   0.34478   0.55301   0.00000  Uiso   1.00
C593   C     0.83283   0.16490   0.74979   0.00000  Uiso   1.00
C594   C     0.83390   0.33496   0.75014   0.00000  Uiso   1.00
C595   C     0.86126   0.21940   0.55689   0.00000  Uiso   1.00
C596   C     0.79902   0.22354   0.94178   0.00000  Uiso   1.00
C597   C     0.86084   0.21979   0.60778   0.00000  Uiso   1.00
C598   C     0.79988   0.22381   0.89093   0.00000  Uiso   1.00
C599   C     0.80330   0.27878   0.60117   0.00000  Uiso   1.00
C600   C     0.86856   0.27442   0.90009   0.00000  Uiso   1.00
C601   C     0.80127   0.27894   0.54968   0.00000  Uiso   1.00
C602   C     0.87017   0.27448   0.95153   0.00000  Uiso   1.00
C603   C     0.83189   0.24942   0.52707   0.00000  Uiso   1.00
C604   C     0.83381   0.24941   0.97287   0.00000  Uiso   1.00
C605   C     0.73478   0.25147   0.73776   0.00000  Uiso   1.00
C606   C     0.93196   0.25086   0.76221   0.00000  Uiso   1.00
C607   C     0.68017   0.25237   0.73048   0.00000  Uiso   1.00
C608   C     0.98654   0.25472   0.76906   0.00000  Uiso   1.00
C609   C     0.86231   0.04807   0.78695   0.00000  Uiso   1.00
C610   C     0.78829   0.45095   0.73410   0.00000  Uiso   1.00
C611   C     0.86359   0.09385   0.78616   0.00000  Uiso   1.00
C612   C     0.78920   0.40515   0.73272   0.00000  Uiso   1.00
C613   C     0.83213   0.11662   0.74951   0.00000  Uiso   1.00
C614   C     0.83401   0.38299   0.75011   0.00000  Uiso   1.00
C615   C     0.80023   0.09244   0.71314   0.00000  Uiso   1.00
C616   C     0.87871   0.40727   0.76634   0.00000  Uiso   1.00
C617   C     0.80171   0.04651   0.71336   0.00000  Uiso   1.00
C618   C     0.87757   0.45317   0.76588   0.00000  Uiso   1.00
C619   C     0.83197   0.02401   0.75040   0.00000  Uiso   1.00
C620   C     0.83245   0.47537   0.75047   0.00000  Uiso   1.00
Cu621  Cu    0.83333   0.25000   0.79822   0.00000  Uiso   1.00
Cu622  Cu    0.83333   0.25001   0.70179   0.00000  Uiso   1.00
H623   H     0.88555   0.03135   0.81626   0.00000  Uiso   1.00
H624   H     0.75288   0.46729   0.72229   0.00000  Uiso   1.00
H625   H     0.77907   0.02820   0.68435   0.00000  Uiso   1.00
H626   H     0.91227   0.47166   0.77680   0.00000  Uiso   1.00
H627   H     0.88444   0.19574   0.54084   0.00000  Uiso   1.00
H628   H     0.77131   0.20316   0.95682   0.00000  Uiso   1.00
H629   H     0.88302   0.19597   0.63015   0.00000  Uiso   1.00
H630   H     0.77337   0.20315   0.86757   0.00000  Uiso   1.00
H631   H     0.78029   0.30133   0.61889   0.00000  Uiso   1.00
H632   H     0.89617   0.29330   0.88349   0.00000  Uiso   1.00
N633   N     0.83333   0.25001   0.62935   0.00000  Uiso   1.00
N634   N     0.83333   0.24999   0.87066   0.00000  Uiso   1.00
O635   O     0.83334   0.18572   0.79072   0.00000  Uiso   1.00
O636   O     0.83333   0.31428   0.70929   0.00000  Uiso   1.00
O637   O     0.83334   0.18573   0.70928   0.00000  Uiso   1.00
O638   O     0.83333   0.31427   0.79072   0.00000  Uiso   1.00
O639   O     0.75828   0.25000   0.78132   0.00000  Uiso   1.00
O640   O     0.90839   0.25000   0.71868   0.00000  Uiso   1.00
O641   O     0.75828   0.25000   0.69989   0.00000  Uiso   1.00
O642   O     0.90839   0.25000   0.80012   0.00000  Uiso   1.00
I643   I     0.98390   0.24993   0.65355   0.00000  Uiso   1.00
I644   I     0.68305   0.26934   0.84420   0.00000  Uiso   1.00
I645   I     0.91714   0.12526   0.84019   0.00000  Uiso   1.00
I646   I     0.72191   0.37160   0.70243   0.00000  Uiso   1.00
S647   S     0.75567   0.11774   0.66854   0.00000  Uiso   1.00
O648   O     0.78307   0.13884   0.63030   0.00000  Uiso   1.00
O649   O     0.71832   0.08433   0.64405   0.00000  Uiso   1.00
O650   O     0.72387   0.15650   0.69515   0.00000  Uiso   1.00
H651   H     0.70886   0.14093   0.72133   0.00000  Uiso   1.00
S652   S     0.93701   0.38134   0.78538   0.00000  Uiso   1.00
O653   O     0.94675   0.34838   0.74710   0.00000  Uiso   1.00
O654   O     0.98007   0.41426   0.79249   0.00000  Uiso   1.00
O655   O     0.93364   0.35525   0.83834   0.00000  Uiso   1.00
H656   H     0.92396   0.37826   0.86082   0.00000  Uiso   1.00
S657   S     0.75937   0.31501   0.51456   0.00000  Uiso   1.00
O658   O     0.72165   0.28806   0.98098   0.00000  Uiso   1.00
O659   O     0.73164   0.34305   0.54712   0.00000  Uiso   1.00
O660   O     0.79218   0.34771   0.98073   0.00000  Uiso   1.00
H661   H     0.76619   0.36161   0.95675   0.00000  Uiso   1.00
S662   S     0.91938   0.30382   0.98810   0.00000  Uiso   1.00
O663   O     0.95461   0.27112   0.51501   0.00000  Uiso   1.00
O664   O     0.94851   0.33224   0.95684   0.00000  Uiso   1.00
O665   O     0.89522   0.33577   0.52905   0.00000  Uiso   1.00
H666   H     0.92471   0.34478   0.55301   0.00000  Uiso   1.00
C667   C     0.16616   0.66490   0.74979   0.00000  Uiso   1.00
C668   C     0.16723   0.83496   0.75014   0.00000  Uiso   1.00
C669   C     0.19459   0.71940   0.55689   0.00000  Uiso   1.00
C670   C     0.13235   0.72354   0.94178   0.00000  Uiso   1.00
C671   C     0.19417   0.71979   0.60778   0.00000  Uiso   1.00
C672   C     0.13321   0.72381   0.89093   0.00000  Uiso   1.00
C673   C     0.13664   0.77878   0.60117   0.00000  Uiso   1.00
C674   C     0.20190   0.77442   0.90009   0.00000  Uiso   1.00
C675   C     0.13460   0.77894   0.54968   0.00000  Uiso   1.00
C676   C     0.20351   0.77448   0.95153   0.00000  Uiso   1.00
C677   C     0.16523   0.74942   0.52707   0.00000  Uiso   1.00
C678   C     0.16714   0.74941   0.97287   0.00000  Uiso   1.00
C679   C     0.06812   0.75147   0.73776   0.00000  Uiso   1.00
C680   C     0.26530   0.75086   0.76221   0.00000  Uiso   1.00
C681   C     0.01350   0.75237   0.73048   0.00000  Uiso   1.00
C682   C     0.31987   0.75472   0.76906   0.00000  Uiso   1.00
C683   C     0.19565   0.54807   0.78695   0.00000  Uiso   1.00
C684   C     0.12163   0.95095   0.73410   0.00000  Uiso   1.00
C685   C     0.19692   0.59385   0.78616   0.00000  Uiso   1.00
C686   C     0.12254   0.90515   0.73272   0.00000  Uiso   1.00
C687   C     0.16547   0.61662   0.74951   0.00000  Uiso   1.00
C688   C     0.16734   0.88299   0.75011   0.00000  Uiso   1.00
C689   C     0.13357   0.59244   0.71314   0.00000  Uiso   1.00
C690   C     0.21204   0.90727   0.76634   0.00000  Uiso   1.00
C691   C     0.13505   0.54651   0.71336   0.00000  Uiso   1.00
C692   C     0.21090   0.95317   0.76588   0.00000  Uiso   1.00
C693   C     0.16530   0.52401   0.75040   0.00000  Uiso   1.00
C694   C     0.16578   0.97537   0.75047   0.00000  Uiso   1.00
Cu695  Cu    0.16667   0.75000   0.79822   0.00000  Uiso   1.00
Cu696  Cu    0.16667   0.75001   0.70179   0.00000  Uiso   1.00
H697   H     0.21888   0.53135   0.81626   0.00000  Uiso   1.00
H698   H     0.08621   0.96729   0.72229   0.00000  Uiso   1.00
H699   H     0.11240   0.52820   0.68435   0.00000  Uiso   1.00
H700   H     0.24561   0.97166   0.77680   0.00000  Uiso   1.00
H701   H     0.21778   0.69574   0.54084   0.00000  Uiso   1.00
H702   H     0.10464   0.70316   0.95682   0.00000  Uiso   1.00
H703   H     0.21635   0.69597   0.63015   0.00000  Uiso   1.00
H704   H     0.10671   0.70315   0.86757   0.00000  Uiso   1.00
H705   H     0.11362   0.80133   0.61889   0.00000  Uiso   1.00
H706   H     0.22951   0.79330   0.88349   0.00000  Uiso   1.00
N707   N     0.16667   0.75001   0.62935   0.00000  Uiso   1.00
N708   N     0.16667   0.74999   0.87066   0.00000  Uiso   1.00
O709   O     0.16667   0.68572   0.79072   0.00000  Uiso   1.00
O710   O     0.16666   0.81428   0.70929   0.00000  Uiso   1.00
O711   O     0.16667   0.68573   0.70928   0.00000  Uiso   1.00
O712   O     0.16666   0.81427   0.79072   0.00000  Uiso   1.00
O713   O     0.09161   0.75000   0.78132   0.00000  Uiso   1.00
O714   O     0.24172   0.75000   0.71868   0.00000  Uiso   1.00
O715   O     0.09161   0.75000   0.69989   0.00000  Uiso   1.00
O716   O     0.24172   0.75000   0.80012   0.00000  Uiso   1.00
I717   I     0.31724   0.74993   0.65355   0.00000  Uiso   1.00
I718   I     0.01638   0.76934   0.84420   0.00000  Uiso   1.00
I719   I     0.25047   0.62526   0.84019   0.00000  Uiso   1.00
I720   I     0.05524   0.87160   0.70243   0.00000  Uiso   1.00
S721   S     0.08900   0.61774   0.66854   0.00000  Uiso   1.00
O722   O     0.11640   0.63884   0.63030   0.00000  Uiso   1.00
O723   O     0.05165   0.58433   0.64405   0.00000  Uiso   1.00
O724   O     0.05721   0.65650   0.69515   0.00000  Uiso   1.00
H725   H     0.04219   0.64093   0.72133   0.00000  Uiso   1.00
S726   S     0.27035   0.88134   0.78538   0.00000  Uiso   1.00
O727   O     0.28008   0.84838   0.74710   0.00000  Uiso   1.00
O728   O     0.31341   0.91426   0.79249   0.00000  Uiso   1.00
O729   O     0.26698   0.85525   0.83834   0.00000  Uiso   1.00
H730   H     0.25730   0.87826   0.86082   0.00000  Uiso   1.00
S731   S     0.09271   0.81501   0.51456   0.00000  Uiso   1.00
O732   O     0.05499   0.78806   0.98098   0.00000  Uiso   1.00
O733   O     0.06498   0.84305   0.54712   0.00000  Uiso   1.00
O734   O     0.12551   0.84771   0.98073   0.00000  Uiso   1.00
H735   H     0.09953   0.86161   0.95675   0.00000  Uiso   1.00
S736   S     0.25271   0.80382   0.98810   0.00000  Uiso   1.00
O737   O     0.28794   0.77112   0.51501   0.00000  Uiso   1.00
O738   O     0.28184   0.83224   0.95684   0.00000  Uiso   1.00
O739   O     0.22856   0.83577   0.52905   0.00000  Uiso   1.00
H740   H     0.25804   0.84478   0.55301   0.00000  Uiso   1.00
C741   C     0.49949   0.66490   0.74979   0.00000  Uiso   1.00
C742   C     0.50057   0.83496   0.75014   0.00000  Uiso   1.00
C743   C     0.52792   0.71940   0.55689   0.00000  Uiso   1.00
C744   C     0.46569   0.72354   0.94178   0.00000  Uiso   1.00
C745   C     0.52750   0.71979   0.60778   0.00000  Uiso   1.00
C746   C     0.46655   0.72381   0.89093   0.00000  Uiso   1.00
C747   C     0.46997   0.77878   0.60117   0.00000  Uiso   1.00
C748   C     0.53523   0.77442   0.90009   0.00000  Uiso   1.00
C749   C     0.46794   0.77894   0.54968   0.00000  Uiso   1.00
C750   C     0.53684   0.77448   0.95153   0.00000  Uiso   1.00
C751   C     0.49856   0.74942   0.52707   0.00000  Uiso   1.00
C752   C     0.50047   0.74941   0.97287   0.00000  Uiso   1.00
C753   C     0.40145   0.75147   0.73776   0.00000  Uiso   1.00
C754   C     0.59863   0.75086   0.76221   0.00000  Uiso   1.00
C755   C     0.34684   0.75237   0.73048   0.00000  Uiso   1.00
C756   C     0.65321   0.75472   0.76906   0.00000  Uiso   1.00
C757   C     0.52898   0.54807   0.78695   0.00000  Uiso   1.00
C758   C     0.45496   0.95095   0.73410   0.00000  Uiso   1.00
C759   C     0.53026   0.59385   0.78616   0.00000  Uiso   1.00
C760   C     0.45587   0.90515   0.73272   0.00000  Uiso   1.00
C761   C     0.49880   0.61662   0.74951   0.00000  Uiso   1.00
C762   C     0.50068   0.88299   0.75011   0.00000  Uiso   1.00
C763   C     0.46690   0.59244   0.71314   0.00000  Uiso   1.00
C764   C     0.54538   0.90727   0.76634   0.00000  Uiso   1.00
C765   C     0.46838   0.54651   0.71336   0.00000  Uiso   1.00
C766   C     0.54424   0.95317   0.76588   0.00000  Uiso   1.00
C767   C     0.49863   0.52401   0.75040   0.00000  Uiso   1.00
C768   C     0.49911   0.97537   0.75047   0.00000  Uiso   1.00
Cu769  Cu    0.50000   0.75000   0.79822   0.00000  Uiso   1.00
Cu770  Cu    0.50000   0.75001   0.70179   0.00000  Uiso   1.00
H771   H     0.55221   0.53135   0.81626   0.00000  Uiso   1.00
H772   H     0.41955   0.96729   0.72229   0.00000  Uiso   1.00
H773   H     0.44574   0.52820   0.68435   0.00000  Uiso   1.00
H774   H     0.57894   0.97166   0.77680   0.00000  Uiso   1.00
H775   H     0.55111   0.69574   0.54084   0.00000  Uiso   1.00
H776   H     0.43797   0.70316   0.95682   0.00000  Uiso   1.00
H777   H     0.54968   0.69597   0.63015   0.00000  Uiso   1.00
H778   H     0.44004   0.70315   0.86757   0.00000  Uiso   1.00
H779   H     0.44696   0.80133   0.61889   0.00000  Uiso   1.00
H780   H     0.56284   0.79330   0.88349   0.00000  Uiso   1.00
N781   N     0.50000   0.75001   0.62935   0.00000  Uiso   1.00
N782   N     0.50000   0.74999   0.87066   0.00000  Uiso   1.00
O783   O     0.50000   0.68572   0.79072   0.00000  Uiso   1.00
O784   O     0.50000   0.81428   0.70929   0.00000  Uiso   1.00
O785   O     0.50000   0.68573   0.70928   0.00000  Uiso   1.00
O786   O     0.50000   0.81427   0.79072   0.00000  Uiso   1.00
O787   O     0.42495   0.75000   0.78132   0.00000  Uiso   1.00
O788   O     0.57505   0.75000   0.71868   0.00000  Uiso   1.00
O789   O     0.42495   0.75000   0.69989   0.00000  Uiso   1.00
O790   O     0.57505   0.75000   0.80012   0.00000  Uiso   1.00
I791   I     0.65057   0.74993   0.65355   0.00000  Uiso   1.00
I792   I     0.34972   0.76934   0.84420   0.00000  Uiso   1.00
I793   I     0.58380   0.62526   0.84019   0.00000  Uiso   1.00
I794   I     0.38858   0.87160   0.70243   0.00000  Uiso   1.00
S795   S     0.42233   0.61774   0.66854   0.00000  Uiso   1.00
O796   O     0.44973   0.63884   0.63030   0.00000  Uiso   1.00
O797   O     0.38498   0.58433   0.64405   0.00000  Uiso   1.00
O798   O     0.39054   0.65650   0.69515   0.00000  Uiso   1.00
H799   H     0.37553   0.64093   0.72133   0.00000  Uiso   1.00
S800   S     0.60368   0.88134   0.78538   0.00000  Uiso   1.00
O801   O     0.61342   0.84838   0.74710   0.00000  Uiso   1.00
O802   O     0.64674   0.91426   0.79249   0.00000  Uiso   1.00
O803   O     0.60031   0.85525   0.83834   0.00000  Uiso   1.00
H804   H     0.59063   0.87826   0.86082   0.00000  Uiso   1.00
S805   S     0.42604   0.81501   0.51456   0.00000  Uiso   1.00
O806   O     0.38832   0.78806   0.98098   0.00000  Uiso   1.00
O807   O     0.39831   0.84305   0.54712   0.00000  Uiso   1.00
O808   O     0.45884   0.84771   0.98073   0.00000  Uiso   1.00
H809   H     0.43286   0.86161   0.95675   0.00000  Uiso   1.00
S810   S     0.58605   0.80382   0.98810   0.00000  Uiso   1.00
O811   O     0.62127   0.77112   0.51501   0.00000  Uiso   1.00
O812   O     0.61517   0.83224   0.95684   0.00000  Uiso   1.00
O813   O     0.56189   0.83577   0.52905   0.00000  Uiso   1.00
H814   H     0.59137   0.84478   0.55301   0.00000  Uiso   1.00
C815   C     0.83283   0.66490   0.74979   0.00000  Uiso   1.00
C816   C     0.83390   0.83496   0.75014   0.00000  Uiso   1.00
C817   C     0.86126   0.71940   0.55689   0.00000  Uiso   1.00
C818   C     0.79902   0.72354   0.94178   0.00000  Uiso   1.00
C819   C     0.86084   0.71979   0.60778   0.00000  Uiso   1.00
C820   C     0.79988   0.72381   0.89093   0.00000  Uiso   1.00
C821   C     0.80330   0.77878   0.60117   0.00000  Uiso   1.00
C822   C     0.86856   0.77442   0.90009   0.00000  Uiso   1.00
C823   C     0.80127   0.77894   0.54968   0.00000  Uiso   1.00
C824   C     0.87017   0.77448   0.95153   0.00000  Uiso   1.00
C825   C     0.83189   0.74942   0.52707   0.00000  Uiso   1.00
C826   C     0.83381   0.74941   0.97287   0.00000  Uiso   1.00
C827   C     0.73478   0.75147   0.73776   0.00000  Uiso   1.00
C828   C     0.93196   0.75086   0.76221   0.00000  Uiso   1.00
C829   C     0.68017   0.75237   0.73048   0.00000  Uiso   1.00
C830   C     0.98654   0.75472   0.76906   0.00000  Uiso   1.00
C831   C     0.86231   0.54807   0.78695   0.00000  Uiso   1.00
C832   C     0.78829   0.95095   0.73410   0.00000  Uiso   1.00
C833   C     0.86359   0.59385   0.78616   0.00000  Uiso   1.00
C834   C     0.78920   0.90515   0.73272   0.00000  Uiso   1.00
C835   C     0.83213   0.61662   0.74951   0.00000  Uiso   1.00
C836   C     0.83401   0.88299   0.75011   0.00000  Uiso   1.00
C837   C     0.80023   0.59244   0.71314   0.00000  Uiso   1.00
C838   C     0.87871   0.90727   0.76634   0.00000  Uiso   1.00
C839   C     0.80171   0.54651   0.71336   0.00000  Uiso   1.00
C840   C     0.87757   0.95317   0.76588   0.00000  Uiso   1.00
C841   C     0.83197   0.52401   0.75040   0.00000  Uiso   1.00
C842   C     0.83245   0.97537   0.75047   0.00000  Uiso   1.00
Cu843  Cu    0.83333   0.75000   0.79822   0.00000  Uiso   1.00
Cu844  Cu    0.83333   0.75001   0.70179   0.00000  Uiso   1.00
H845   H     0.88555   0.53135   0.81626   0.00000  Uiso   1.00
H846   H     0.75288   0.96729   0.72229   0.00000  Uiso   1.00
H847   H     0.77907   0.52820   0.68435   0.00000  Uiso   1.00
H848   H     0.91227   0.97166   0.77680   0.00000  Uiso   1.00
H849   H     0.88444   0.69574   0.54084   0.00000  Uiso   1.00
H850   H     0.77131   0.70316   0.95682   0.00000  Uiso   1.00
H851   H     0.88302   0.69597   0.63015   0.00000  Uiso   1.00
H852   H     0.77337   0.70315   0.86757   0.00000  Uiso   1.00
H853   H     0.78029   0.80133   0.61889   0.00000  Uiso   1.00
H854   H     0.89617   0.79330   0.88349   0.00000  Uiso   1.00
N855   N     0.83333   0.75001   0.62935   0.00000  Uiso   1.00
N856   N     0.83333   0.74999   0.87066   0.00000  Uiso   1.00
O857   O     0.83334   0.68572   0.79072   0.00000  Uiso   1.00
O858   O     0.83333   0.81428   0.70929   0.00000  Uiso   1.00
O859   O     0.83334   0.68573   0.70928   0.00000  Uiso   1.00
O860   O     0.83333   0.81427   0.79072   0.00000  Uiso   1.00
O861   O     0.75828   0.75000   0.78132   0.00000  Uiso   1.00
O862   O     0.90839   0.75000   0.71868   0.00000  Uiso   1.00
O863   O     0.75828   0.75000   0.69989   0.00000  Uiso   1.00
O864   O     0.90839   0.75000   0.80012   0.00000  Uiso   1.00
I865   I     0.98390   0.74993   0.65355   0.00000  Uiso   1.00
I866   I     0.68305   0.76934   0.84420   0.00000  Uiso   1.00
I867   I     0.91714   0.62526   0.84019   0.00000  Uiso   1.00
I868   I     0.72191   0.87160   0.70243   0.00000  Uiso   1.00
S869   S     0.75567   0.61774   0.66854   0.00000  Uiso   1.00
O870   O     0.78307   0.63884   0.63030   0.00000  Uiso   1.00
O871   O     0.71832   0.58433   0.64405   0.00000  Uiso   1.00
O872   O     0.72387   0.65650   0.69515   0.00000  Uiso   1.00
H873   H     0.70886   0.64093   0.72133   0.00000  Uiso   1.00
S874   S     0.93701   0.88134   0.78538   0.00000  Uiso   1.00
O875   O     0.94675   0.84838   0.74710   0.00000  Uiso   1.00
O876   O     0.98007   0.91426   0.79249   0.00000  Uiso   1.00
O877   O     0.93364   0.85525   0.83834   0.00000  Uiso   1.00
H878   H     0.92396   0.87826   0.86082   0.00000  Uiso   1.00
S879   S     0.75937   0.81501   0.51456   0.00000  Uiso   1.00
O880   O     0.72165   0.78806   0.98098   0.00000  Uiso   1.00
O881   O     0.73164   0.84305   0.54712   0.00000  Uiso   1.00
O882   O     0.79218   0.84771   0.98073   0.00000  Uiso   1.00
H883   H     0.76619   0.86161   0.95675   0.00000  Uiso   1.00
S884   S     0.91938   0.80382   0.98810   0.00000  Uiso   1.00
O885   O     0.95461   0.77112   0.51501   0.00000  Uiso   1.00
O886   O     0.94851   0.83224   0.95684   0.00000  Uiso   1.00
O887   O     0.89522   0.83577   0.52905   0.00000  Uiso   1.00
H888   H     0.92471   0.84478   0.55301   0.00000  Uiso   1.00
loop_
_geom_bond_atom_site_label_1
_geom_bond_atom_site_label_2
_geom_bond_distance
_geom_bond_site_symmetry_2
_ccdc_geom_bond_type
C1     C21     1.465   .     S
C1     O45     1.288   .     A
C1     O43     1.289   .     A
C2     C22     1.458   .     S
C2     O44     1.285   .     A
C2     O46     1.288   .     A
C3     H35     1.083   .     S
C3     C5      1.405   .     A
C3     C11     1.404   .     A
C4     H36     1.083   .     S
C4     C6      1.406   .     A
C4     C12     1.404   .     A
C5     N41     1.363   .     A
C5     H37     1.081   .     S
C6     N42     1.363   .     A
C6     H38     1.081   .     S
C7     N41     1.365   .     A
C7     C9      1.414   .     A
C7     H39     1.081   .     S
C8     N42     1.364   .     A
C8     H40     1.077   .     S
C8     C10     1.414   .     A
C9     C11     1.416   .     A
C9     S65     1.770   .     S
C10    C12     1.415   .     A
C10    S70     1.770   .     S
C11    C456    1.503   1_554 S
C12    C455    1.503   .     S
C13    C15     1.441   .     S
C13    O49     1.288   .     A
C13    O47     1.279   .     A
C14    O50     1.290   .     A
C14    C16     1.443   .     S
C14    O48     1.278   .     A
C15    C164    1.363   1_455 S
C15    I199    2.162   1_455 S
C16    C89     1.363   .     S
C16    I126    2.159   .     S
C17    C19     1.390   .     A
C17    H31     1.082   .     S
C17    C27     1.400   .     A
C18    H32     1.082   .     S
C18    C28     1.403   .     A
C18    C20     1.391   .     A
C19    I53     2.131   .     S
C19    C21     1.413   .     A
C20    I54     2.119   .     S
C20    C22     1.405   .     A
C21    C23     1.419   .     A
C22    C24     1.411   .     A
C23    S55     1.775   .     S
C23    C25     1.395   .     A
C24    S60     1.766   .     S
C24    C26     1.394   .     A
C25    C27     1.400   .     A
C25    H33     1.082   .     S
C26    C28     1.401   .     A
C26    H34     1.082   .     S
C27    C250    1.476   1_545 S
C28    C249    1.476   .     S
Cu29   N42     1.998   .     S
Cu29   O46     1.963   .     S
Cu29   O43     1.960   .     S
Cu29   Cu30    2.660   .     S
Cu29   O47     1.990   .     S
Cu29   O50     1.991   .     S
Cu30   N41     1.998   .     S
Cu30   O45     1.963   .     S
Cu30   O44     1.960   .     S
Cu30   O49     1.991   .     S
Cu30   O48     1.990   .     S
I51    C89     2.162   .     S
I52    C164    2.159   1_455 S
S55    O56     1.502   .     D
S55    O57     1.504   .     D
S55    O58     1.679   .     S
O58    H59     0.991   .     S
S60    O63     1.678   .     S
S60    O62     1.503   .     D
S60    O61     1.500   .     D
O63    H64     0.990   .     S
S65    O67     1.503   .     D
S65    O510    1.503   1_554 S
S65    O512    1.681   1_554 S
O66    S509    1.503   .     S
O68    H69     0.990   .     S
O68    S509    1.681   .     S
S70    O72     1.503   .     D
S70    O515    1.503   .     S
S70    O517    1.681   .     S
O71    S514    1.503   1_554 S
O73    H74     0.991   .     S
O73    S514    1.681   1_554 S
C75    C95     1.465   .     S
C75    O119    1.288   .     A
C75    O117    1.289   .     A
C76    C96     1.458   .     S
C76    O118    1.285   .     A
C76    O120    1.288   .     A
C77    H109    1.083   .     S
C77    C79     1.405   .     A
C77    C85     1.404   .     A
C78    H110    1.083   .     S
C78    C80     1.406   .     A
C78    C86     1.404   .     A
C79    N115    1.363   .     A
C79    H111    1.081   .     S
C80    N116    1.363   .     A
C80    H112    1.081   .     S
C81    N115    1.365   .     A
C81    C83     1.414   .     A
C81    H113    1.081   .     S
C82    N116    1.364   .     A
C82    H114    1.077   .     S
C82    C84     1.414   .     A
C83    C85     1.416   .     A
C83    S139    1.770   .     S
C84    C86     1.415   .     A
C84    S144    1.770   .     S
C85    C530    1.503   1_554 S
C86    C529    1.503   .     S
C87    C89     1.441   .     S
C87    O123    1.288   .     A
C87    O121    1.279   .     A
C88    O124    1.290   .     A
C88    C90     1.443   .     S
C88    O122    1.278   .     A
C90    C163    1.363   .     S
C90    I200    2.159   .     S
C91    C93     1.390   .     A
C91    H105    1.082   .     S
C91    C101    1.400   .     A
C92    H106    1.082   .     S
C92    C102    1.403   .     A
C92    C94     1.391   .     A
C93    I127    2.131   .     S
C93    C95     1.413   .     A
C94    I128    2.119   .     S
C94    C96     1.405   .     A
C95    C97     1.419   .     A
C96    C98     1.411   .     A
C97    S129    1.775   .     S
C97    C99     1.395   .     A
C98    S134    1.766   .     S
C98    C100    1.394   .     A
C99    C101    1.400   .     A
C99    H107    1.082   .     S
C100   C102    1.401   .     A
C100   H108    1.082   .     S
C101   C324    1.476   1_545 S
C102   C323    1.476   .     S
Cu103  N116    1.998   .     S
Cu103  O120    1.963   .     S
Cu103  O117    1.960   .     S
Cu103  Cu104   2.660   .     S
Cu103  O121    1.990   .     S
Cu103  O124    1.991   .     S
Cu104  N115    1.998   .     S
Cu104  O119    1.963   .     S
Cu104  O118    1.960   .     S
Cu104  O123    1.991   .     S
Cu104  O122    1.990   .     S
I125   C163    2.162   .     S
S129   O130    1.502   .     D
S129   O131    1.504   .     D
S129   O132    1.679   .     S
O132   H133    0.991   .     S
S134   O137    1.678   .     S
S134   O136    1.503   .     D
S134   O135    1.500   .     D
O137   H138    0.990   .     S
S139   O141    1.503   .     D
S139   O584    1.503   1_554 S
S139   O586    1.681   1_554 S
O140   S583    1.503   .     S
O142   H143    0.990   .     S
O142   S583    1.681   .     S
S144   O146    1.503   .     D
S144   O589    1.503   .     S
S144   O591    1.681   .     S
O145   S588    1.503   1_554 S
O147   H148    0.991   .     S
O147   S588    1.681   1_554 S
C149   C169    1.465   .     S
C149   O193    1.288   .     A
C149   O191    1.289   .     A
C150   C170    1.458   .     S
C150   O192    1.285   .     A
C150   O194    1.288   .     A
C151   H183    1.083   .     S
C151   C153    1.405   .     A
C151   C159    1.404   .     A
C152   H184    1.083   .     S
C152   C154    1.406   .     A
C152   C160    1.404   .     A
C153   N189    1.363   .     A
C153   H185    1.081   .     S
C154   N190    1.363   .     A
C154   H186    1.081   .     S
C155   N189    1.365   .     A
C155   C157    1.414   .     A
C155   H187    1.081   .     S
C156   N190    1.364   .     A
C156   H188    1.077   .     S
C156   C158    1.414   .     A
C157   C159    1.416   .     A
C157   S213    1.770   .     S
C158   C160    1.415   .     A
C158   S218    1.770   .     S
C159   C604    1.503   1_554 S
C160   C603    1.503   .     S
C161   C163    1.441   .     S
C161   O197    1.288   .     A
C161   O195    1.279   .     A
C162   O198    1.290   .     A
C162   C164    1.443   .     S
C162   O196    1.278   .     A
C164   C15     1.363   1_655 S
C164   I52     2.159   1_655 S
C165   C167    1.390   .     A
C165   H179    1.082   .     S
C165   C175    1.400   .     A
C166   H180    1.082   .     S
C166   C176    1.403   .     A
C166   C168    1.391   .     A
C167   I201    2.131   .     S
C167   C169    1.413   .     A
C168   I202    2.119   .     S
C168   C170    1.405   .     A
C169   C171    1.419   .     A
C170   C172    1.411   .     A
C171   S203    1.775   .     S
C171   C173    1.395   .     A
C172   S208    1.766   .     S
C172   C174    1.394   .     A
C173   C175    1.400   .     A
C173   H181    1.082   .     S
C174   C176    1.401   .     A
C174   H182    1.082   .     S
C175   C398    1.476   1_545 S
C176   C397    1.476   .     S
Cu177  N190    1.998   .     S
Cu177  O194    1.963   .     S
Cu177  O191    1.960   .     S
Cu177  Cu178   2.660   .     S
Cu177  O195    1.990   .     S
Cu177  O198    1.991   .     S
Cu178  N189    1.998   .     S
Cu178  O193    1.963   .     S
Cu178  O192    1.960   .     S
Cu178  O197    1.991   .     S
Cu178  O196    1.990   .     S
I199   C15     2.162   1_655 S
S203   O204    1.502   .     D
S203   O205    1.504   .     D
S203   O206    1.679   .     S
O206   H207    0.991   .     S
S208   O211    1.678   .     S
S208   O210    1.503   .     D
S208   O209    1.500   .     D
O211   H212    0.990   .     S
S213   O215    1.503   .     D
S213   O658    1.503   1_554 S
S213   O660    1.681   1_554 S
O214   S657    1.503   .     S
O216   H217    0.990   .     S
O216   S657    1.681   .     S
S218   O220    1.503   .     D
S218   O663    1.503   .     S
S218   O665    1.681   .     S
O219   S662    1.503   1_554 S
O221   H222    0.991   .     S
O221   S662    1.681   1_554 S
C223   C243    1.465   .     S
C223   O267    1.288   .     A
C223   O265    1.289   .     A
C224   C244    1.458   .     S
C224   O266    1.285   .     A
C224   O268    1.288   .     A
C225   H257    1.083   .     S
C225   C227    1.405   .     A
C225   C233    1.404   .     A
C226   H258    1.083   .     S
C226   C228    1.406   .     A
C226   C234    1.404   .     A
C227   N263    1.363   .     A
C227   H259    1.081   .     S
C228   N264    1.363   .     A
C228   H260    1.081   .     S
C229   N263    1.365   .     A
C229   C231    1.414   .     A
C229   H261    1.081   .     S
C230   N264    1.364   .     A
C230   H262    1.077   .     S
C230   C232    1.414   .     A
C231   C233    1.416   .     A
C231   S287    1.770   .     S
C232   C234    1.415   .     A
C232   S292    1.770   .     S
C233   C678    1.503   1_554 S
C234   C677    1.503   .     S
C235   C237    1.441   .     S
C235   O271    1.288   .     A
C235   O269    1.279   .     A
C236   O272    1.290   .     A
C236   C238    1.443   .     S
C236   O270    1.278   .     A
C237   C386    1.363   1_455 S
C237   I421    2.162   1_455 S
C238   C311    1.363   .     S
C238   I348    2.159   .     S
C239   C241    1.390   .     A
C239   H253    1.082   .     S
C239   C249    1.400   .     A
C240   H254    1.082   .     S
C240   C250    1.403   .     A
C240   C242    1.391   .     A
C241   I275    2.131   .     S
C241   C243    1.413   .     A
C242   I276    2.119   .     S
C242   C244    1.405   .     A
C243   C245    1.419   .     A
C244   C246    1.411   .     A
C245   S277    1.775   .     S
C245   C247    1.395   .     A
C246   S282    1.766   .     S
C246   C248    1.394   .     A
C247   C249    1.400   .     A
C247   H255    1.082   .     S
C248   C250    1.401   .     A
C248   H256    1.082   .     S
C250   C27     1.476   1_565 S
Cu251  N264    1.998   .     S
Cu251  O268    1.963   .     S
Cu251  O265    1.960   .     S
Cu251  Cu252   2.660   .     S
Cu251  O269    1.990   .     S
Cu251  O272    1.991   .     S
Cu252  N263    1.998   .     S
Cu252  O267    1.963   .     S
Cu252  O266    1.960   .     S
Cu252  O271    1.991   .     S
Cu252  O270    1.990   .     S
I273   C311    2.162   .     S
I274   C386    2.159   1_455 S
S277   O278    1.502   .     D
S277   O279    1.504   .     D
S277   O280    1.679   .     S
O280   H281    0.991   .     S
S282   O285    1.678   .     S
S282   O284    1.503   .     D
S282   O283    1.500   .     D
O285   H286    0.990   .     S
S287   O289    1.503   .     D
S287   O732    1.503   1_554 S
S287   O734    1.681   1_554 S
O288   S731    1.503   .     S
O290   H291    0.990   .     S
O290   S731    1.681   .     S
S292   O294    1.503   .     D
S292   O737    1.503   .     S
S292   O739    1.681   .     S
O293   S736    1.503   1_554 S
O295   H296    0.991   .     S
O295   S736    1.681   1_554 S
C297   C317    1.465   .     S
C297   O341    1.288   .     A
C297   O339    1.289   .     A
C298   C318    1.458   .     S
C298   O340    1.285   .     A
C298   O342    1.288   .     A
C299   H331    1.083   .     S
C299   C301    1.405   .     A
C299   C307    1.404   .     A
C300   H332    1.083   .     S
C300   C302    1.406   .     A
C300   C308    1.404   .     A
C301   N337    1.363   .     A
C301   H333    1.081   .     S
C302   N338    1.363   .     A
C302   H334    1.081   .     S
C303   N337    1.365   .     A
C303   C305    1.414   .     A
C303   H335    1.081   .     S
C304   N338    1.364   .     A
C304   H336    1.077   .     S
C304   C306    1.414   .     A
C305   C307    1.416   .     A
C305   S361    1.770   .     S
C306   C308    1.415   .     A
C306   S366    1.770   .     S
C307   C752    1.503   1_554 S
C308   C751    1.503   .     S
C309   C311    1.441   .     S
C309   O345    1.288   .     A
C309   O343    1.279   .     A
C310   O346    1.290   .     A
C310   C312    1.443   .     S
C310   O344    1.278   .     A
C312   C385    1.363   .     S
C312   I422    2.159   .     S
C313   C315    1.390   .     A
C313   H327    1.082   .     S
C313   C323    1.400   .     A
C314   H328    1.082   .     S
C314   C324    1.403   .     A
C314   C316    1.391   .     A
C315   I349    2.131   .     S
C315   C317    1.413   .     A
C316   I350    2.119   .     S
C316   C318    1.405   .     A
C317   C319    1.419   .     A
C318   C320    1.411   .     A
C319   S351    1.775   .     S
C319   C321    1.395   .     A
C320   S356    1.766   .     S
C320   C322    1.394   .     A
C321   C323    1.400   .     A
C321   H329    1.082   .     S
C322   C324    1.401   .     A
C322   H330    1.082   .     S
C324   C101    1.476   1_565 S
Cu325  N338    1.998   .     S
Cu325  O342    1.963   .     S
Cu325  O339    1.960   .     S
Cu325  Cu326   2.660   .     S
Cu325  O343    1.990   .     S
Cu325  O346    1.991   .     S
Cu326  N337    1.998   .     S
Cu326  O341    1.963   .     S
Cu326  O340    1.960   .     S
Cu326  O345    1.991   .     S
Cu326  O344    1.990   .     S
I347   C385    2.162   .     S
S351   O352    1.502   .     D
S351   O353    1.504   .     D
S351   O354    1.679   .     S
O354   H355    0.991   .     S
S356   O359    1.678   .     S
S356   O358    1.503   .     D
S356   O357    1.500   .     D
O359   H360    0.990   .     S
S361   O363    1.503   .     D
S361   O806    1.503   1_554 S
S361   O808    1.681   1_554 S
O362   S805    1.503   .     S
O364   H365    0.990   .     S
O364   S805    1.681   .     S
S366   O368    1.503   .     D
S366   O811    1.503   .     S
S366   O813    1.681   .     S
O367   S810    1.503   1_554 S
O369   H370    0.991   .     S
O369   S810    1.681   1_554 S
C371   C391    1.465   .     S
C371   O415    1.288   .     A
C371   O413    1.289   .     A
C372   C392    1.458   .     S
C372   O414    1.285   .     A
C372   O416    1.288   .     A
C373   H405    1.083   .     S
C373   C375    1.405   .     A
C373   C381    1.404   .     A
C374   H406    1.083   .     S
C374   C376    1.406   .     A
C374   C382    1.404   .     A
C375   N411    1.363   .     A
C375   H407    1.081   .     S
C376   N412    1.363   .     A
C376   H408    1.081   .     S
C377   N411    1.365   .     A
C377   C379    1.414   .     A
C377   H409    1.081   .     S
C378   N412    1.364   .     A
C378   H410    1.077   .     S
C378   C380    1.414   .     A
C379   C381    1.416   .     A
C379   S435    1.770   .     S
C380   C382    1.415   .     A
C380   S440    1.770   .     S
C381   C826    1.503   1_554 S
C382   C825    1.503   .     S
C383   C385    1.441   .     S
C383   O419    1.288   .     A
C383   O417    1.279   .     A
C384   O420    1.290   .     A
C384   C386    1.443   .     S
C384   O418    1.278   .     A
C386   C237    1.363   1_655 S
C386   I274    2.159   1_655 S
C387   C389    1.390   .     A
C387   H401    1.082   .     S
C387   C397    1.400   .     A
C388   H402    1.082   .     S
C388   C398    1.403   .     A
C388   C390    1.391   .     A
C389   I423    2.131   .     S
C389   C391    1.413   .     A
C390   I424    2.119   .     S
C390   C392    1.405   .     A
C391   C393    1.419   .     A
C392   C394    1.411   .     A
C393   S425    1.775   .     S
C393   C395    1.395   .     A
C394   S430    1.766   .     S
C394   C396    1.394   .     A
C395   C397    1.400   .     A
C395   H403    1.082   .     S
C396   C398    1.401   .     A
C396   H404    1.082   .     S
C398   C175    1.476   1_565 S
Cu399  N412    1.998   .     S
Cu399  O416    1.963   .     S
Cu399  O413    1.960   .     S
Cu399  Cu400   2.660   .     S
Cu399  O417    1.990   .     S
Cu399  O420    1.991   .     S
Cu400  N411    1.998   .     S
Cu400  O415    1.963   .     S
Cu400  O414    1.960   .     S
Cu400  O419    1.991   .     S
Cu400  O418    1.990   .     S
I421   C237    2.162   1_655 S
S425   O426    1.502   .     D
S425   O427    1.504   .     D
S425   O428    1.679   .     S
O428   H429    0.991   .     S
S430   O433    1.678   .     S
S430   O432    1.503   .     D
S430   O431    1.500   .     D
O433   H434    0.990   .     S
S435   O437    1.503   .     D
S435   O880    1.503   1_554 S
S435   O882    1.681   1_554 S
O436   S879    1.503   .     S
O438   H439    0.990   .     S
O438   S879    1.681   .     S
S440   O442    1.503   .     D
S440   O885    1.503   .     S
S440   O887    1.681   .     S
O441   S884    1.503   1_554 S
O443   H444    0.991   .     S
O443   S884    1.681   1_554 S
C445   C465    1.465   .     S
C445   O489    1.288   .     A
C445   O487    1.289   .     A
C446   C466    1.458   .     S
C446   O488    1.285   .     A
C446   O490    1.288   .     A
C447   H479    1.083   .     S
C447   C449    1.405   .     A
C447   C455    1.404   .     A
C448   H480    1.083   .     S
C448   C450    1.406   .     A
C448   C456    1.404   .     A
C449   N485    1.363   .     A
C449   H481    1.081   .     S
C450   N486    1.363   .     A
C450   H482    1.081   .     S
C451   N485    1.365   .     A
C451   C453    1.414   .     A
C451   H483    1.081   .     S
C452   N486    1.364   .     A
C452   H484    1.077   .     S
C452   C454    1.414   .     A
C453   C455    1.416   .     A
C453   S509    1.770   .     S
C454   C456    1.415   .     A
C454   S514    1.770   .     S
C456   C11     1.503   1_556 S
C457   C459    1.441   .     S
C457   O493    1.288   .     A
C457   O491    1.279   .     A
C458   O494    1.290   .     A
C458   C460    1.443   .     S
C458   O492    1.278   .     A
C459   C608    1.363   1_455 S
C459   I643    2.162   1_455 S
C460   C533    1.363   .     S
C460   I570    2.159   .     S
C461   C463    1.390   .     A
C461   H475    1.082   .     S
C461   C471    1.400   .     A
C462   H476    1.082   .     S
C462   C472    1.403   .     A
C462   C464    1.391   .     A
C463   I497    2.131   .     S
C463   C465    1.413   .     A
C464   I498    2.119   .     S
C464   C466    1.405   .     A
C465   C467    1.419   .     A
C466   C468    1.411   .     A
C467   S499    1.775   .     S
C467   C469    1.395   .     A
C468   S504    1.766   .     S
C468   C470    1.394   .     A
C469   C471    1.400   .     A
C469   H477    1.082   .     S
C470   C472    1.401   .     A
C470   H478    1.082   .     S
C471   C694    1.476   1_545 S
C472   C693    1.476   .     S
Cu473  N486    1.998   .     S
Cu473  O490    1.963   .     S
Cu473  O487    1.960   .     S
Cu473  Cu474   2.660   .     S
Cu473  O491    1.990   .     S
Cu473  O494    1.991   .     S
Cu474  N485    1.998   .     S
Cu474  O489    1.963   .     S
Cu474  O488    1.960   .     S
Cu474  O493    1.991   .     S
Cu474  O492    1.990   .     S
I495   C533    2.162   .     S
I496   C608    2.159   1_455 S
S499   O500    1.502   .     D
S499   O501    1.504   .     D
S499   O502    1.679   .     S
O502   H503    0.991   .     S
S504   O507    1.678   .     S
S504   O506    1.503   .     D
S504   O505    1.500   .     D
O507   H508    0.990   .     S
S509   O511    1.503   .     D
O510   S65     1.503   1_556 S
O512   H513    0.990   .     S
O512   S65     1.681   1_556 S
S514   O516    1.503   .     D
S514   O71     1.503   1_556 S
S514   O73     1.681   1_556 S
O517   H518    0.991   .     S
C519   C539    1.465   .     S
C519   O563    1.288   .     A
C519   O561    1.289   .     A
C520   C540    1.458   .     S
C520   O562    1.285   .     A
C520   O564    1.288   .     A
C521   H553    1.083   .     S
C521   C523    1.405   .     A
C521   C529    1.404   .     A
C522   H554    1.083   .     S
C522   C524    1.406   .     A
C522   C530    1.404   .     A
C523   N559    1.363   .     A
C523   H555    1.081   .     S
C524   N560    1.363   .     A
C524   H556    1.081   .     S
C525   N559    1.365   .     A
C525   C527    1.414   .     A
C525   H557    1.081   .     S
C526   N560    1.364   .     A
C526   H558    1.077   .     S
C526   C528    1.414   .     A
C527   C529    1.416   .     A
C527   S583    1.770   .     S
C528   C530    1.415   .     A
C528   S588    1.770   .     S
C530   C85     1.503   1_556 S
C531   C533    1.441   .     S
C531   O567    1.288   .     A
C531   O565    1.279   .     A
C532   O568    1.290   .     A
C532   C534    1.443   .     S
C532   O566    1.278   .     A
C534   C607    1.363   .     S
C534   I644    2.159   .     S
C535   C537    1.390   .     A
C535   H549    1.082   .     S
C535   C545    1.400   .     A
C536   H550    1.082   .     S
C536   C546    1.403   .     A
C536   C538    1.391   .     A
C537   I571    2.131   .     S
C537   C539    1.413   .     A
C538   I572    2.119   .     S
C538   C540    1.405   .     A
C539   C541    1.419   .     A
C540   C542    1.411   .     A
C541   S573    1.775   .     S
C541   C543    1.395   .     A
C542   S578    1.766   .     S
C542   C544    1.394   .     A
C543   C545    1.400   .     A
C543   H551    1.082   .     S
C544   C546    1.401   .     A
C544   H552    1.082   .     S
C545   C768    1.476   1_545 S
C546   C767    1.476   .     S
Cu547  N560    1.998   .     S
Cu547  O564    1.963   .     S
Cu547  O561    1.960   .     S
Cu547  Cu548   2.660   .     S
Cu547  O565    1.990   .     S
Cu547  O568    1.991   .     S
Cu548  N559    1.998   .     S
Cu548  O563    1.963   .     S
Cu548  O562    1.960   .     S
Cu548  O567    1.991   .     S
Cu548  O566    1.990   .     S
I569   C607    2.162   .     S
S573   O574    1.502   .     D
S573   O575    1.504   .     D
S573   O576    1.679   .     S
O576   H577    0.991   .     S
S578   O581    1.678   .     S
S578   O580    1.503   .     D
S578   O579    1.500   .     D
O581   H582    0.990   .     S
S583   O585    1.503   .     D
O584   S139    1.503   1_556 S
O586   H587    0.990   .     S
O586   S139    1.681   1_556 S
S588   O590    1.503   .     D
S588   O145    1.503   1_556 S
S588   O147    1.681   1_556 S
O591   H592    0.991   .     S
C593   C613    1.465   .     S
C593   O637    1.288   .     A
C593   O635    1.289   .     A
C594   C614    1.458   .     S
C594   O636    1.285   .     A
C594   O638    1.288   .     A
C595   H627    1.083   .     S
C595   C597    1.405   .     A
C595   C603    1.404   .     A
C596   H628    1.083   .     S
C596   C598    1.406   .     A
C596   C604    1.404   .     A
C597   N633    1.363   .     A
C597   H629    1.081   .     S
C598   N634    1.363   .     A
C598   H630    1.081   .     S
C599   N633    1.365   .     A
C599   C601    1.414   .     A
C599   H631    1.081   .     S
C600   N634    1.364   .     A
C600   H632    1.077   .     S
C600   C602    1.414   .     A
C601   C603    1.416   .     A
C601   S657    1.770   .     S
C602   C604    1.415   .     A
C602   S662    1.770   .     S
C604   C159    1.503   1_556 S
C605   C607    1.441   .     S
C605   O641    1.288   .     A
C605   O639    1.279   .     A
C606   O642    1.290   .     A
C606   C608    1.443   .     S
C606   O640    1.278   .     A
C608   C459    1.363   1_655 S
C608   I496    2.159   1_655 S
C609   C611    1.390   .     A
C609   H623    1.082   .     S
C609   C619    1.400   .     A
C610   H624    1.082   .     S
C610   C620    1.403   .     A
C610   C612    1.391   .     A
C611   I645    2.131   .     S
C611   C613    1.413   .     A
C612   I646    2.119   .     S
C612   C614    1.405   .     A
C613   C615    1.419   .     A
C614   C616    1.411   .     A
C615   S647    1.775   .     S
C615   C617    1.395   .     A
C616   S652    1.766   .     S
C616   C618    1.394   .     A
C617   C619    1.400   .     A
C617   H625    1.082   .     S
C618   C620    1.401   .     A
C618   H626    1.082   .     S
C619   C842    1.476   1_545 S
C620   C841    1.476   .     S
Cu621  N634    1.998   .     S
Cu621  O638    1.963   .     S
Cu621  O635    1.960   .     S
Cu621  Cu622   2.660   .     S
Cu621  O639    1.990   .     S
Cu621  O642    1.991   .     S
Cu622  N633    1.998   .     S
Cu622  O637    1.963   .     S
Cu622  O636    1.960   .     S
Cu622  O641    1.991   .     S
Cu622  O640    1.990   .     S
I643   C459    2.162   1_655 S
S647   O648    1.502   .     D
S647   O649    1.504   .     D
S647   O650    1.679   .     S
O650   H651    0.991   .     S
S652   O655    1.678   .     S
S652   O654    1.503   .     D
S652   O653    1.500   .     D
O655   H656    0.990   .     S
S657   O659    1.503   .     D
O658   S213    1.503   1_556 S
O660   H661    0.990   .     S
O660   S213    1.681   1_556 S
S662   O664    1.503   .     D
S662   O219    1.503   1_556 S
S662   O221    1.681   1_556 S
O665   H666    0.991   .     S
C667   C687    1.465   .     S
C667   O711    1.288   .     A
C667   O709    1.289   .     A
C668   C688    1.458   .     S
C668   O710    1.285   .     A
C668   O712    1.288   .     A
C669   H701    1.083   .     S
C669   C671    1.405   .     A
C669   C677    1.404   .     A
C670   H702    1.083   .     S
C670   C672    1.406   .     A
C670   C678    1.404   .     A
C671   N707    1.363   .     A
C671   H703    1.081   .     S
C672   N708    1.363   .     A
C672   H704    1.081   .     S
C673   N707    1.365   .     A
C673   C675    1.414   .     A
C673   H705    1.081   .     S
C674   N708    1.364   .     A
C674   H706    1.077   .     S
C674   C676    1.414   .     A
C675   C677    1.416   .     A
C675   S731    1.770   .     S
C676   C678    1.415   .     A
C676   S736    1.770   .     S
C678   C233    1.503   1_556 S
C679   C681    1.441   .     S
C679   O715    1.288   .     A
C679   O713    1.279   .     A
C680   O716    1.290   .     A
C680   C682    1.443   .     S
C680   O714    1.278   .     A
C681   C830    1.363   1_455 S
C681   I865    2.162   1_455 S
C682   C755    1.363   .     S
C682   I792    2.159   .     S
C683   C685    1.390   .     A
C683   H697    1.082   .     S
C683   C693    1.400   .     A
C684   H698    1.082   .     S
C684   C694    1.403   .     A
C684   C686    1.391   .     A
C685   I719    2.131   .     S
C685   C687    1.413   .     A
C686   I720    2.119   .     S
C686   C688    1.405   .     A
C687   C689    1.419   .     A
C688   C690    1.411   .     A
C689   S721    1.775   .     S
C689   C691    1.395   .     A
C690   S726    1.766   .     S
C690   C692    1.394   .     A
C691   C693    1.400   .     A
C691   H699    1.082   .     S
C692   C694    1.401   .     A
C692   H700    1.082   .     S
C694   C471    1.476   1_565 S
Cu695  N708    1.998   .     S
Cu695  O712    1.963   .     S
Cu695  O709    1.960   .     S
Cu695  Cu696   2.660   .     S
Cu695  O713    1.990   .     S
Cu695  O716    1.991   .     S
Cu696  N707    1.998   .     S
Cu696  O711    1.963   .     S
Cu696  O710    1.960   .     S
Cu696  O715    1.991   .     S
Cu696  O714    1.990   .     S
I717   C755    2.162   .     S
I718   C830    2.159   1_455 S
S721   O722    1.502   .     D
S721   O723    1.504   .     D
S721   O724    1.679   .     S
O724   H725    0.991   .     S
S726   O729    1.678   .     S
S726   O728    1.503   .     D
S726   O727    1.500   .     D
O729   H730    0.990   .     S
S731   O733    1.503   .     D
O732   S287    1.503   1_556 S
O734   H735    0.990   .     S
O734   S287    1.681   1_556 S
S736   O738    1.503   .     D
S736   O293    1.503   1_556 S
S736   O295    1.681   1_556 S
O739   H740    0.991   .     S
C741   C761    1.465   .     S
C741   O785    1.288   .     A
C741   O783    1.289   .     A
C742   C762    1.458   .     S
C742   O784    1.285   .     A
C742   O786    1.288   .     A
C743   H775    1.083   .     S
C743   C745    1.405   .     A
C743   C751    1.404   .     A
C744   H776    1.083   .     S
C744   C746    1.406   .     A
C744   C752    1.404   .     A
C745   N781    1.363   .     A
C745   H777    1.081   .     S
C746   N782    1.363   .     A
C746   H778    1.081   .     S
C747   N781    1.365   .     A
C747   C749    1.414   .     A
C747   H779    1.081   .     S
C748   N782    1.364   .     A
C748   H780    1.077   .     S
C748   C750    1.414   .     A
C749   C751    1.416   .     A
C749   S805    1.770   .     S
C750   C752    1.415   .     A
C750   S810    1.770   .     S
C752   C307    1.503   1_556 S
C753   C755    1.441   .     S
C753   O789    1.288   .     A
C753   O787    1.279   .     A
C754   O790    1.290   .     A
C754   C756    1.443   .     S
C754   O788    1.278   .     A
C756   C829    1.363   .     S
C756   I866    2.159   .     S
C757   C759    1.390   .     A
C757   H771    1.082   .     S
C757   C767    1.400   .     A
C758   H772    1.082   .     S
C758   C768    1.403   .     A
C758   C760    1.391   .     A
C759   I793    2.131   .     S
C759   C761    1.413   .     A
C760   I794    2.119   .     S
C760   C762    1.405   .     A
C761   C763    1.419   .     A
C762   C764    1.411   .     A
C763   S795    1.775   .     S
C763   C765    1.395   .     A
C764   S800    1.766   .     S
C764   C766    1.394   .     A
C765   C767    1.400   .     A
C765   H773    1.082   .     S
C766   C768    1.401   .     A
C766   H774    1.082   .     S
C768   C545    1.476   1_565 S
Cu769  N782    1.998   .     S
Cu769  O786    1.963   .     S
Cu769  O783    1.960   .     S
Cu769  Cu770   2.660   .     S
Cu769  O787    1.990   .     S
Cu769  O790    1.991   .     S
Cu770  N781    1.998   .     S
Cu770  O785    1.963   .     S
Cu770  O784    1.960   .     S
Cu770  O789    1.991   .     S
Cu770  O788    1.990   .     S
I791   C829    2.162   .     S
S795   O796    1.502   .     D
S795   O797    1.504   .     D
S795   O798    1.679   .     S
O798   H799    0.991   .     S
S800   O803    1.678   .     S
S800   O802    1.503   .     D
S800   O801    1.500   .     D
O803   H804    0.990   .     S
S805   O807    1.503   .     D
O806   S361    1.503   1_556 S
O808   H809    0.990   .     S
O808   S361    1.681   1_556 S
S810   O812    1.503   .     D
S810   O367    1.503   1_556 S
S810   O369    1.681   1_556 S
O813   H814    0.991   .     S
C815   C835    1.465   .     S
C815   O859    1.288   .     A
C815   O857    1.289   .     A
C816   C836    1.458   .     S
C816   O858    1.285   .     A
C816   O860    1.288   .     A
C817   H849    1.083   .     S
C817   C819    1.405   .     A
C817   C825    1.404   .     A
C818   H850    1.083   .     S
C818   C820    1.406   .     A
C818   C826    1.404   .     A
C819   N855    1.363   .     A
C819   H851    1.081   .     S
C820   N856    1.363   .     A
C820   H852    1.081   .     S
C821   N855    1.365   .     A
C821   C823    1.414   .     A
C821   H853    1.081   .     S
C822   N856    1.364   .     A
C822   H854    1.077   .     S
C822   C824    1.414   .     A
C823   C825    1.416   .     A
C823   S879    1.770   .     S
C824   C826    1.415   .     A
C824   S884    1.770   .     S
C826   C381    1.503   1_556 S
C827   C829    1.441   .     S
C827   O863    1.288   .     A
C827   O861    1.279   .     A
C828   O864    1.290   .     A
C828   C830    1.443   .     S
C828   O862    1.278   .     A
C830   C681    1.363   1_655 S
C830   I718    2.159   1_655 S
C831   C833    1.390   .     A
C831   H845    1.082   .     S
C831   C841    1.400   .     A
C832   H846    1.082   .     S
C832   C842    1.403   .     A
C832   C834    1.391   .     A
C833   I867    2.131   .     S
C833   C835    1.413   .     A
C834   I868    2.119   .     S
C834   C836    1.405   .     A
C835   C837    1.419   .     A
C836   C838    1.411   .     A
C837   S869    1.775   .     S
C837   C839    1.395   .     A
C838   S874    1.766   .     S
C838   C840    1.394   .     A
C839   C841    1.400   .     A
C839   H847    1.082   .     S
C840   C842    1.401   .     A
C840   H848    1.082   .     S
C842   C619    1.476   1_565 S
Cu843  N856    1.998   .     S
Cu843  O860    1.963   .     S
Cu843  O857    1.960   .     S
Cu843  Cu844   2.660   .     S
Cu843  O861    1.990   .     S
Cu843  O864    1.991   .     S
Cu844  N855    1.998   .     S
Cu844  O859    1.963   .     S
Cu844  O858    1.960   .     S
Cu844  O863    1.991   .     S
Cu844  O862    1.990   .     S
I865   C681    2.162   1_655 S
S869   O870    1.502   .     D
S869   O871    1.504   .     D
S869   O872    1.679   .     S
O872   H873    0.991   .     S
S874   O877    1.678   .     S
S874   O876    1.503   .     D
S874   O875    1.500   .     D
O877   H878    0.990   .     S
S879   O881    1.503   .     D
O880   S435    1.503   1_556 S
O882   H883    0.990   .     S
O882   S435    1.681   1_556 S
S884   O886    1.503   .     D
S884   O441    1.503   1_556 S
S884   O443    1.681   1_556 S
O887   H888    0.991   .     S
