data_str_m2_o1_o10_pcu_sym.149
_audit_creation_date              2020-01-03
_audit_creation_method            'Materials Studio'
_symmetry_space_group_name_H-M    'P1'
_symmetry_Int_Tables_number       1
_symmetry_cell_setting            triclinic
loop_
_symmetry_equiv_pos_as_xyz
  x,y,z
_cell_length_a                    26.7356
_cell_length_b                    32.8590
_cell_length_c                    28.7722
_cell_angle_alpha                 88.8263
_cell_angle_beta                  97.6146
_cell_angle_gamma                 92.1855
loop_
_atom_site_label
_atom_site_type_symbol
_atom_site_fract_x
_atom_site_fract_y
_atom_site_fract_z
_atom_site_U_iso_or_equiv
_atom_site_adp_type
_atom_site_occupancy
C1     C     0.17045   0.08748   0.16773   0.00000  Uiso   1.00
C2     C     0.16249   0.24573   0.16566   0.00000  Uiso   1.00
C3     C     0.06831   0.16715   0.15488   0.00000  Uiso   1.00
C4     C     0.26500   0.16612   0.17851   0.00000  Uiso   1.00
C5     C     0.01354   0.16472   0.14842   0.00000  Uiso   1.00
C6     C     0.31977   0.16838   0.18530   0.00000  Uiso   1.00
C7     C     0.18129   0.02162   0.12868   0.00000  Uiso   1.00
C8     C     0.15058   0.31103   0.20509   0.00000  Uiso   1.00
C9     C     0.16723   0.31354   0.12408   0.00000  Uiso   1.00
C10    C     0.16213   0.01951   0.20943   0.00000  Uiso   1.00
C11    C     0.15807   0.29062   0.16422   0.00000  Uiso   1.00
C12    C     0.17377   0.04243   0.16958   0.00000  Uiso   1.00
C13    C     0.13340   0.14196   0.02109   0.00000  Uiso   1.00
C14    C     0.20006   0.19128   0.31227   0.00000  Uiso   1.00
C15    C     0.13342   0.14208   0.30505   0.00000  Uiso   1.00
C16    C     0.19933   0.19184   0.02822   0.00000  Uiso   1.00
Cu17   Cu    0.16667   0.16667   0.21355   0.00000  Uiso   1.00
Cu18   Cu    0.16667   0.16666   0.11978   0.00000  Uiso   1.00
N19    N     0.16668   0.16668   0.28403   0.00000  Uiso   1.00
N20    N     0.16665   0.16666   0.04931   0.00000  Uiso   1.00
O21    O     0.16666   0.10655   0.20625   0.00000  Uiso   1.00
O22    O     0.16667   0.22678   0.12709   0.00000  Uiso   1.00
O23    O     0.16666   0.10654   0.12706   0.00000  Uiso   1.00
O24    O     0.16667   0.22679   0.20628   0.00000  Uiso   1.00
O25    O     0.09161   0.16667   0.19712   0.00000  Uiso   1.00
O26    O     0.24172   0.16666   0.13621   0.00000  Uiso   1.00
O27    O     0.09161   0.16666   0.11793   0.00000  Uiso   1.00
O28    O     0.24172   0.16667   0.21540   0.00000  Uiso   1.00
C29    C     0.32416   0.15374   0.09997   0.00000  Uiso   1.00
O30    O     0.33291   0.17544   0.06672   0.00000  Uiso   1.00
O31    O     0.29587   0.11740   0.09219   0.00000  Uiso   1.00
H32    H     0.28460   0.11289   0.05761   0.00000  Uiso   1.00
C33    C     0.00883   0.17835   0.23425   0.00000  Uiso   1.00
O34    O     0.33085   0.15717   0.26703   0.00000  Uiso   1.00
O35    O     0.03960   0.21323   0.24316   0.00000  Uiso   1.00
H36    H     0.05124   0.21676   0.27789   0.00000  Uiso   1.00
C37    C     0.21185   0.04064   0.09439   0.00000  Uiso   1.00
O38    O     0.25741   0.03604   0.09948   0.00000  Uiso   1.00
O39    O     0.18874   0.06200   0.05558   0.00000  Uiso   1.00
H40    H     0.21345   0.07205   0.03374   0.00000  Uiso   1.00
C41    C     0.12367   0.28997   0.24065   0.00000  Uiso   1.00
O42    O     0.07757   0.28868   0.23525   0.00000  Uiso   1.00
O43    O     0.15075   0.27376   0.28106   0.00000  Uiso   1.00
H44    H     0.12821   0.25792   0.30106   0.00000  Uiso   1.00
C45    C     0.15114   0.29698   0.07652   0.00000  Uiso   1.00
O46    O     0.17576   0.30449   0.04429   0.00000  Uiso   1.00
O47    O     0.10574   0.27400   0.06858   0.00000  Uiso   1.00
H48    H     0.09707   0.26496   0.03502   0.00000  Uiso   1.00
C49    C     0.16673   0.03691   0.25722   0.00000  Uiso   1.00
O50    O     0.20488   0.05656   0.27265   0.00000  Uiso   1.00
O51    O     0.12889   0.02846   0.28560   0.00000  Uiso   1.00
H52    H     0.13678   0.04036   0.31791   0.00000  Uiso   1.00
Cl53   Cl    0.08959   0.10923   0.04543   0.00000  Uiso   1.00
Cl54   Cl    0.24448   0.22351   0.28806   0.00000  Uiso   1.00
Cl55   Cl    0.09006   0.10976   0.27096   0.00000  Uiso   1.00
Cl56   Cl    0.23996   0.22669   0.06182   0.00000  Uiso   1.00
C57    C     0.50378   0.08748   0.16773   0.00000  Uiso   1.00
C58    C     0.49582   0.24573   0.16566   0.00000  Uiso   1.00
C59    C     0.40164   0.16715   0.15488   0.00000  Uiso   1.00
C60    C     0.59834   0.16612   0.17851   0.00000  Uiso   1.00
C61    C     0.34688   0.16472   0.14842   0.00000  Uiso   1.00
C62    C     0.65310   0.16838   0.18530   0.00000  Uiso   1.00
C63    C     0.51462   0.02162   0.12868   0.00000  Uiso   1.00
C64    C     0.48391   0.31103   0.20509   0.00000  Uiso   1.00
C65    C     0.50057   0.31354   0.12408   0.00000  Uiso   1.00
C66    C     0.49546   0.01951   0.20943   0.00000  Uiso   1.00
C67    C     0.49140   0.29062   0.16422   0.00000  Uiso   1.00
C68    C     0.50710   0.04243   0.16958   0.00000  Uiso   1.00
C69    C     0.46674   0.14196   0.02109   0.00000  Uiso   1.00
C70    C     0.53340   0.19128   0.31227   0.00000  Uiso   1.00
C71    C     0.46675   0.14208   0.30505   0.00000  Uiso   1.00
C72    C     0.53266   0.19184   0.02822   0.00000  Uiso   1.00
Cu73   Cu    0.50000   0.16667   0.21355   0.00000  Uiso   1.00
Cu74   Cu    0.50000   0.16666   0.11978   0.00000  Uiso   1.00
N75    N     0.50001   0.16668   0.28403   0.00000  Uiso   1.00
N76    N     0.49999   0.16666   0.04931   0.00000  Uiso   1.00
O77    O     0.50000   0.10655   0.20625   0.00000  Uiso   1.00
O78    O     0.50000   0.22678   0.12709   0.00000  Uiso   1.00
O79    O     0.50000   0.10654   0.12706   0.00000  Uiso   1.00
O80    O     0.50000   0.22679   0.20628   0.00000  Uiso   1.00
O81    O     0.42495   0.16667   0.19712   0.00000  Uiso   1.00
O82    O     0.57505   0.16666   0.13621   0.00000  Uiso   1.00
O83    O     0.42494   0.16666   0.11793   0.00000  Uiso   1.00
O84    O     0.57506   0.16667   0.21540   0.00000  Uiso   1.00
C85    C     0.65749   0.15374   0.09997   0.00000  Uiso   1.00
O86    O     0.66624   0.17544   0.06672   0.00000  Uiso   1.00
O87    O     0.62920   0.11740   0.09219   0.00000  Uiso   1.00
H88    H     0.61793   0.11289   0.05761   0.00000  Uiso   1.00
C89    C     0.34216   0.17835   0.23425   0.00000  Uiso   1.00
O90    O     0.66419   0.15717   0.26703   0.00000  Uiso   1.00
O91    O     0.37293   0.21323   0.24316   0.00000  Uiso   1.00
H92    H     0.38458   0.21676   0.27789   0.00000  Uiso   1.00
C93    C     0.54519   0.04064   0.09439   0.00000  Uiso   1.00
O94    O     0.59074   0.03604   0.09948   0.00000  Uiso   1.00
O95    O     0.52208   0.06200   0.05558   0.00000  Uiso   1.00
H96    H     0.54678   0.07205   0.03374   0.00000  Uiso   1.00
C97    C     0.45701   0.28997   0.24065   0.00000  Uiso   1.00
O98    O     0.41090   0.28868   0.23525   0.00000  Uiso   1.00
O99    O     0.48408   0.27376   0.28106   0.00000  Uiso   1.00
H100   H     0.46155   0.25792   0.30106   0.00000  Uiso   1.00
C101   C     0.48448   0.29698   0.07652   0.00000  Uiso   1.00
O102   O     0.50909   0.30449   0.04429   0.00000  Uiso   1.00
O103   O     0.43908   0.27400   0.06858   0.00000  Uiso   1.00
H104   H     0.43041   0.26496   0.03502   0.00000  Uiso   1.00
C105   C     0.50006   0.03691   0.25722   0.00000  Uiso   1.00
O106   O     0.53822   0.05656   0.27265   0.00000  Uiso   1.00
O107   O     0.46222   0.02846   0.28560   0.00000  Uiso   1.00
H108   H     0.47011   0.04036   0.31791   0.00000  Uiso   1.00
Cl109  Cl    0.42292   0.10923   0.04543   0.00000  Uiso   1.00
Cl110  Cl    0.57782   0.22351   0.28806   0.00000  Uiso   1.00
Cl111  Cl    0.42340   0.10976   0.27096   0.00000  Uiso   1.00
Cl112  Cl    0.57330   0.22669   0.06182   0.00000  Uiso   1.00
C113   C     0.83712   0.08748   0.16773   0.00000  Uiso   1.00
C114   C     0.82915   0.24573   0.16566   0.00000  Uiso   1.00
C115   C     0.73498   0.16715   0.15488   0.00000  Uiso   1.00
C116   C     0.93167   0.16612   0.17851   0.00000  Uiso   1.00
C117   C     0.68021   0.16472   0.14842   0.00000  Uiso   1.00
C118   C     0.98643   0.16838   0.18530   0.00000  Uiso   1.00
C119   C     0.84795   0.02162   0.12868   0.00000  Uiso   1.00
C120   C     0.81725   0.31103   0.20509   0.00000  Uiso   1.00
C121   C     0.83390   0.31354   0.12408   0.00000  Uiso   1.00
C122   C     0.82880   0.01951   0.20943   0.00000  Uiso   1.00
C123   C     0.82474   0.29062   0.16422   0.00000  Uiso   1.00
C124   C     0.84043   0.04243   0.16958   0.00000  Uiso   1.00
C125   C     0.80007   0.14196   0.02109   0.00000  Uiso   1.00
C126   C     0.86673   0.19128   0.31227   0.00000  Uiso   1.00
C127   C     0.80009   0.14208   0.30505   0.00000  Uiso   1.00
C128   C     0.86599   0.19184   0.02822   0.00000  Uiso   1.00
Cu129  Cu    0.83333   0.16667   0.21355   0.00000  Uiso   1.00
Cu130  Cu    0.83333   0.16666   0.11978   0.00000  Uiso   1.00
N131   N     0.83335   0.16668   0.28403   0.00000  Uiso   1.00
N132   N     0.83332   0.16666   0.04931   0.00000  Uiso   1.00
O133   O     0.83333   0.10655   0.20625   0.00000  Uiso   1.00
O134   O     0.83334   0.22678   0.12709   0.00000  Uiso   1.00
O135   O     0.83333   0.10654   0.12706   0.00000  Uiso   1.00
O136   O     0.83334   0.22679   0.20628   0.00000  Uiso   1.00
O137   O     0.75828   0.16667   0.19712   0.00000  Uiso   1.00
O138   O     0.90839   0.16666   0.13621   0.00000  Uiso   1.00
O139   O     0.75828   0.16666   0.11793   0.00000  Uiso   1.00
O140   O     0.90839   0.16667   0.21540   0.00000  Uiso   1.00
C141   C     0.99083   0.15374   0.09997   0.00000  Uiso   1.00
O142   O     0.99958   0.17544   0.06672   0.00000  Uiso   1.00
O143   O     0.96253   0.11740   0.09219   0.00000  Uiso   1.00
H144   H     0.95126   0.11289   0.05761   0.00000  Uiso   1.00
C145   C     0.67550   0.17835   0.23425   0.00000  Uiso   1.00
O146   O     0.99752   0.15717   0.26703   0.00000  Uiso   1.00
O147   O     0.70627   0.21323   0.24316   0.00000  Uiso   1.00
H148   H     0.71791   0.21676   0.27789   0.00000  Uiso   1.00
C149   C     0.87852   0.04064   0.09439   0.00000  Uiso   1.00
O150   O     0.92407   0.03604   0.09948   0.00000  Uiso   1.00
O151   O     0.85541   0.06200   0.05558   0.00000  Uiso   1.00
H152   H     0.88011   0.07205   0.03374   0.00000  Uiso   1.00
C153   C     0.79034   0.28997   0.24065   0.00000  Uiso   1.00
O154   O     0.74423   0.28868   0.23525   0.00000  Uiso   1.00
O155   O     0.81742   0.27376   0.28106   0.00000  Uiso   1.00
H156   H     0.79488   0.25792   0.30106   0.00000  Uiso   1.00
C157   C     0.81781   0.29698   0.07652   0.00000  Uiso   1.00
O158   O     0.84243   0.30449   0.04429   0.00000  Uiso   1.00
O159   O     0.77241   0.27400   0.06858   0.00000  Uiso   1.00
H160   H     0.76374   0.26496   0.03502   0.00000  Uiso   1.00
C161   C     0.83340   0.03691   0.25722   0.00000  Uiso   1.00
O162   O     0.87155   0.05656   0.27265   0.00000  Uiso   1.00
O163   O     0.79556   0.02846   0.28560   0.00000  Uiso   1.00
H164   H     0.80345   0.04036   0.31791   0.00000  Uiso   1.00
Cl165  Cl    0.75625   0.10923   0.04543   0.00000  Uiso   1.00
Cl166  Cl    0.91115   0.22351   0.28806   0.00000  Uiso   1.00
Cl167  Cl    0.75673   0.10976   0.27096   0.00000  Uiso   1.00
Cl168  Cl    0.90663   0.22669   0.06182   0.00000  Uiso   1.00
C169   C     0.17045   0.42081   0.16773   0.00000  Uiso   1.00
C170   C     0.16249   0.57906   0.16566   0.00000  Uiso   1.00
C171   C     0.06831   0.50048   0.15488   0.00000  Uiso   1.00
C172   C     0.26500   0.49945   0.17851   0.00000  Uiso   1.00
C173   C     0.01354   0.49805   0.14842   0.00000  Uiso   1.00
C174   C     0.31977   0.50171   0.18530   0.00000  Uiso   1.00
C175   C     0.18129   0.35495   0.12868   0.00000  Uiso   1.00
C176   C     0.15058   0.64436   0.20509   0.00000  Uiso   1.00
C177   C     0.16723   0.64687   0.12408   0.00000  Uiso   1.00
C178   C     0.16213   0.35284   0.20943   0.00000  Uiso   1.00
C179   C     0.15807   0.62395   0.16422   0.00000  Uiso   1.00
C180   C     0.17377   0.37576   0.16958   0.00000  Uiso   1.00
C181   C     0.13340   0.47529   0.02109   0.00000  Uiso   1.00
C182   C     0.20006   0.52462   0.31227   0.00000  Uiso   1.00
C183   C     0.13342   0.47542   0.30505   0.00000  Uiso   1.00
C184   C     0.19933   0.52517   0.02822   0.00000  Uiso   1.00
Cu185  Cu    0.16667   0.50001   0.21355   0.00000  Uiso   1.00
Cu186  Cu    0.16667   0.49999   0.11978   0.00000  Uiso   1.00
N187   N     0.16668   0.50001   0.28403   0.00000  Uiso   1.00
N188   N     0.16665   0.49999   0.04931   0.00000  Uiso   1.00
O189   O     0.16666   0.43989   0.20625   0.00000  Uiso   1.00
O190   O     0.16667   0.56011   0.12709   0.00000  Uiso   1.00
O191   O     0.16666   0.43988   0.12706   0.00000  Uiso   1.00
O192   O     0.16667   0.56012   0.20628   0.00000  Uiso   1.00
O193   O     0.09161   0.50000   0.19712   0.00000  Uiso   1.00
O194   O     0.24172   0.50000   0.13621   0.00000  Uiso   1.00
O195   O     0.09161   0.49999   0.11793   0.00000  Uiso   1.00
O196   O     0.24172   0.50001   0.21540   0.00000  Uiso   1.00
C197   C     0.32416   0.48708   0.09997   0.00000  Uiso   1.00
O198   O     0.33291   0.50877   0.06672   0.00000  Uiso   1.00
O199   O     0.29587   0.45074   0.09219   0.00000  Uiso   1.00
H200   H     0.28460   0.44623   0.05761   0.00000  Uiso   1.00
C201   C     0.00883   0.51168   0.23425   0.00000  Uiso   1.00
O202   O     0.33085   0.49051   0.26703   0.00000  Uiso   1.00
O203   O     0.03960   0.54656   0.24316   0.00000  Uiso   1.00
H204   H     0.05124   0.55009   0.27789   0.00000  Uiso   1.00
C205   C     0.21185   0.37397   0.09439   0.00000  Uiso   1.00
O206   O     0.25741   0.36938   0.09948   0.00000  Uiso   1.00
O207   O     0.18874   0.39533   0.05558   0.00000  Uiso   1.00
H208   H     0.21345   0.40539   0.03374   0.00000  Uiso   1.00
C209   C     0.12367   0.62330   0.24065   0.00000  Uiso   1.00
O210   O     0.07757   0.62201   0.23525   0.00000  Uiso   1.00
O211   O     0.15075   0.60710   0.28106   0.00000  Uiso   1.00
H212   H     0.12821   0.59126   0.30106   0.00000  Uiso   1.00
C213   C     0.15114   0.63031   0.07652   0.00000  Uiso   1.00
O214   O     0.17576   0.63782   0.04429   0.00000  Uiso   1.00
O215   O     0.10574   0.60734   0.06858   0.00000  Uiso   1.00
H216   H     0.09707   0.59829   0.03502   0.00000  Uiso   1.00
C217   C     0.16673   0.37025   0.25722   0.00000  Uiso   1.00
O218   O     0.20488   0.38990   0.27265   0.00000  Uiso   1.00
O219   O     0.12889   0.36179   0.28560   0.00000  Uiso   1.00
H220   H     0.13678   0.37369   0.31791   0.00000  Uiso   1.00
Cl221  Cl    0.08959   0.44256   0.04543   0.00000  Uiso   1.00
Cl222  Cl    0.24448   0.55684   0.28806   0.00000  Uiso   1.00
Cl223  Cl    0.09006   0.44309   0.27096   0.00000  Uiso   1.00
Cl224  Cl    0.23996   0.56003   0.06182   0.00000  Uiso   1.00
C225   C     0.50378   0.42081   0.16773   0.00000  Uiso   1.00
C226   C     0.49582   0.57906   0.16566   0.00000  Uiso   1.00
C227   C     0.40164   0.50048   0.15488   0.00000  Uiso   1.00
C228   C     0.59834   0.49945   0.17851   0.00000  Uiso   1.00
C229   C     0.34688   0.49805   0.14842   0.00000  Uiso   1.00
C230   C     0.65310   0.50171   0.18530   0.00000  Uiso   1.00
C231   C     0.51462   0.35495   0.12868   0.00000  Uiso   1.00
C232   C     0.48391   0.64436   0.20509   0.00000  Uiso   1.00
C233   C     0.50057   0.64687   0.12408   0.00000  Uiso   1.00
C234   C     0.49546   0.35284   0.20943   0.00000  Uiso   1.00
C235   C     0.49140   0.62395   0.16422   0.00000  Uiso   1.00
C236   C     0.50710   0.37576   0.16958   0.00000  Uiso   1.00
C237   C     0.46674   0.47529   0.02109   0.00000  Uiso   1.00
C238   C     0.53340   0.52462   0.31227   0.00000  Uiso   1.00
C239   C     0.46675   0.47542   0.30505   0.00000  Uiso   1.00
C240   C     0.53266   0.52517   0.02822   0.00000  Uiso   1.00
Cu241  Cu    0.50000   0.50001   0.21355   0.00000  Uiso   1.00
Cu242  Cu    0.50000   0.49999   0.11978   0.00000  Uiso   1.00
N243   N     0.50001   0.50001   0.28403   0.00000  Uiso   1.00
N244   N     0.49999   0.49999   0.04931   0.00000  Uiso   1.00
O245   O     0.50000   0.43989   0.20625   0.00000  Uiso   1.00
O246   O     0.50000   0.56011   0.12709   0.00000  Uiso   1.00
O247   O     0.50000   0.43988   0.12706   0.00000  Uiso   1.00
O248   O     0.50000   0.56012   0.20628   0.00000  Uiso   1.00
O249   O     0.42495   0.50000   0.19712   0.00000  Uiso   1.00
O250   O     0.57505   0.50000   0.13621   0.00000  Uiso   1.00
O251   O     0.42494   0.49999   0.11793   0.00000  Uiso   1.00
O252   O     0.57506   0.50001   0.21540   0.00000  Uiso   1.00
C253   C     0.65749   0.48708   0.09997   0.00000  Uiso   1.00
O254   O     0.66624   0.50877   0.06672   0.00000  Uiso   1.00
O255   O     0.62920   0.45074   0.09219   0.00000  Uiso   1.00
H256   H     0.61793   0.44623   0.05761   0.00000  Uiso   1.00
C257   C     0.34216   0.51168   0.23425   0.00000  Uiso   1.00
O258   O     0.66419   0.49051   0.26703   0.00000  Uiso   1.00
O259   O     0.37293   0.54656   0.24316   0.00000  Uiso   1.00
H260   H     0.38458   0.55009   0.27789   0.00000  Uiso   1.00
C261   C     0.54519   0.37397   0.09439   0.00000  Uiso   1.00
O262   O     0.59074   0.36938   0.09948   0.00000  Uiso   1.00
O263   O     0.52208   0.39533   0.05558   0.00000  Uiso   1.00
H264   H     0.54678   0.40539   0.03374   0.00000  Uiso   1.00
C265   C     0.45701   0.62330   0.24065   0.00000  Uiso   1.00
O266   O     0.41090   0.62201   0.23525   0.00000  Uiso   1.00
O267   O     0.48408   0.60710   0.28106   0.00000  Uiso   1.00
H268   H     0.46155   0.59126   0.30106   0.00000  Uiso   1.00
C269   C     0.48448   0.63031   0.07652   0.00000  Uiso   1.00
O270   O     0.50909   0.63782   0.04429   0.00000  Uiso   1.00
O271   O     0.43908   0.60734   0.06858   0.00000  Uiso   1.00
H272   H     0.43041   0.59829   0.03502   0.00000  Uiso   1.00
C273   C     0.50006   0.37025   0.25722   0.00000  Uiso   1.00
O274   O     0.53822   0.38990   0.27265   0.00000  Uiso   1.00
O275   O     0.46222   0.36179   0.28560   0.00000  Uiso   1.00
H276   H     0.47011   0.37369   0.31791   0.00000  Uiso   1.00
Cl277  Cl    0.42292   0.44256   0.04543   0.00000  Uiso   1.00
Cl278  Cl    0.57782   0.55684   0.28806   0.00000  Uiso   1.00
Cl279  Cl    0.42340   0.44309   0.27096   0.00000  Uiso   1.00
Cl280  Cl    0.57330   0.56003   0.06182   0.00000  Uiso   1.00
C281   C     0.83712   0.42081   0.16773   0.00000  Uiso   1.00
C282   C     0.82915   0.57906   0.16566   0.00000  Uiso   1.00
C283   C     0.73498   0.50048   0.15488   0.00000  Uiso   1.00
C284   C     0.93167   0.49945   0.17851   0.00000  Uiso   1.00
C285   C     0.68021   0.49805   0.14842   0.00000  Uiso   1.00
C286   C     0.98643   0.50171   0.18530   0.00000  Uiso   1.00
C287   C     0.84795   0.35495   0.12868   0.00000  Uiso   1.00
C288   C     0.81725   0.64436   0.20509   0.00000  Uiso   1.00
C289   C     0.83390   0.64687   0.12408   0.00000  Uiso   1.00
C290   C     0.82880   0.35284   0.20943   0.00000  Uiso   1.00
C291   C     0.82474   0.62395   0.16422   0.00000  Uiso   1.00
C292   C     0.84043   0.37576   0.16958   0.00000  Uiso   1.00
C293   C     0.80007   0.47529   0.02109   0.00000  Uiso   1.00
C294   C     0.86673   0.52462   0.31227   0.00000  Uiso   1.00
C295   C     0.80009   0.47542   0.30505   0.00000  Uiso   1.00
C296   C     0.86599   0.52517   0.02822   0.00000  Uiso   1.00
Cu297  Cu    0.83333   0.50001   0.21355   0.00000  Uiso   1.00
Cu298  Cu    0.83333   0.49999   0.11978   0.00000  Uiso   1.00
N299   N     0.83335   0.50001   0.28403   0.00000  Uiso   1.00
N300   N     0.83332   0.49999   0.04931   0.00000  Uiso   1.00
O301   O     0.83333   0.43989   0.20625   0.00000  Uiso   1.00
O302   O     0.83334   0.56011   0.12709   0.00000  Uiso   1.00
O303   O     0.83333   0.43988   0.12706   0.00000  Uiso   1.00
O304   O     0.83334   0.56012   0.20628   0.00000  Uiso   1.00
O305   O     0.75828   0.50000   0.19712   0.00000  Uiso   1.00
O306   O     0.90839   0.50000   0.13621   0.00000  Uiso   1.00
O307   O     0.75828   0.49999   0.11793   0.00000  Uiso   1.00
O308   O     0.90839   0.50001   0.21540   0.00000  Uiso   1.00
C309   C     0.99083   0.48708   0.09997   0.00000  Uiso   1.00
O310   O     0.99958   0.50877   0.06672   0.00000  Uiso   1.00
O311   O     0.96253   0.45074   0.09219   0.00000  Uiso   1.00
H312   H     0.95126   0.44623   0.05761   0.00000  Uiso   1.00
C313   C     0.67550   0.51168   0.23425   0.00000  Uiso   1.00
O314   O     0.99752   0.49051   0.26703   0.00000  Uiso   1.00
O315   O     0.70627   0.54656   0.24316   0.00000  Uiso   1.00
H316   H     0.71791   0.55009   0.27789   0.00000  Uiso   1.00
C317   C     0.87852   0.37397   0.09439   0.00000  Uiso   1.00
O318   O     0.92407   0.36938   0.09948   0.00000  Uiso   1.00
O319   O     0.85541   0.39533   0.05558   0.00000  Uiso   1.00
H320   H     0.88011   0.40539   0.03374   0.00000  Uiso   1.00
C321   C     0.79034   0.62330   0.24065   0.00000  Uiso   1.00
O322   O     0.74423   0.62201   0.23525   0.00000  Uiso   1.00
O323   O     0.81742   0.60710   0.28106   0.00000  Uiso   1.00
H324   H     0.79488   0.59126   0.30106   0.00000  Uiso   1.00
C325   C     0.81781   0.63031   0.07652   0.00000  Uiso   1.00
O326   O     0.84243   0.63782   0.04429   0.00000  Uiso   1.00
O327   O     0.77241   0.60734   0.06858   0.00000  Uiso   1.00
H328   H     0.76374   0.59829   0.03502   0.00000  Uiso   1.00
C329   C     0.83340   0.37025   0.25722   0.00000  Uiso   1.00
O330   O     0.87155   0.38990   0.27265   0.00000  Uiso   1.00
O331   O     0.79556   0.36179   0.28560   0.00000  Uiso   1.00
H332   H     0.80345   0.37369   0.31791   0.00000  Uiso   1.00
Cl333  Cl    0.75625   0.44256   0.04543   0.00000  Uiso   1.00
Cl334  Cl    0.91115   0.55684   0.28806   0.00000  Uiso   1.00
Cl335  Cl    0.75673   0.44309   0.27096   0.00000  Uiso   1.00
Cl336  Cl    0.90663   0.56003   0.06182   0.00000  Uiso   1.00
C337   C     0.17045   0.75415   0.16773   0.00000  Uiso   1.00
C338   C     0.16249   0.91240   0.16566   0.00000  Uiso   1.00
C339   C     0.06831   0.83382   0.15488   0.00000  Uiso   1.00
C340   C     0.26500   0.83278   0.17851   0.00000  Uiso   1.00
C341   C     0.01354   0.83139   0.14842   0.00000  Uiso   1.00
C342   C     0.31977   0.83504   0.18530   0.00000  Uiso   1.00
C343   C     0.18129   0.68828   0.12868   0.00000  Uiso   1.00
C344   C     0.15058   0.97769   0.20509   0.00000  Uiso   1.00
C345   C     0.16723   0.98021   0.12408   0.00000  Uiso   1.00
C346   C     0.16213   0.68617   0.20943   0.00000  Uiso   1.00
C347   C     0.15807   0.95728   0.16422   0.00000  Uiso   1.00
C348   C     0.17377   0.70909   0.16958   0.00000  Uiso   1.00
C349   C     0.13340   0.80862   0.02109   0.00000  Uiso   1.00
C350   C     0.20006   0.85795   0.31227   0.00000  Uiso   1.00
C351   C     0.13342   0.80875   0.30505   0.00000  Uiso   1.00
C352   C     0.19933   0.85850   0.02822   0.00000  Uiso   1.00
Cu353  Cu    0.16667   0.83334   0.21355   0.00000  Uiso   1.00
Cu354  Cu    0.16667   0.83333   0.11978   0.00000  Uiso   1.00
N355   N     0.16668   0.83334   0.28403   0.00000  Uiso   1.00
N356   N     0.16665   0.83332   0.04931   0.00000  Uiso   1.00
O357   O     0.16666   0.77322   0.20625   0.00000  Uiso   1.00
O358   O     0.16667   0.89345   0.12709   0.00000  Uiso   1.00
O359   O     0.16666   0.77321   0.12706   0.00000  Uiso   1.00
O360   O     0.16667   0.89346   0.20628   0.00000  Uiso   1.00
O361   O     0.09161   0.83334   0.19712   0.00000  Uiso   1.00
O362   O     0.24172   0.83333   0.13621   0.00000  Uiso   1.00
O363   O     0.09161   0.83333   0.11793   0.00000  Uiso   1.00
O364   O     0.24172   0.83334   0.21540   0.00000  Uiso   1.00
C365   C     0.32416   0.82041   0.09997   0.00000  Uiso   1.00
O366   O     0.33291   0.84210   0.06672   0.00000  Uiso   1.00
O367   O     0.29587   0.78407   0.09219   0.00000  Uiso   1.00
H368   H     0.28460   0.77956   0.05761   0.00000  Uiso   1.00
C369   C     0.00883   0.84501   0.23425   0.00000  Uiso   1.00
O370   O     0.33085   0.82384   0.26703   0.00000  Uiso   1.00
O371   O     0.03960   0.87989   0.24316   0.00000  Uiso   1.00
H372   H     0.05124   0.88342   0.27789   0.00000  Uiso   1.00
C373   C     0.21185   0.70731   0.09439   0.00000  Uiso   1.00
O374   O     0.25741   0.70271   0.09948   0.00000  Uiso   1.00
O375   O     0.18874   0.72867   0.05558   0.00000  Uiso   1.00
H376   H     0.21345   0.73872   0.03374   0.00000  Uiso   1.00
C377   C     0.12367   0.95663   0.24065   0.00000  Uiso   1.00
O378   O     0.07757   0.95535   0.23525   0.00000  Uiso   1.00
O379   O     0.15075   0.94043   0.28106   0.00000  Uiso   1.00
H380   H     0.12821   0.92459   0.30106   0.00000  Uiso   1.00
C381   C     0.15114   0.96365   0.07652   0.00000  Uiso   1.00
O382   O     0.17576   0.97115   0.04429   0.00000  Uiso   1.00
O383   O     0.10574   0.94067   0.06858   0.00000  Uiso   1.00
H384   H     0.09707   0.93163   0.03502   0.00000  Uiso   1.00
C385   C     0.16673   0.70358   0.25722   0.00000  Uiso   1.00
O386   O     0.20488   0.72323   0.27265   0.00000  Uiso   1.00
O387   O     0.12889   0.69512   0.28560   0.00000  Uiso   1.00
H388   H     0.13678   0.70702   0.31791   0.00000  Uiso   1.00
Cl389  Cl    0.08959   0.77589   0.04543   0.00000  Uiso   1.00
Cl390  Cl    0.24448   0.89017   0.28806   0.00000  Uiso   1.00
Cl391  Cl    0.09006   0.77643   0.27096   0.00000  Uiso   1.00
Cl392  Cl    0.23996   0.89336   0.06182   0.00000  Uiso   1.00
C393   C     0.50378   0.75415   0.16773   0.00000  Uiso   1.00
C394   C     0.49582   0.91240   0.16566   0.00000  Uiso   1.00
C395   C     0.40164   0.83382   0.15488   0.00000  Uiso   1.00
C396   C     0.59834   0.83278   0.17851   0.00000  Uiso   1.00
C397   C     0.34688   0.83139   0.14842   0.00000  Uiso   1.00
C398   C     0.65310   0.83504   0.18530   0.00000  Uiso   1.00
C399   C     0.51462   0.68828   0.12868   0.00000  Uiso   1.00
C400   C     0.48391   0.97769   0.20509   0.00000  Uiso   1.00
C401   C     0.50057   0.98021   0.12408   0.00000  Uiso   1.00
C402   C     0.49546   0.68617   0.20943   0.00000  Uiso   1.00
C403   C     0.49140   0.95728   0.16422   0.00000  Uiso   1.00
C404   C     0.50710   0.70909   0.16958   0.00000  Uiso   1.00
C405   C     0.46674   0.80862   0.02109   0.00000  Uiso   1.00
C406   C     0.53340   0.85795   0.31227   0.00000  Uiso   1.00
C407   C     0.46675   0.80875   0.30505   0.00000  Uiso   1.00
C408   C     0.53266   0.85850   0.02822   0.00000  Uiso   1.00
Cu409  Cu    0.50000   0.83334   0.21355   0.00000  Uiso   1.00
Cu410  Cu    0.50000   0.83333   0.11978   0.00000  Uiso   1.00
N411   N     0.50001   0.83334   0.28403   0.00000  Uiso   1.00
N412   N     0.49999   0.83332   0.04931   0.00000  Uiso   1.00
O413   O     0.50000   0.77322   0.20625   0.00000  Uiso   1.00
O414   O     0.50000   0.89345   0.12709   0.00000  Uiso   1.00
O415   O     0.50000   0.77321   0.12706   0.00000  Uiso   1.00
O416   O     0.50000   0.89346   0.20628   0.00000  Uiso   1.00
O417   O     0.42495   0.83334   0.19712   0.00000  Uiso   1.00
O418   O     0.57505   0.83333   0.13621   0.00000  Uiso   1.00
O419   O     0.42494   0.83333   0.11793   0.00000  Uiso   1.00
O420   O     0.57506   0.83334   0.21540   0.00000  Uiso   1.00
C421   C     0.65749   0.82041   0.09997   0.00000  Uiso   1.00
O422   O     0.66624   0.84210   0.06672   0.00000  Uiso   1.00
O423   O     0.62920   0.78407   0.09219   0.00000  Uiso   1.00
H424   H     0.61793   0.77956   0.05761   0.00000  Uiso   1.00
C425   C     0.34216   0.84501   0.23425   0.00000  Uiso   1.00
O426   O     0.66419   0.82384   0.26703   0.00000  Uiso   1.00
O427   O     0.37293   0.87989   0.24316   0.00000  Uiso   1.00
H428   H     0.38458   0.88342   0.27789   0.00000  Uiso   1.00
C429   C     0.54519   0.70731   0.09439   0.00000  Uiso   1.00
O430   O     0.59074   0.70271   0.09948   0.00000  Uiso   1.00
O431   O     0.52208   0.72867   0.05558   0.00000  Uiso   1.00
H432   H     0.54678   0.73872   0.03374   0.00000  Uiso   1.00
C433   C     0.45701   0.95663   0.24065   0.00000  Uiso   1.00
O434   O     0.41090   0.95535   0.23525   0.00000  Uiso   1.00
O435   O     0.48408   0.94043   0.28106   0.00000  Uiso   1.00
H436   H     0.46155   0.92459   0.30106   0.00000  Uiso   1.00
C437   C     0.48448   0.96365   0.07652   0.00000  Uiso   1.00
O438   O     0.50909   0.97115   0.04429   0.00000  Uiso   1.00
O439   O     0.43908   0.94067   0.06858   0.00000  Uiso   1.00
H440   H     0.43041   0.93163   0.03502   0.00000  Uiso   1.00
C441   C     0.50006   0.70358   0.25722   0.00000  Uiso   1.00
O442   O     0.53822   0.72323   0.27265   0.00000  Uiso   1.00
O443   O     0.46222   0.69512   0.28560   0.00000  Uiso   1.00
H444   H     0.47011   0.70702   0.31791   0.00000  Uiso   1.00
Cl445  Cl    0.42292   0.77589   0.04543   0.00000  Uiso   1.00
Cl446  Cl    0.57782   0.89017   0.28806   0.00000  Uiso   1.00
Cl447  Cl    0.42340   0.77643   0.27096   0.00000  Uiso   1.00
Cl448  Cl    0.57330   0.89336   0.06182   0.00000  Uiso   1.00
C449   C     0.83712   0.75415   0.16773   0.00000  Uiso   1.00
C450   C     0.82915   0.91240   0.16566   0.00000  Uiso   1.00
C451   C     0.73498   0.83382   0.15488   0.00000  Uiso   1.00
C452   C     0.93167   0.83278   0.17851   0.00000  Uiso   1.00
C453   C     0.68021   0.83139   0.14842   0.00000  Uiso   1.00
C454   C     0.98643   0.83504   0.18530   0.00000  Uiso   1.00
C455   C     0.84795   0.68828   0.12868   0.00000  Uiso   1.00
C456   C     0.81725   0.97769   0.20509   0.00000  Uiso   1.00
C457   C     0.83390   0.98021   0.12408   0.00000  Uiso   1.00
C458   C     0.82880   0.68617   0.20943   0.00000  Uiso   1.00
C459   C     0.82474   0.95728   0.16422   0.00000  Uiso   1.00
C460   C     0.84043   0.70909   0.16958   0.00000  Uiso   1.00
C461   C     0.80007   0.80862   0.02109   0.00000  Uiso   1.00
C462   C     0.86673   0.85795   0.31227   0.00000  Uiso   1.00
C463   C     0.80009   0.80875   0.30505   0.00000  Uiso   1.00
C464   C     0.86599   0.85850   0.02822   0.00000  Uiso   1.00
Cu465  Cu    0.83333   0.83334   0.21355   0.00000  Uiso   1.00
Cu466  Cu    0.83333   0.83333   0.11978   0.00000  Uiso   1.00
N467   N     0.83335   0.83334   0.28403   0.00000  Uiso   1.00
N468   N     0.83332   0.83332   0.04931   0.00000  Uiso   1.00
O469   O     0.83333   0.77322   0.20625   0.00000  Uiso   1.00
O470   O     0.83334   0.89345   0.12709   0.00000  Uiso   1.00
O471   O     0.83333   0.77321   0.12706   0.00000  Uiso   1.00
O472   O     0.83334   0.89346   0.20628   0.00000  Uiso   1.00
O473   O     0.75828   0.83334   0.19712   0.00000  Uiso   1.00
O474   O     0.90839   0.83333   0.13621   0.00000  Uiso   1.00
O475   O     0.75828   0.83333   0.11793   0.00000  Uiso   1.00
O476   O     0.90839   0.83334   0.21540   0.00000  Uiso   1.00
C477   C     0.99083   0.82041   0.09997   0.00000  Uiso   1.00
O478   O     0.99958   0.84210   0.06672   0.00000  Uiso   1.00
O479   O     0.96253   0.78407   0.09219   0.00000  Uiso   1.00
H480   H     0.95126   0.77956   0.05761   0.00000  Uiso   1.00
C481   C     0.67550   0.84501   0.23425   0.00000  Uiso   1.00
O482   O     0.99752   0.82384   0.26703   0.00000  Uiso   1.00
O483   O     0.70627   0.87989   0.24316   0.00000  Uiso   1.00
H484   H     0.71791   0.88342   0.27789   0.00000  Uiso   1.00
C485   C     0.87852   0.70731   0.09439   0.00000  Uiso   1.00
O486   O     0.92407   0.70271   0.09948   0.00000  Uiso   1.00
O487   O     0.85541   0.72867   0.05558   0.00000  Uiso   1.00
H488   H     0.88011   0.73872   0.03374   0.00000  Uiso   1.00
C489   C     0.79034   0.95663   0.24065   0.00000  Uiso   1.00
O490   O     0.74423   0.95535   0.23525   0.00000  Uiso   1.00
O491   O     0.81742   0.94043   0.28106   0.00000  Uiso   1.00
H492   H     0.79488   0.92459   0.30106   0.00000  Uiso   1.00
C493   C     0.81781   0.96365   0.07652   0.00000  Uiso   1.00
O494   O     0.84243   0.97115   0.04429   0.00000  Uiso   1.00
O495   O     0.77241   0.94067   0.06858   0.00000  Uiso   1.00
H496   H     0.76374   0.93163   0.03502   0.00000  Uiso   1.00
C497   C     0.83340   0.70358   0.25722   0.00000  Uiso   1.00
O498   O     0.87155   0.72323   0.27265   0.00000  Uiso   1.00
O499   O     0.79556   0.69512   0.28560   0.00000  Uiso   1.00
H500   H     0.80345   0.70702   0.31791   0.00000  Uiso   1.00
Cl501  Cl    0.75625   0.77589   0.04543   0.00000  Uiso   1.00
Cl502  Cl    0.91115   0.89017   0.28806   0.00000  Uiso   1.00
Cl503  Cl    0.75673   0.77643   0.27096   0.00000  Uiso   1.00
Cl504  Cl    0.90663   0.89336   0.06182   0.00000  Uiso   1.00
C505   C     0.17045   0.08748   0.50107   0.00000  Uiso   1.00
C506   C     0.16249   0.24573   0.49899   0.00000  Uiso   1.00
C507   C     0.06831   0.16715   0.48821   0.00000  Uiso   1.00
C508   C     0.26500   0.16612   0.51185   0.00000  Uiso   1.00
C509   C     0.01354   0.16472   0.48175   0.00000  Uiso   1.00
C510   C     0.31977   0.16838   0.51863   0.00000  Uiso   1.00
C511   C     0.18129   0.02162   0.46201   0.00000  Uiso   1.00
C512   C     0.15058   0.31103   0.53842   0.00000  Uiso   1.00
C513   C     0.16723   0.31354   0.45741   0.00000  Uiso   1.00
C514   C     0.16213   0.01951   0.54276   0.00000  Uiso   1.00
C515   C     0.15807   0.29062   0.49756   0.00000  Uiso   1.00
C516   C     0.17377   0.04243   0.50291   0.00000  Uiso   1.00
C517   C     0.13340   0.14196   0.35443   0.00000  Uiso   1.00
C518   C     0.20006   0.19128   0.64561   0.00000  Uiso   1.00
C519   C     0.13342   0.14208   0.63839   0.00000  Uiso   1.00
C520   C     0.19933   0.19184   0.36155   0.00000  Uiso   1.00
Cu521  Cu    0.16667   0.16667   0.54689   0.00000  Uiso   1.00
Cu522  Cu    0.16667   0.16666   0.45311   0.00000  Uiso   1.00
N523   N     0.16668   0.16668   0.61736   0.00000  Uiso   1.00
N524   N     0.16665   0.16666   0.38264   0.00000  Uiso   1.00
O525   O     0.16666   0.10655   0.53958   0.00000  Uiso   1.00
O526   O     0.16667   0.22678   0.46042   0.00000  Uiso   1.00
O527   O     0.16666   0.10654   0.46039   0.00000  Uiso   1.00
O528   O     0.16667   0.22679   0.53961   0.00000  Uiso   1.00
O529   O     0.09161   0.16667   0.53046   0.00000  Uiso   1.00
O530   O     0.24172   0.16666   0.46954   0.00000  Uiso   1.00
O531   O     0.09161   0.16666   0.45127   0.00000  Uiso   1.00
O532   O     0.24172   0.16667   0.54873   0.00000  Uiso   1.00
C533   C     0.32416   0.15374   0.43330   0.00000  Uiso   1.00
O534   O     0.33291   0.17544   0.40005   0.00000  Uiso   1.00
O535   O     0.29587   0.11740   0.42553   0.00000  Uiso   1.00
H536   H     0.28460   0.11289   0.39094   0.00000  Uiso   1.00
C537   C     0.00883   0.17835   0.56758   0.00000  Uiso   1.00
O538   O     0.33085   0.15717   0.60036   0.00000  Uiso   1.00
O539   O     0.03960   0.21323   0.57650   0.00000  Uiso   1.00
H540   H     0.05124   0.21676   0.61122   0.00000  Uiso   1.00
C541   C     0.21185   0.04064   0.42772   0.00000  Uiso   1.00
O542   O     0.25741   0.03604   0.43281   0.00000  Uiso   1.00
O543   O     0.18874   0.06200   0.38891   0.00000  Uiso   1.00
H544   H     0.21345   0.07205   0.36708   0.00000  Uiso   1.00
C545   C     0.12367   0.28997   0.57399   0.00000  Uiso   1.00
O546   O     0.07757   0.28868   0.56858   0.00000  Uiso   1.00
O547   O     0.15075   0.27376   0.61440   0.00000  Uiso   1.00
H548   H     0.12821   0.25792   0.63439   0.00000  Uiso   1.00
C549   C     0.15114   0.29698   0.40985   0.00000  Uiso   1.00
O550   O     0.17576   0.30449   0.37763   0.00000  Uiso   1.00
O551   O     0.10574   0.27400   0.40191   0.00000  Uiso   1.00
H552   H     0.09707   0.26496   0.36836   0.00000  Uiso   1.00
C553   C     0.16673   0.03691   0.59056   0.00000  Uiso   1.00
O554   O     0.20488   0.05656   0.60598   0.00000  Uiso   1.00
O555   O     0.12889   0.02846   0.61894   0.00000  Uiso   1.00
H556   H     0.13678   0.04036   0.65124   0.00000  Uiso   1.00
Cl557  Cl    0.08959   0.10923   0.37876   0.00000  Uiso   1.00
Cl558  Cl    0.24448   0.22351   0.62140   0.00000  Uiso   1.00
Cl559  Cl    0.09006   0.10976   0.60429   0.00000  Uiso   1.00
Cl560  Cl    0.23996   0.22669   0.39516   0.00000  Uiso   1.00
C561   C     0.50378   0.08748   0.50107   0.00000  Uiso   1.00
C562   C     0.49582   0.24573   0.49899   0.00000  Uiso   1.00
C563   C     0.40164   0.16715   0.48821   0.00000  Uiso   1.00
C564   C     0.59834   0.16612   0.51185   0.00000  Uiso   1.00
C565   C     0.34688   0.16472   0.48175   0.00000  Uiso   1.00
C566   C     0.65310   0.16838   0.51863   0.00000  Uiso   1.00
C567   C     0.51462   0.02162   0.46201   0.00000  Uiso   1.00
C568   C     0.48391   0.31103   0.53842   0.00000  Uiso   1.00
C569   C     0.50057   0.31354   0.45741   0.00000  Uiso   1.00
C570   C     0.49546   0.01951   0.54276   0.00000  Uiso   1.00
C571   C     0.49140   0.29062   0.49756   0.00000  Uiso   1.00
C572   C     0.50710   0.04243   0.50291   0.00000  Uiso   1.00
C573   C     0.46674   0.14196   0.35443   0.00000  Uiso   1.00
C574   C     0.53340   0.19128   0.64561   0.00000  Uiso   1.00
C575   C     0.46675   0.14208   0.63839   0.00000  Uiso   1.00
C576   C     0.53266   0.19184   0.36155   0.00000  Uiso   1.00
Cu577  Cu    0.50000   0.16667   0.54689   0.00000  Uiso   1.00
Cu578  Cu    0.50000   0.16666   0.45311   0.00000  Uiso   1.00
N579   N     0.50001   0.16668   0.61736   0.00000  Uiso   1.00
N580   N     0.49999   0.16666   0.38264   0.00000  Uiso   1.00
O581   O     0.50000   0.10655   0.53958   0.00000  Uiso   1.00
O582   O     0.50000   0.22678   0.46042   0.00000  Uiso   1.00
O583   O     0.50000   0.10654   0.46039   0.00000  Uiso   1.00
O584   O     0.50000   0.22679   0.53961   0.00000  Uiso   1.00
O585   O     0.42495   0.16667   0.53046   0.00000  Uiso   1.00
O586   O     0.57505   0.16666   0.46954   0.00000  Uiso   1.00
O587   O     0.42494   0.16666   0.45127   0.00000  Uiso   1.00
O588   O     0.57506   0.16667   0.54873   0.00000  Uiso   1.00
C589   C     0.65749   0.15374   0.43330   0.00000  Uiso   1.00
O590   O     0.66624   0.17544   0.40005   0.00000  Uiso   1.00
O591   O     0.62920   0.11740   0.42553   0.00000  Uiso   1.00
H592   H     0.61793   0.11289   0.39094   0.00000  Uiso   1.00
C593   C     0.34216   0.17835   0.56758   0.00000  Uiso   1.00
O594   O     0.66419   0.15717   0.60036   0.00000  Uiso   1.00
O595   O     0.37293   0.21323   0.57650   0.00000  Uiso   1.00
H596   H     0.38458   0.21676   0.61122   0.00000  Uiso   1.00
C597   C     0.54519   0.04064   0.42772   0.00000  Uiso   1.00
O598   O     0.59074   0.03604   0.43281   0.00000  Uiso   1.00
O599   O     0.52208   0.06200   0.38891   0.00000  Uiso   1.00
H600   H     0.54678   0.07205   0.36708   0.00000  Uiso   1.00
C601   C     0.45701   0.28997   0.57399   0.00000  Uiso   1.00
O602   O     0.41090   0.28868   0.56858   0.00000  Uiso   1.00
O603   O     0.48408   0.27376   0.61440   0.00000  Uiso   1.00
H604   H     0.46155   0.25792   0.63439   0.00000  Uiso   1.00
C605   C     0.48448   0.29698   0.40985   0.00000  Uiso   1.00
O606   O     0.50909   0.30449   0.37763   0.00000  Uiso   1.00
O607   O     0.43908   0.27400   0.40191   0.00000  Uiso   1.00
H608   H     0.43041   0.26496   0.36836   0.00000  Uiso   1.00
C609   C     0.50006   0.03691   0.59056   0.00000  Uiso   1.00
O610   O     0.53822   0.05656   0.60598   0.00000  Uiso   1.00
O611   O     0.46222   0.02846   0.61894   0.00000  Uiso   1.00
H612   H     0.47011   0.04036   0.65124   0.00000  Uiso   1.00
Cl613  Cl    0.42292   0.10923   0.37876   0.00000  Uiso   1.00
Cl614  Cl    0.57782   0.22351   0.62140   0.00000  Uiso   1.00
Cl615  Cl    0.42340   0.10976   0.60429   0.00000  Uiso   1.00
Cl616  Cl    0.57330   0.22669   0.39516   0.00000  Uiso   1.00
C617   C     0.83712   0.08748   0.50107   0.00000  Uiso   1.00
C618   C     0.82915   0.24573   0.49899   0.00000  Uiso   1.00
C619   C     0.73498   0.16715   0.48821   0.00000  Uiso   1.00
C620   C     0.93167   0.16612   0.51185   0.00000  Uiso   1.00
C621   C     0.68021   0.16472   0.48175   0.00000  Uiso   1.00
C622   C     0.98643   0.16838   0.51863   0.00000  Uiso   1.00
C623   C     0.84795   0.02162   0.46201   0.00000  Uiso   1.00
C624   C     0.81725   0.31103   0.53842   0.00000  Uiso   1.00
C625   C     0.83390   0.31354   0.45741   0.00000  Uiso   1.00
C626   C     0.82880   0.01951   0.54276   0.00000  Uiso   1.00
C627   C     0.82474   0.29062   0.49756   0.00000  Uiso   1.00
C628   C     0.84043   0.04243   0.50291   0.00000  Uiso   1.00
C629   C     0.80007   0.14196   0.35443   0.00000  Uiso   1.00
C630   C     0.86673   0.19128   0.64561   0.00000  Uiso   1.00
C631   C     0.80009   0.14208   0.63839   0.00000  Uiso   1.00
C632   C     0.86599   0.19184   0.36155   0.00000  Uiso   1.00
Cu633  Cu    0.83333   0.16667   0.54689   0.00000  Uiso   1.00
Cu634  Cu    0.83333   0.16666   0.45311   0.00000  Uiso   1.00
N635   N     0.83335   0.16668   0.61736   0.00000  Uiso   1.00
N636   N     0.83332   0.16666   0.38264   0.00000  Uiso   1.00
O637   O     0.83333   0.10655   0.53958   0.00000  Uiso   1.00
O638   O     0.83334   0.22678   0.46042   0.00000  Uiso   1.00
O639   O     0.83333   0.10654   0.46039   0.00000  Uiso   1.00
O640   O     0.83334   0.22679   0.53961   0.00000  Uiso   1.00
O641   O     0.75828   0.16667   0.53046   0.00000  Uiso   1.00
O642   O     0.90839   0.16666   0.46954   0.00000  Uiso   1.00
O643   O     0.75828   0.16666   0.45127   0.00000  Uiso   1.00
O644   O     0.90839   0.16667   0.54873   0.00000  Uiso   1.00
C645   C     0.99083   0.15374   0.43330   0.00000  Uiso   1.00
O646   O     0.99958   0.17544   0.40005   0.00000  Uiso   1.00
O647   O     0.96253   0.11740   0.42553   0.00000  Uiso   1.00
H648   H     0.95126   0.11289   0.39094   0.00000  Uiso   1.00
C649   C     0.67550   0.17835   0.56758   0.00000  Uiso   1.00
O650   O     0.99752   0.15717   0.60036   0.00000  Uiso   1.00
O651   O     0.70627   0.21323   0.57650   0.00000  Uiso   1.00
H652   H     0.71791   0.21676   0.61122   0.00000  Uiso   1.00
C653   C     0.87852   0.04064   0.42772   0.00000  Uiso   1.00
O654   O     0.92407   0.03604   0.43281   0.00000  Uiso   1.00
O655   O     0.85541   0.06200   0.38891   0.00000  Uiso   1.00
H656   H     0.88011   0.07205   0.36708   0.00000  Uiso   1.00
C657   C     0.79034   0.28997   0.57399   0.00000  Uiso   1.00
O658   O     0.74423   0.28868   0.56858   0.00000  Uiso   1.00
O659   O     0.81742   0.27376   0.61440   0.00000  Uiso   1.00
H660   H     0.79488   0.25792   0.63439   0.00000  Uiso   1.00
C661   C     0.81781   0.29698   0.40985   0.00000  Uiso   1.00
O662   O     0.84243   0.30449   0.37763   0.00000  Uiso   1.00
O663   O     0.77241   0.27400   0.40191   0.00000  Uiso   1.00
H664   H     0.76374   0.26496   0.36836   0.00000  Uiso   1.00
C665   C     0.83340   0.03691   0.59056   0.00000  Uiso   1.00
O666   O     0.87155   0.05656   0.60598   0.00000  Uiso   1.00
O667   O     0.79556   0.02846   0.61894   0.00000  Uiso   1.00
H668   H     0.80345   0.04036   0.65124   0.00000  Uiso   1.00
Cl669  Cl    0.75625   0.10923   0.37876   0.00000  Uiso   1.00
Cl670  Cl    0.91115   0.22351   0.62140   0.00000  Uiso   1.00
Cl671  Cl    0.75673   0.10976   0.60429   0.00000  Uiso   1.00
Cl672  Cl    0.90663   0.22669   0.39516   0.00000  Uiso   1.00
C673   C     0.17045   0.42081   0.50107   0.00000  Uiso   1.00
C674   C     0.16249   0.57906   0.49899   0.00000  Uiso   1.00
C675   C     0.06831   0.50048   0.48821   0.00000  Uiso   1.00
C676   C     0.26500   0.49945   0.51185   0.00000  Uiso   1.00
C677   C     0.01354   0.49805   0.48175   0.00000  Uiso   1.00
C678   C     0.31977   0.50171   0.51863   0.00000  Uiso   1.00
C679   C     0.18129   0.35495   0.46201   0.00000  Uiso   1.00
C680   C     0.15058   0.64436   0.53842   0.00000  Uiso   1.00
C681   C     0.16723   0.64687   0.45741   0.00000  Uiso   1.00
C682   C     0.16213   0.35284   0.54276   0.00000  Uiso   1.00
C683   C     0.15807   0.62395   0.49756   0.00000  Uiso   1.00
C684   C     0.17377   0.37576   0.50291   0.00000  Uiso   1.00
C685   C     0.13340   0.47529   0.35443   0.00000  Uiso   1.00
C686   C     0.20006   0.52462   0.64561   0.00000  Uiso   1.00
C687   C     0.13342   0.47542   0.63839   0.00000  Uiso   1.00
C688   C     0.19933   0.52517   0.36155   0.00000  Uiso   1.00
Cu689  Cu    0.16667   0.50001   0.54689   0.00000  Uiso   1.00
Cu690  Cu    0.16667   0.49999   0.45311   0.00000  Uiso   1.00
N691   N     0.16668   0.50001   0.61736   0.00000  Uiso   1.00
N692   N     0.16665   0.49999   0.38264   0.00000  Uiso   1.00
O693   O     0.16666   0.43989   0.53958   0.00000  Uiso   1.00
O694   O     0.16667   0.56011   0.46042   0.00000  Uiso   1.00
O695   O     0.16666   0.43988   0.46039   0.00000  Uiso   1.00
O696   O     0.16667   0.56012   0.53961   0.00000  Uiso   1.00
O697   O     0.09161   0.50000   0.53046   0.00000  Uiso   1.00
O698   O     0.24172   0.50000   0.46954   0.00000  Uiso   1.00
O699   O     0.09161   0.49999   0.45127   0.00000  Uiso   1.00
O700   O     0.24172   0.50001   0.54873   0.00000  Uiso   1.00
C701   C     0.32416   0.48708   0.43330   0.00000  Uiso   1.00
O702   O     0.33291   0.50877   0.40005   0.00000  Uiso   1.00
O703   O     0.29587   0.45074   0.42553   0.00000  Uiso   1.00
H704   H     0.28460   0.44623   0.39094   0.00000  Uiso   1.00
C705   C     0.00883   0.51168   0.56758   0.00000  Uiso   1.00
O706   O     0.33085   0.49051   0.60036   0.00000  Uiso   1.00
O707   O     0.03960   0.54656   0.57650   0.00000  Uiso   1.00
H708   H     0.05124   0.55009   0.61122   0.00000  Uiso   1.00
C709   C     0.21185   0.37397   0.42772   0.00000  Uiso   1.00
O710   O     0.25741   0.36938   0.43281   0.00000  Uiso   1.00
O711   O     0.18874   0.39533   0.38891   0.00000  Uiso   1.00
H712   H     0.21345   0.40539   0.36708   0.00000  Uiso   1.00
C713   C     0.12367   0.62330   0.57399   0.00000  Uiso   1.00
O714   O     0.07757   0.62201   0.56858   0.00000  Uiso   1.00
O715   O     0.15075   0.60710   0.61440   0.00000  Uiso   1.00
H716   H     0.12821   0.59126   0.63439   0.00000  Uiso   1.00
C717   C     0.15114   0.63031   0.40985   0.00000  Uiso   1.00
O718   O     0.17576   0.63782   0.37763   0.00000  Uiso   1.00
O719   O     0.10574   0.60734   0.40191   0.00000  Uiso   1.00
H720   H     0.09707   0.59829   0.36836   0.00000  Uiso   1.00
C721   C     0.16673   0.37025   0.59056   0.00000  Uiso   1.00
O722   O     0.20488   0.38990   0.60598   0.00000  Uiso   1.00
O723   O     0.12889   0.36179   0.61894   0.00000  Uiso   1.00
H724   H     0.13678   0.37369   0.65124   0.00000  Uiso   1.00
Cl725  Cl    0.08959   0.44256   0.37876   0.00000  Uiso   1.00
Cl726  Cl    0.24448   0.55684   0.62140   0.00000  Uiso   1.00
Cl727  Cl    0.09006   0.44309   0.60429   0.00000  Uiso   1.00
Cl728  Cl    0.23996   0.56003   0.39516   0.00000  Uiso   1.00
C729   C     0.50378   0.42081   0.50107   0.00000  Uiso   1.00
C730   C     0.49582   0.57906   0.49899   0.00000  Uiso   1.00
C731   C     0.40164   0.50048   0.48821   0.00000  Uiso   1.00
C732   C     0.59834   0.49945   0.51185   0.00000  Uiso   1.00
C733   C     0.34688   0.49805   0.48175   0.00000  Uiso   1.00
C734   C     0.65310   0.50171   0.51863   0.00000  Uiso   1.00
C735   C     0.51462   0.35495   0.46201   0.00000  Uiso   1.00
C736   C     0.48391   0.64436   0.53842   0.00000  Uiso   1.00
C737   C     0.50057   0.64687   0.45741   0.00000  Uiso   1.00
C738   C     0.49546   0.35284   0.54276   0.00000  Uiso   1.00
C739   C     0.49140   0.62395   0.49756   0.00000  Uiso   1.00
C740   C     0.50710   0.37576   0.50291   0.00000  Uiso   1.00
C741   C     0.46674   0.47529   0.35443   0.00000  Uiso   1.00
C742   C     0.53340   0.52462   0.64561   0.00000  Uiso   1.00
C743   C     0.46675   0.47542   0.63839   0.00000  Uiso   1.00
C744   C     0.53266   0.52517   0.36155   0.00000  Uiso   1.00
Cu745  Cu    0.50000   0.50001   0.54689   0.00000  Uiso   1.00
Cu746  Cu    0.50000   0.49999   0.45311   0.00000  Uiso   1.00
N747   N     0.50001   0.50001   0.61736   0.00000  Uiso   1.00
N748   N     0.49999   0.49999   0.38264   0.00000  Uiso   1.00
O749   O     0.50000   0.43989   0.53958   0.00000  Uiso   1.00
O750   O     0.50000   0.56011   0.46042   0.00000  Uiso   1.00
O751   O     0.50000   0.43988   0.46039   0.00000  Uiso   1.00
O752   O     0.50000   0.56012   0.53961   0.00000  Uiso   1.00
O753   O     0.42495   0.50000   0.53046   0.00000  Uiso   1.00
O754   O     0.57505   0.50000   0.46954   0.00000  Uiso   1.00
O755   O     0.42494   0.49999   0.45127   0.00000  Uiso   1.00
O756   O     0.57506   0.50001   0.54873   0.00000  Uiso   1.00
C757   C     0.65749   0.48708   0.43330   0.00000  Uiso   1.00
O758   O     0.66624   0.50877   0.40005   0.00000  Uiso   1.00
O759   O     0.62920   0.45074   0.42553   0.00000  Uiso   1.00
H760   H     0.61793   0.44623   0.39094   0.00000  Uiso   1.00
C761   C     0.34216   0.51168   0.56758   0.00000  Uiso   1.00
O762   O     0.66419   0.49051   0.60036   0.00000  Uiso   1.00
O763   O     0.37293   0.54656   0.57650   0.00000  Uiso   1.00
H764   H     0.38458   0.55009   0.61122   0.00000  Uiso   1.00
C765   C     0.54519   0.37397   0.42772   0.00000  Uiso   1.00
O766   O     0.59074   0.36938   0.43281   0.00000  Uiso   1.00
O767   O     0.52208   0.39533   0.38891   0.00000  Uiso   1.00
H768   H     0.54678   0.40539   0.36708   0.00000  Uiso   1.00
C769   C     0.45701   0.62330   0.57399   0.00000  Uiso   1.00
O770   O     0.41090   0.62201   0.56858   0.00000  Uiso   1.00
O771   O     0.48408   0.60710   0.61440   0.00000  Uiso   1.00
H772   H     0.46155   0.59126   0.63439   0.00000  Uiso   1.00
C773   C     0.48448   0.63031   0.40985   0.00000  Uiso   1.00
O774   O     0.50909   0.63782   0.37763   0.00000  Uiso   1.00
O775   O     0.43908   0.60734   0.40191   0.00000  Uiso   1.00
H776   H     0.43041   0.59829   0.36836   0.00000  Uiso   1.00
C777   C     0.50006   0.37025   0.59056   0.00000  Uiso   1.00
O778   O     0.53822   0.38990   0.60598   0.00000  Uiso   1.00
O779   O     0.46222   0.36179   0.61894   0.00000  Uiso   1.00
H780   H     0.47011   0.37369   0.65124   0.00000  Uiso   1.00
Cl781  Cl    0.42292   0.44256   0.37876   0.00000  Uiso   1.00
Cl782  Cl    0.57782   0.55684   0.62140   0.00000  Uiso   1.00
Cl783  Cl    0.42340   0.44309   0.60429   0.00000  Uiso   1.00
Cl784  Cl    0.57330   0.56003   0.39516   0.00000  Uiso   1.00
C785   C     0.83712   0.42081   0.50107   0.00000  Uiso   1.00
C786   C     0.82915   0.57906   0.49899   0.00000  Uiso   1.00
C787   C     0.73498   0.50048   0.48821   0.00000  Uiso   1.00
C788   C     0.93167   0.49945   0.51185   0.00000  Uiso   1.00
C789   C     0.68021   0.49805   0.48175   0.00000  Uiso   1.00
C790   C     0.98643   0.50171   0.51863   0.00000  Uiso   1.00
C791   C     0.84795   0.35495   0.46201   0.00000  Uiso   1.00
C792   C     0.81725   0.64436   0.53842   0.00000  Uiso   1.00
C793   C     0.83390   0.64687   0.45741   0.00000  Uiso   1.00
C794   C     0.82880   0.35284   0.54276   0.00000  Uiso   1.00
C795   C     0.82474   0.62395   0.49756   0.00000  Uiso   1.00
C796   C     0.84043   0.37576   0.50291   0.00000  Uiso   1.00
C797   C     0.80007   0.47529   0.35443   0.00000  Uiso   1.00
C798   C     0.86673   0.52462   0.64561   0.00000  Uiso   1.00
C799   C     0.80009   0.47542   0.63839   0.00000  Uiso   1.00
C800   C     0.86599   0.52517   0.36155   0.00000  Uiso   1.00
Cu801  Cu    0.83333   0.50001   0.54689   0.00000  Uiso   1.00
Cu802  Cu    0.83333   0.49999   0.45311   0.00000  Uiso   1.00
N803   N     0.83335   0.50001   0.61736   0.00000  Uiso   1.00
N804   N     0.83332   0.49999   0.38264   0.00000  Uiso   1.00
O805   O     0.83333   0.43989   0.53958   0.00000  Uiso   1.00
O806   O     0.83334   0.56011   0.46042   0.00000  Uiso   1.00
O807   O     0.83333   0.43988   0.46039   0.00000  Uiso   1.00
O808   O     0.83334   0.56012   0.53961   0.00000  Uiso   1.00
O809   O     0.75828   0.50000   0.53046   0.00000  Uiso   1.00
O810   O     0.90839   0.50000   0.46954   0.00000  Uiso   1.00
O811   O     0.75828   0.49999   0.45127   0.00000  Uiso   1.00
O812   O     0.90839   0.50001   0.54873   0.00000  Uiso   1.00
C813   C     0.99083   0.48708   0.43330   0.00000  Uiso   1.00
O814   O     0.99958   0.50877   0.40005   0.00000  Uiso   1.00
O815   O     0.96253   0.45074   0.42553   0.00000  Uiso   1.00
H816   H     0.95126   0.44623   0.39094   0.00000  Uiso   1.00
C817   C     0.67550   0.51168   0.56758   0.00000  Uiso   1.00
O818   O     0.99752   0.49051   0.60036   0.00000  Uiso   1.00
O819   O     0.70627   0.54656   0.57650   0.00000  Uiso   1.00
H820   H     0.71791   0.55009   0.61122   0.00000  Uiso   1.00
C821   C     0.87852   0.37397   0.42772   0.00000  Uiso   1.00
O822   O     0.92407   0.36938   0.43281   0.00000  Uiso   1.00
O823   O     0.85541   0.39533   0.38891   0.00000  Uiso   1.00
H824   H     0.88011   0.40539   0.36708   0.00000  Uiso   1.00
C825   C     0.79034   0.62330   0.57399   0.00000  Uiso   1.00
O826   O     0.74423   0.62201   0.56858   0.00000  Uiso   1.00
O827   O     0.81742   0.60710   0.61440   0.00000  Uiso   1.00
H828   H     0.79488   0.59126   0.63439   0.00000  Uiso   1.00
C829   C     0.81781   0.63031   0.40985   0.00000  Uiso   1.00
O830   O     0.84243   0.63782   0.37763   0.00000  Uiso   1.00
O831   O     0.77241   0.60734   0.40191   0.00000  Uiso   1.00
H832   H     0.76374   0.59829   0.36836   0.00000  Uiso   1.00
C833   C     0.83340   0.37025   0.59056   0.00000  Uiso   1.00
O834   O     0.87155   0.38990   0.60598   0.00000  Uiso   1.00
O835   O     0.79556   0.36179   0.61894   0.00000  Uiso   1.00
H836   H     0.80345   0.37369   0.65124   0.00000  Uiso   1.00
Cl837  Cl    0.75625   0.44256   0.37876   0.00000  Uiso   1.00
Cl838  Cl    0.91115   0.55684   0.62140   0.00000  Uiso   1.00
Cl839  Cl    0.75673   0.44309   0.60429   0.00000  Uiso   1.00
Cl840  Cl    0.90663   0.56003   0.39516   0.00000  Uiso   1.00
C841   C     0.17045   0.75415   0.50107   0.00000  Uiso   1.00
C842   C     0.16249   0.91240   0.49899   0.00000  Uiso   1.00
C843   C     0.06831   0.83382   0.48821   0.00000  Uiso   1.00
C844   C     0.26500   0.83278   0.51185   0.00000  Uiso   1.00
C845   C     0.01354   0.83139   0.48175   0.00000  Uiso   1.00
C846   C     0.31977   0.83504   0.51863   0.00000  Uiso   1.00
C847   C     0.18129   0.68828   0.46201   0.00000  Uiso   1.00
C848   C     0.15058   0.97769   0.53842   0.00000  Uiso   1.00
C849   C     0.16723   0.98021   0.45741   0.00000  Uiso   1.00
C850   C     0.16213   0.68617   0.54276   0.00000  Uiso   1.00
C851   C     0.15807   0.95728   0.49756   0.00000  Uiso   1.00
C852   C     0.17377   0.70909   0.50291   0.00000  Uiso   1.00
C853   C     0.13340   0.80862   0.35443   0.00000  Uiso   1.00
C854   C     0.20006   0.85795   0.64561   0.00000  Uiso   1.00
C855   C     0.13342   0.80875   0.63839   0.00000  Uiso   1.00
C856   C     0.19933   0.85850   0.36155   0.00000  Uiso   1.00
Cu857  Cu    0.16667   0.83334   0.54689   0.00000  Uiso   1.00
Cu858  Cu    0.16667   0.83333   0.45311   0.00000  Uiso   1.00
N859   N     0.16668   0.83334   0.61736   0.00000  Uiso   1.00
N860   N     0.16665   0.83332   0.38264   0.00000  Uiso   1.00
O861   O     0.16666   0.77322   0.53958   0.00000  Uiso   1.00
O862   O     0.16667   0.89345   0.46042   0.00000  Uiso   1.00
O863   O     0.16666   0.77321   0.46039   0.00000  Uiso   1.00
O864   O     0.16667   0.89346   0.53961   0.00000  Uiso   1.00
O865   O     0.09161   0.83334   0.53046   0.00000  Uiso   1.00
O866   O     0.24172   0.83333   0.46954   0.00000  Uiso   1.00
O867   O     0.09161   0.83333   0.45127   0.00000  Uiso   1.00
O868   O     0.24172   0.83334   0.54873   0.00000  Uiso   1.00
C869   C     0.32416   0.82041   0.43330   0.00000  Uiso   1.00
O870   O     0.33291   0.84210   0.40005   0.00000  Uiso   1.00
O871   O     0.29587   0.78407   0.42553   0.00000  Uiso   1.00
H872   H     0.28460   0.77956   0.39094   0.00000  Uiso   1.00
C873   C     0.00883   0.84501   0.56758   0.00000  Uiso   1.00
O874   O     0.33085   0.82384   0.60036   0.00000  Uiso   1.00
O875   O     0.03960   0.87989   0.57650   0.00000  Uiso   1.00
H876   H     0.05124   0.88342   0.61122   0.00000  Uiso   1.00
C877   C     0.21185   0.70731   0.42772   0.00000  Uiso   1.00
O878   O     0.25741   0.70271   0.43281   0.00000  Uiso   1.00
O879   O     0.18874   0.72867   0.38891   0.00000  Uiso   1.00
H880   H     0.21345   0.73872   0.36708   0.00000  Uiso   1.00
C881   C     0.12367   0.95663   0.57399   0.00000  Uiso   1.00
O882   O     0.07757   0.95535   0.56858   0.00000  Uiso   1.00
O883   O     0.15075   0.94043   0.61440   0.00000  Uiso   1.00
H884   H     0.12821   0.92459   0.63439   0.00000  Uiso   1.00
C885   C     0.15114   0.96365   0.40985   0.00000  Uiso   1.00
O886   O     0.17576   0.97115   0.37763   0.00000  Uiso   1.00
O887   O     0.10574   0.94067   0.40191   0.00000  Uiso   1.00
H888   H     0.09707   0.93163   0.36836   0.00000  Uiso   1.00
C889   C     0.16673   0.70358   0.59056   0.00000  Uiso   1.00
O890   O     0.20488   0.72323   0.60598   0.00000  Uiso   1.00
O891   O     0.12889   0.69512   0.61894   0.00000  Uiso   1.00
H892   H     0.13678   0.70702   0.65124   0.00000  Uiso   1.00
Cl893  Cl    0.08959   0.77589   0.37876   0.00000  Uiso   1.00
Cl894  Cl    0.24448   0.89017   0.62140   0.00000  Uiso   1.00
Cl895  Cl    0.09006   0.77643   0.60429   0.00000  Uiso   1.00
Cl896  Cl    0.23996   0.89336   0.39516   0.00000  Uiso   1.00
C897   C     0.50378   0.75415   0.50107   0.00000  Uiso   1.00
C898   C     0.49582   0.91240   0.49899   0.00000  Uiso   1.00
C899   C     0.40164   0.83382   0.48821   0.00000  Uiso   1.00
C900   C     0.59834   0.83278   0.51185   0.00000  Uiso   1.00
C901   C     0.34688   0.83139   0.48175   0.00000  Uiso   1.00
C902   C     0.65310   0.83504   0.51863   0.00000  Uiso   1.00
C903   C     0.51462   0.68828   0.46201   0.00000  Uiso   1.00
C904   C     0.48391   0.97769   0.53842   0.00000  Uiso   1.00
C905   C     0.50057   0.98021   0.45741   0.00000  Uiso   1.00
C906   C     0.49546   0.68617   0.54276   0.00000  Uiso   1.00
C907   C     0.49140   0.95728   0.49756   0.00000  Uiso   1.00
C908   C     0.50710   0.70909   0.50291   0.00000  Uiso   1.00
C909   C     0.46674   0.80862   0.35443   0.00000  Uiso   1.00
C910   C     0.53340   0.85795   0.64561   0.00000  Uiso   1.00
C911   C     0.46675   0.80875   0.63839   0.00000  Uiso   1.00
C912   C     0.53266   0.85850   0.36155   0.00000  Uiso   1.00
Cu913  Cu    0.50000   0.83334   0.54689   0.00000  Uiso   1.00
Cu914  Cu    0.50000   0.83333   0.45311   0.00000  Uiso   1.00
N915   N     0.50001   0.83334   0.61736   0.00000  Uiso   1.00
N916   N     0.49999   0.83332   0.38264   0.00000  Uiso   1.00
O917   O     0.50000   0.77322   0.53958   0.00000  Uiso   1.00
O918   O     0.50000   0.89345   0.46042   0.00000  Uiso   1.00
O919   O     0.50000   0.77321   0.46039   0.00000  Uiso   1.00
O920   O     0.50000   0.89346   0.53961   0.00000  Uiso   1.00
O921   O     0.42495   0.83334   0.53046   0.00000  Uiso   1.00
O922   O     0.57505   0.83333   0.46954   0.00000  Uiso   1.00
O923   O     0.42494   0.83333   0.45127   0.00000  Uiso   1.00
O924   O     0.57506   0.83334   0.54873   0.00000  Uiso   1.00
C925   C     0.65749   0.82041   0.43330   0.00000  Uiso   1.00
O926   O     0.66624   0.84210   0.40005   0.00000  Uiso   1.00
O927   O     0.62920   0.78407   0.42553   0.00000  Uiso   1.00
H928   H     0.61793   0.77956   0.39094   0.00000  Uiso   1.00
C929   C     0.34216   0.84501   0.56758   0.00000  Uiso   1.00
O930   O     0.66419   0.82384   0.60036   0.00000  Uiso   1.00
O931   O     0.37293   0.87989   0.57650   0.00000  Uiso   1.00
H932   H     0.38458   0.88342   0.61122   0.00000  Uiso   1.00
C933   C     0.54519   0.70731   0.42772   0.00000  Uiso   1.00
O934   O     0.59074   0.70271   0.43281   0.00000  Uiso   1.00
O935   O     0.52208   0.72867   0.38891   0.00000  Uiso   1.00
H936   H     0.54678   0.73872   0.36708   0.00000  Uiso   1.00
C937   C     0.45701   0.95663   0.57399   0.00000  Uiso   1.00
O938   O     0.41090   0.95535   0.56858   0.00000  Uiso   1.00
O939   O     0.48408   0.94043   0.61440   0.00000  Uiso   1.00
H940   H     0.46155   0.92459   0.63439   0.00000  Uiso   1.00
C941   C     0.48448   0.96365   0.40985   0.00000  Uiso   1.00
O942   O     0.50909   0.97115   0.37763   0.00000  Uiso   1.00
O943   O     0.43908   0.94067   0.40191   0.00000  Uiso   1.00
H944   H     0.43041   0.93163   0.36836   0.00000  Uiso   1.00
C945   C     0.50006   0.70358   0.59056   0.00000  Uiso   1.00
O946   O     0.53822   0.72323   0.60598   0.00000  Uiso   1.00
O947   O     0.46222   0.69512   0.61894   0.00000  Uiso   1.00
H948   H     0.47011   0.70702   0.65124   0.00000  Uiso   1.00
Cl949  Cl    0.42292   0.77589   0.37876   0.00000  Uiso   1.00
Cl950  Cl    0.57782   0.89017   0.62140   0.00000  Uiso   1.00
Cl951  Cl    0.42340   0.77643   0.60429   0.00000  Uiso   1.00
Cl952  Cl    0.57330   0.89336   0.39516   0.00000  Uiso   1.00
C953   C     0.83712   0.75415   0.50107   0.00000  Uiso   1.00
C954   C     0.82915   0.91240   0.49899   0.00000  Uiso   1.00
C955   C     0.73498   0.83382   0.48821   0.00000  Uiso   1.00
C956   C     0.93167   0.83278   0.51185   0.00000  Uiso   1.00
C957   C     0.68021   0.83139   0.48175   0.00000  Uiso   1.00
C958   C     0.98643   0.83504   0.51863   0.00000  Uiso   1.00
C959   C     0.84795   0.68828   0.46201   0.00000  Uiso   1.00
C960   C     0.81725   0.97769   0.53842   0.00000  Uiso   1.00
C961   C     0.83390   0.98021   0.45741   0.00000  Uiso   1.00
C962   C     0.82880   0.68617   0.54276   0.00000  Uiso   1.00
C963   C     0.82474   0.95728   0.49756   0.00000  Uiso   1.00
C964   C     0.84043   0.70909   0.50291   0.00000  Uiso   1.00
C965   C     0.80007   0.80862   0.35443   0.00000  Uiso   1.00
C966   C     0.86673   0.85795   0.64561   0.00000  Uiso   1.00
C967   C     0.80009   0.80875   0.63839   0.00000  Uiso   1.00
C968   C     0.86599   0.85850   0.36155   0.00000  Uiso   1.00
Cu969  Cu    0.83333   0.83334   0.54689   0.00000  Uiso   1.00
Cu970  Cu    0.83333   0.83333   0.45311   0.00000  Uiso   1.00
N971   N     0.83335   0.83334   0.61736   0.00000  Uiso   1.00
N972   N     0.83332   0.83332   0.38264   0.00000  Uiso   1.00
O973   O     0.83333   0.77322   0.53958   0.00000  Uiso   1.00
O974   O     0.83334   0.89345   0.46042   0.00000  Uiso   1.00
O975   O     0.83333   0.77321   0.46039   0.00000  Uiso   1.00
O976   O     0.83334   0.89346   0.53961   0.00000  Uiso   1.00
O977   O     0.75828   0.83334   0.53046   0.00000  Uiso   1.00
O978   O     0.90839   0.83333   0.46954   0.00000  Uiso   1.00
O979   O     0.75828   0.83333   0.45127   0.00000  Uiso   1.00
O980   O     0.90839   0.83334   0.54873   0.00000  Uiso   1.00
C981   C     0.99083   0.82041   0.43330   0.00000  Uiso   1.00
O982   O     0.99958   0.84210   0.40005   0.00000  Uiso   1.00
O983   O     0.96253   0.78407   0.42553   0.00000  Uiso   1.00
H984   H     0.95126   0.77956   0.39094   0.00000  Uiso   1.00
C985   C     0.67550   0.84501   0.56758   0.00000  Uiso   1.00
O986   O     0.99752   0.82384   0.60036   0.00000  Uiso   1.00
O987   O     0.70627   0.87989   0.57650   0.00000  Uiso   1.00
H988   H     0.71791   0.88342   0.61122   0.00000  Uiso   1.00
C989   C     0.87852   0.70731   0.42772   0.00000  Uiso   1.00
O990   O     0.92407   0.70271   0.43281   0.00000  Uiso   1.00
O991   O     0.85541   0.72867   0.38891   0.00000  Uiso   1.00
H992   H     0.88011   0.73872   0.36708   0.00000  Uiso   1.00
C993   C     0.79034   0.95663   0.57399   0.00000  Uiso   1.00
O994   O     0.74423   0.95535   0.56858   0.00000  Uiso   1.00
O995   O     0.81742   0.94043   0.61440   0.00000  Uiso   1.00
H996   H     0.79488   0.92459   0.63439   0.00000  Uiso   1.00
C997   C     0.81781   0.96365   0.40985   0.00000  Uiso   1.00
O998   O     0.84243   0.97115   0.37763   0.00000  Uiso   1.00
O999   O     0.77241   0.94067   0.40191   0.00000  Uiso   1.00
H1000  H     0.76374   0.93163   0.36836   0.00000  Uiso   1.00
C1001  C     0.83340   0.70358   0.59056   0.00000  Uiso   1.00
O1002  O     0.87155   0.72323   0.60598   0.00000  Uiso   1.00
O1003  O     0.79556   0.69512   0.61894   0.00000  Uiso   1.00
H1004  H     0.80345   0.70702   0.65124   0.00000  Uiso   1.00
Cl1005 Cl    0.75625   0.77589   0.37876   0.00000  Uiso   1.00
Cl1006 Cl    0.91115   0.89017   0.62140   0.00000  Uiso   1.00
Cl1007 Cl    0.75673   0.77643   0.60429   0.00000  Uiso   1.00
Cl1008 Cl    0.90663   0.89336   0.39516   0.00000  Uiso   1.00
C1009  C     0.17045   0.08748   0.83440   0.00000  Uiso   1.00
C1010  C     0.16249   0.24573   0.83232   0.00000  Uiso   1.00
C1011  C     0.06831   0.16715   0.82155   0.00000  Uiso   1.00
C1012  C     0.26500   0.16612   0.84518   0.00000  Uiso   1.00
C1013  C     0.01354   0.16472   0.81509   0.00000  Uiso   1.00
C1014  C     0.31977   0.16838   0.85197   0.00000  Uiso   1.00
C1015  C     0.18129   0.02162   0.79534   0.00000  Uiso   1.00
C1016  C     0.15058   0.31103   0.87176   0.00000  Uiso   1.00
C1017  C     0.16723   0.31354   0.79075   0.00000  Uiso   1.00
C1018  C     0.16213   0.01951   0.87609   0.00000  Uiso   1.00
C1019  C     0.15807   0.29062   0.83089   0.00000  Uiso   1.00
C1020  C     0.17377   0.04243   0.83624   0.00000  Uiso   1.00
C1021  C     0.13340   0.14196   0.68776   0.00000  Uiso   1.00
C1022  C     0.20006   0.19128   0.97894   0.00000  Uiso   1.00
C1023  C     0.13342   0.14208   0.97172   0.00000  Uiso   1.00
C1024  C     0.19933   0.19184   0.69488   0.00000  Uiso   1.00
Cu1025 Cu    0.16667   0.16667   0.88022   0.00000  Uiso   1.00
Cu1026 Cu    0.16667   0.16666   0.78645   0.00000  Uiso   1.00
N1027  N     0.16668   0.16668   0.95069   0.00000  Uiso   1.00
N1028  N     0.16665   0.16666   0.71597   0.00000  Uiso   1.00
O1029  O     0.16666   0.10655   0.87291   0.00000  Uiso   1.00
O1030  O     0.16667   0.22678   0.79375   0.00000  Uiso   1.00
O1031  O     0.16666   0.10654   0.79372   0.00000  Uiso   1.00
O1032  O     0.16667   0.22679   0.87294   0.00000  Uiso   1.00
O1033  O     0.09161   0.16667   0.86379   0.00000  Uiso   1.00
O1034  O     0.24172   0.16666   0.80288   0.00000  Uiso   1.00
O1035  O     0.09161   0.16666   0.78460   0.00000  Uiso   1.00
O1036  O     0.24172   0.16667   0.88207   0.00000  Uiso   1.00
C1037  C     0.32416   0.15374   0.76664   0.00000  Uiso   1.00
O1038  O     0.33291   0.17544   0.73338   0.00000  Uiso   1.00
O1039  O     0.29587   0.11740   0.75886   0.00000  Uiso   1.00
H1040  H     0.28460   0.11289   0.72427   0.00000  Uiso   1.00
C1041  C     0.00883   0.17835   0.90092   0.00000  Uiso   1.00
O1042  O     0.33085   0.15717   0.93370   0.00000  Uiso   1.00
O1043  O     0.03960   0.21323   0.90983   0.00000  Uiso   1.00
H1044  H     0.05124   0.21676   0.94455   0.00000  Uiso   1.00
C1045  C     0.21185   0.04064   0.76106   0.00000  Uiso   1.00
O1046  O     0.25741   0.03604   0.76614   0.00000  Uiso   1.00
O1047  O     0.18874   0.06200   0.72225   0.00000  Uiso   1.00
H1048  H     0.21345   0.07205   0.70041   0.00000  Uiso   1.00
C1049  C     0.12367   0.28997   0.90732   0.00000  Uiso   1.00
O1050  O     0.07757   0.28868   0.90191   0.00000  Uiso   1.00
O1051  O     0.15075   0.27376   0.94773   0.00000  Uiso   1.00
H1052  H     0.12821   0.25792   0.96773   0.00000  Uiso   1.00
C1053  C     0.15114   0.29698   0.74318   0.00000  Uiso   1.00
O1054  O     0.17576   0.30449   0.71096   0.00000  Uiso   1.00
O1055  O     0.10574   0.27400   0.73525   0.00000  Uiso   1.00
H1056  H     0.09707   0.26496   0.70169   0.00000  Uiso   1.00
C1057  C     0.16673   0.03691   0.92389   0.00000  Uiso   1.00
O1058  O     0.20488   0.05656   0.93931   0.00000  Uiso   1.00
O1059  O     0.12889   0.02846   0.95227   0.00000  Uiso   1.00
H1060  H     0.13678   0.04036   0.98457   0.00000  Uiso   1.00
Cl1061 Cl    0.08959   0.10923   0.71209   0.00000  Uiso   1.00
Cl1062 Cl    0.24448   0.22351   0.95473   0.00000  Uiso   1.00
Cl1063 Cl    0.09006   0.10976   0.93762   0.00000  Uiso   1.00
Cl1064 Cl    0.23996   0.22669   0.72849   0.00000  Uiso   1.00
C1065  C     0.50378   0.08748   0.83440   0.00000  Uiso   1.00
C1066  C     0.49582   0.24573   0.83232   0.00000  Uiso   1.00
C1067  C     0.40164   0.16715   0.82155   0.00000  Uiso   1.00
C1068  C     0.59834   0.16612   0.84518   0.00000  Uiso   1.00
C1069  C     0.34688   0.16472   0.81509   0.00000  Uiso   1.00
C1070  C     0.65310   0.16838   0.85197   0.00000  Uiso   1.00
C1071  C     0.51462   0.02162   0.79534   0.00000  Uiso   1.00
C1072  C     0.48391   0.31103   0.87176   0.00000  Uiso   1.00
C1073  C     0.50057   0.31354   0.79075   0.00000  Uiso   1.00
C1074  C     0.49546   0.01951   0.87609   0.00000  Uiso   1.00
C1075  C     0.49140   0.29062   0.83089   0.00000  Uiso   1.00
C1076  C     0.50710   0.04243   0.83624   0.00000  Uiso   1.00
C1077  C     0.46674   0.14196   0.68776   0.00000  Uiso   1.00
C1078  C     0.53340   0.19128   0.97894   0.00000  Uiso   1.00
C1079  C     0.46675   0.14208   0.97172   0.00000  Uiso   1.00
C1080  C     0.53266   0.19184   0.69488   0.00000  Uiso   1.00
Cu1081 Cu    0.50000   0.16667   0.88022   0.00000  Uiso   1.00
Cu1082 Cu    0.50000   0.16666   0.78645   0.00000  Uiso   1.00
N1083  N     0.50001   0.16668   0.95069   0.00000  Uiso   1.00
N1084  N     0.49999   0.16666   0.71597   0.00000  Uiso   1.00
O1085  O     0.50000   0.10655   0.87291   0.00000  Uiso   1.00
O1086  O     0.50000   0.22678   0.79375   0.00000  Uiso   1.00
O1087  O     0.50000   0.10654   0.79372   0.00000  Uiso   1.00
O1088  O     0.50000   0.22679   0.87294   0.00000  Uiso   1.00
O1089  O     0.42495   0.16667   0.86379   0.00000  Uiso   1.00
O1090  O     0.57505   0.16666   0.80288   0.00000  Uiso   1.00
O1091  O     0.42494   0.16666   0.78460   0.00000  Uiso   1.00
O1092  O     0.57506   0.16667   0.88207   0.00000  Uiso   1.00
C1093  C     0.65749   0.15374   0.76664   0.00000  Uiso   1.00
O1094  O     0.66624   0.17544   0.73338   0.00000  Uiso   1.00
O1095  O     0.62920   0.11740   0.75886   0.00000  Uiso   1.00
H1096  H     0.61793   0.11289   0.72427   0.00000  Uiso   1.00
C1097  C     0.34216   0.17835   0.90092   0.00000  Uiso   1.00
O1098  O     0.66419   0.15717   0.93370   0.00000  Uiso   1.00
O1099  O     0.37293   0.21323   0.90983   0.00000  Uiso   1.00
H1100  H     0.38458   0.21676   0.94455   0.00000  Uiso   1.00
C1101  C     0.54519   0.04064   0.76106   0.00000  Uiso   1.00
O1102  O     0.59074   0.03604   0.76614   0.00000  Uiso   1.00
O1103  O     0.52208   0.06200   0.72225   0.00000  Uiso   1.00
H1104  H     0.54678   0.07205   0.70041   0.00000  Uiso   1.00
C1105  C     0.45701   0.28997   0.90732   0.00000  Uiso   1.00
O1106  O     0.41090   0.28868   0.90191   0.00000  Uiso   1.00
O1107  O     0.48408   0.27376   0.94773   0.00000  Uiso   1.00
H1108  H     0.46155   0.25792   0.96773   0.00000  Uiso   1.00
C1109  C     0.48448   0.29698   0.74318   0.00000  Uiso   1.00
O1110  O     0.50909   0.30449   0.71096   0.00000  Uiso   1.00
O1111  O     0.43908   0.27400   0.73525   0.00000  Uiso   1.00
H1112  H     0.43041   0.26496   0.70169   0.00000  Uiso   1.00
C1113  C     0.50006   0.03691   0.92389   0.00000  Uiso   1.00
O1114  O     0.53822   0.05656   0.93931   0.00000  Uiso   1.00
O1115  O     0.46222   0.02846   0.95227   0.00000  Uiso   1.00
H1116  H     0.47011   0.04036   0.98457   0.00000  Uiso   1.00
Cl1117 Cl    0.42292   0.10923   0.71209   0.00000  Uiso   1.00
Cl1118 Cl    0.57782   0.22351   0.95473   0.00000  Uiso   1.00
Cl1119 Cl    0.42340   0.10976   0.93762   0.00000  Uiso   1.00
Cl1120 Cl    0.57330   0.22669   0.72849   0.00000  Uiso   1.00
C1121  C     0.83712   0.08748   0.83440   0.00000  Uiso   1.00
C1122  C     0.82915   0.24573   0.83232   0.00000  Uiso   1.00
C1123  C     0.73498   0.16715   0.82155   0.00000  Uiso   1.00
C1124  C     0.93167   0.16612   0.84518   0.00000  Uiso   1.00
C1125  C     0.68021   0.16472   0.81509   0.00000  Uiso   1.00
C1126  C     0.98643   0.16838   0.85197   0.00000  Uiso   1.00
C1127  C     0.84795   0.02162   0.79534   0.00000  Uiso   1.00
C1128  C     0.81725   0.31103   0.87176   0.00000  Uiso   1.00
C1129  C     0.83390   0.31354   0.79075   0.00000  Uiso   1.00
C1130  C     0.82880   0.01951   0.87609   0.00000  Uiso   1.00
C1131  C     0.82474   0.29062   0.83089   0.00000  Uiso   1.00
C1132  C     0.84043   0.04243   0.83624   0.00000  Uiso   1.00
C1133  C     0.80007   0.14196   0.68776   0.00000  Uiso   1.00
C1134  C     0.86673   0.19128   0.97894   0.00000  Uiso   1.00
C1135  C     0.80009   0.14208   0.97172   0.00000  Uiso   1.00
C1136  C     0.86599   0.19184   0.69488   0.00000  Uiso   1.00
Cu1137 Cu    0.83333   0.16667   0.88022   0.00000  Uiso   1.00
Cu1138 Cu    0.83333   0.16666   0.78645   0.00000  Uiso   1.00
N1139  N     0.83335   0.16668   0.95069   0.00000  Uiso   1.00
N1140  N     0.83332   0.16666   0.71597   0.00000  Uiso   1.00
O1141  O     0.83333   0.10655   0.87291   0.00000  Uiso   1.00
O1142  O     0.83334   0.22678   0.79375   0.00000  Uiso   1.00
O1143  O     0.83333   0.10654   0.79372   0.00000  Uiso   1.00
O1144  O     0.83334   0.22679   0.87294   0.00000  Uiso   1.00
O1145  O     0.75828   0.16667   0.86379   0.00000  Uiso   1.00
O1146  O     0.90839   0.16666   0.80288   0.00000  Uiso   1.00
O1147  O     0.75828   0.16666   0.78460   0.00000  Uiso   1.00
O1148  O     0.90839   0.16667   0.88207   0.00000  Uiso   1.00
C1149  C     0.99083   0.15374   0.76664   0.00000  Uiso   1.00
O1150  O     0.99958   0.17544   0.73338   0.00000  Uiso   1.00
O1151  O     0.96253   0.11740   0.75886   0.00000  Uiso   1.00
H1152  H     0.95126   0.11289   0.72427   0.00000  Uiso   1.00
C1153  C     0.67550   0.17835   0.90092   0.00000  Uiso   1.00
O1154  O     0.99752   0.15717   0.93370   0.00000  Uiso   1.00
O1155  O     0.70627   0.21323   0.90983   0.00000  Uiso   1.00
H1156  H     0.71791   0.21676   0.94455   0.00000  Uiso   1.00
C1157  C     0.87852   0.04064   0.76106   0.00000  Uiso   1.00
O1158  O     0.92407   0.03604   0.76614   0.00000  Uiso   1.00
O1159  O     0.85541   0.06200   0.72225   0.00000  Uiso   1.00
H1160  H     0.88011   0.07205   0.70041   0.00000  Uiso   1.00
C1161  C     0.79034   0.28997   0.90732   0.00000  Uiso   1.00
O1162  O     0.74423   0.28868   0.90191   0.00000  Uiso   1.00
O1163  O     0.81742   0.27376   0.94773   0.00000  Uiso   1.00
H1164  H     0.79488   0.25792   0.96773   0.00000  Uiso   1.00
C1165  C     0.81781   0.29698   0.74318   0.00000  Uiso   1.00
O1166  O     0.84243   0.30449   0.71096   0.00000  Uiso   1.00
O1167  O     0.77241   0.27400   0.73525   0.00000  Uiso   1.00
H1168  H     0.76374   0.26496   0.70169   0.00000  Uiso   1.00
C1169  C     0.83340   0.03691   0.92389   0.00000  Uiso   1.00
O1170  O     0.87155   0.05656   0.93931   0.00000  Uiso   1.00
O1171  O     0.79556   0.02846   0.95227   0.00000  Uiso   1.00
H1172  H     0.80345   0.04036   0.98457   0.00000  Uiso   1.00
Cl1173 Cl    0.75625   0.10923   0.71209   0.00000  Uiso   1.00
Cl1174 Cl    0.91115   0.22351   0.95473   0.00000  Uiso   1.00
Cl1175 Cl    0.75673   0.10976   0.93762   0.00000  Uiso   1.00
Cl1176 Cl    0.90663   0.22669   0.72849   0.00000  Uiso   1.00
C1177  C     0.17045   0.42081   0.83440   0.00000  Uiso   1.00
C1178  C     0.16249   0.57906   0.83232   0.00000  Uiso   1.00
C1179  C     0.06831   0.50048   0.82155   0.00000  Uiso   1.00
C1180  C     0.26500   0.49945   0.84518   0.00000  Uiso   1.00
C1181  C     0.01354   0.49805   0.81509   0.00000  Uiso   1.00
C1182  C     0.31977   0.50171   0.85197   0.00000  Uiso   1.00
C1183  C     0.18129   0.35495   0.79534   0.00000  Uiso   1.00
C1184  C     0.15058   0.64436   0.87176   0.00000  Uiso   1.00
C1185  C     0.16723   0.64687   0.79075   0.00000  Uiso   1.00
C1186  C     0.16213   0.35284   0.87609   0.00000  Uiso   1.00
C1187  C     0.15807   0.62395   0.83089   0.00000  Uiso   1.00
C1188  C     0.17377   0.37576   0.83624   0.00000  Uiso   1.00
C1189  C     0.13340   0.47529   0.68776   0.00000  Uiso   1.00
C1190  C     0.20006   0.52462   0.97894   0.00000  Uiso   1.00
C1191  C     0.13342   0.47542   0.97172   0.00000  Uiso   1.00
C1192  C     0.19933   0.52517   0.69488   0.00000  Uiso   1.00
Cu1193 Cu    0.16667   0.50001   0.88022   0.00000  Uiso   1.00
Cu1194 Cu    0.16667   0.49999   0.78645   0.00000  Uiso   1.00
N1195  N     0.16668   0.50001   0.95069   0.00000  Uiso   1.00
N1196  N     0.16665   0.49999   0.71597   0.00000  Uiso   1.00
O1197  O     0.16666   0.43989   0.87291   0.00000  Uiso   1.00
O1198  O     0.16667   0.56011   0.79375   0.00000  Uiso   1.00
O1199  O     0.16666   0.43988   0.79372   0.00000  Uiso   1.00
O1200  O     0.16667   0.56012   0.87294   0.00000  Uiso   1.00
O1201  O     0.09161   0.50000   0.86379   0.00000  Uiso   1.00
O1202  O     0.24172   0.50000   0.80288   0.00000  Uiso   1.00
O1203  O     0.09161   0.49999   0.78460   0.00000  Uiso   1.00
O1204  O     0.24172   0.50001   0.88207   0.00000  Uiso   1.00
C1205  C     0.32416   0.48708   0.76664   0.00000  Uiso   1.00
O1206  O     0.33291   0.50877   0.73338   0.00000  Uiso   1.00
O1207  O     0.29587   0.45074   0.75886   0.00000  Uiso   1.00
H1208  H     0.28460   0.44623   0.72427   0.00000  Uiso   1.00
C1209  C     0.00883   0.51168   0.90092   0.00000  Uiso   1.00
O1210  O     0.33085   0.49051   0.93370   0.00000  Uiso   1.00
O1211  O     0.03960   0.54656   0.90983   0.00000  Uiso   1.00
H1212  H     0.05124   0.55009   0.94455   0.00000  Uiso   1.00
C1213  C     0.21185   0.37397   0.76106   0.00000  Uiso   1.00
O1214  O     0.25741   0.36938   0.76614   0.00000  Uiso   1.00
O1215  O     0.18874   0.39533   0.72225   0.00000  Uiso   1.00
H1216  H     0.21345   0.40539   0.70041   0.00000  Uiso   1.00
C1217  C     0.12367   0.62330   0.90732   0.00000  Uiso   1.00
O1218  O     0.07757   0.62201   0.90191   0.00000  Uiso   1.00
O1219  O     0.15075   0.60710   0.94773   0.00000  Uiso   1.00
H1220  H     0.12821   0.59126   0.96773   0.00000  Uiso   1.00
C1221  C     0.15114   0.63031   0.74318   0.00000  Uiso   1.00
O1222  O     0.17576   0.63782   0.71096   0.00000  Uiso   1.00
O1223  O     0.10574   0.60734   0.73525   0.00000  Uiso   1.00
H1224  H     0.09707   0.59829   0.70169   0.00000  Uiso   1.00
C1225  C     0.16673   0.37025   0.92389   0.00000  Uiso   1.00
O1226  O     0.20488   0.38990   0.93931   0.00000  Uiso   1.00
O1227  O     0.12889   0.36179   0.95227   0.00000  Uiso   1.00
H1228  H     0.13678   0.37369   0.98457   0.00000  Uiso   1.00
Cl1229 Cl    0.08959   0.44256   0.71209   0.00000  Uiso   1.00
Cl1230 Cl    0.24448   0.55684   0.95473   0.00000  Uiso   1.00
Cl1231 Cl    0.09006   0.44309   0.93762   0.00000  Uiso   1.00
Cl1232 Cl    0.23996   0.56003   0.72849   0.00000  Uiso   1.00
C1233  C     0.50378   0.42081   0.83440   0.00000  Uiso   1.00
C1234  C     0.49582   0.57906   0.83232   0.00000  Uiso   1.00
C1235  C     0.40164   0.50048   0.82155   0.00000  Uiso   1.00
C1236  C     0.59834   0.49945   0.84518   0.00000  Uiso   1.00
C1237  C     0.34688   0.49805   0.81509   0.00000  Uiso   1.00
C1238  C     0.65310   0.50171   0.85197   0.00000  Uiso   1.00
C1239  C     0.51462   0.35495   0.79534   0.00000  Uiso   1.00
C1240  C     0.48391   0.64436   0.87176   0.00000  Uiso   1.00
C1241  C     0.50057   0.64687   0.79075   0.00000  Uiso   1.00
C1242  C     0.49546   0.35284   0.87609   0.00000  Uiso   1.00
C1243  C     0.49140   0.62395   0.83089   0.00000  Uiso   1.00
C1244  C     0.50710   0.37576   0.83624   0.00000  Uiso   1.00
C1245  C     0.46674   0.47529   0.68776   0.00000  Uiso   1.00
C1246  C     0.53340   0.52462   0.97894   0.00000  Uiso   1.00
C1247  C     0.46675   0.47542   0.97172   0.00000  Uiso   1.00
C1248  C     0.53266   0.52517   0.69488   0.00000  Uiso   1.00
Cu1249 Cu    0.50000   0.50001   0.88022   0.00000  Uiso   1.00
Cu1250 Cu    0.50000   0.49999   0.78645   0.00000  Uiso   1.00
N1251  N     0.50001   0.50001   0.95069   0.00000  Uiso   1.00
N1252  N     0.49999   0.49999   0.71597   0.00000  Uiso   1.00
O1253  O     0.50000   0.43989   0.87291   0.00000  Uiso   1.00
O1254  O     0.50000   0.56011   0.79375   0.00000  Uiso   1.00
O1255  O     0.50000   0.43988   0.79372   0.00000  Uiso   1.00
O1256  O     0.50000   0.56012   0.87294   0.00000  Uiso   1.00
O1257  O     0.42495   0.50000   0.86379   0.00000  Uiso   1.00
O1258  O     0.57505   0.50000   0.80288   0.00000  Uiso   1.00
O1259  O     0.42494   0.49999   0.78460   0.00000  Uiso   1.00
O1260  O     0.57506   0.50001   0.88207   0.00000  Uiso   1.00
C1261  C     0.65749   0.48708   0.76664   0.00000  Uiso   1.00
O1262  O     0.66624   0.50877   0.73338   0.00000  Uiso   1.00
O1263  O     0.62920   0.45074   0.75886   0.00000  Uiso   1.00
H1264  H     0.61793   0.44623   0.72427   0.00000  Uiso   1.00
C1265  C     0.34216   0.51168   0.90092   0.00000  Uiso   1.00
O1266  O     0.66419   0.49051   0.93370   0.00000  Uiso   1.00
O1267  O     0.37293   0.54656   0.90983   0.00000  Uiso   1.00
H1268  H     0.38458   0.55009   0.94455   0.00000  Uiso   1.00
C1269  C     0.54519   0.37397   0.76106   0.00000  Uiso   1.00
O1270  O     0.59074   0.36938   0.76614   0.00000  Uiso   1.00
O1271  O     0.52208   0.39533   0.72225   0.00000  Uiso   1.00
H1272  H     0.54678   0.40539   0.70041   0.00000  Uiso   1.00
C1273  C     0.45701   0.62330   0.90732   0.00000  Uiso   1.00
O1274  O     0.41090   0.62201   0.90191   0.00000  Uiso   1.00
O1275  O     0.48408   0.60710   0.94773   0.00000  Uiso   1.00
H1276  H     0.46155   0.59126   0.96773   0.00000  Uiso   1.00
C1277  C     0.48448   0.63031   0.74318   0.00000  Uiso   1.00
O1278  O     0.50909   0.63782   0.71096   0.00000  Uiso   1.00
O1279  O     0.43908   0.60734   0.73525   0.00000  Uiso   1.00
H1280  H     0.43041   0.59829   0.70169   0.00000  Uiso   1.00
C1281  C     0.50006   0.37025   0.92389   0.00000  Uiso   1.00
O1282  O     0.53822   0.38990   0.93931   0.00000  Uiso   1.00
O1283  O     0.46222   0.36179   0.95227   0.00000  Uiso   1.00
H1284  H     0.47011   0.37369   0.98457   0.00000  Uiso   1.00
Cl1285 Cl    0.42292   0.44256   0.71209   0.00000  Uiso   1.00
Cl1286 Cl    0.57782   0.55684   0.95473   0.00000  Uiso   1.00
Cl1287 Cl    0.42340   0.44309   0.93762   0.00000  Uiso   1.00
Cl1288 Cl    0.57330   0.56003   0.72849   0.00000  Uiso   1.00
C1289  C     0.83712   0.42081   0.83440   0.00000  Uiso   1.00
C1290  C     0.82915   0.57906   0.83232   0.00000  Uiso   1.00
C1291  C     0.73498   0.50048   0.82155   0.00000  Uiso   1.00
C1292  C     0.93167   0.49945   0.84518   0.00000  Uiso   1.00
C1293  C     0.68021   0.49805   0.81509   0.00000  Uiso   1.00
C1294  C     0.98643   0.50171   0.85197   0.00000  Uiso   1.00
C1295  C     0.84795   0.35495   0.79534   0.00000  Uiso   1.00
C1296  C     0.81725   0.64436   0.87176   0.00000  Uiso   1.00
C1297  C     0.83390   0.64687   0.79075   0.00000  Uiso   1.00
C1298  C     0.82880   0.35284   0.87609   0.00000  Uiso   1.00
C1299  C     0.82474   0.62395   0.83089   0.00000  Uiso   1.00
C1300  C     0.84043   0.37576   0.83624   0.00000  Uiso   1.00
C1301  C     0.80007   0.47529   0.68776   0.00000  Uiso   1.00
C1302  C     0.86673   0.52462   0.97894   0.00000  Uiso   1.00
C1303  C     0.80009   0.47542   0.97172   0.00000  Uiso   1.00
C1304  C     0.86599   0.52517   0.69488   0.00000  Uiso   1.00
Cu1305 Cu    0.83333   0.50001   0.88022   0.00000  Uiso   1.00
Cu1306 Cu    0.83333   0.49999   0.78645   0.00000  Uiso   1.00
N1307  N     0.83335   0.50001   0.95069   0.00000  Uiso   1.00
N1308  N     0.83332   0.49999   0.71597   0.00000  Uiso   1.00
O1309  O     0.83333   0.43989   0.87291   0.00000  Uiso   1.00
O1310  O     0.83334   0.56011   0.79375   0.00000  Uiso   1.00
O1311  O     0.83333   0.43988   0.79372   0.00000  Uiso   1.00
O1312  O     0.83334   0.56012   0.87294   0.00000  Uiso   1.00
O1313  O     0.75828   0.50000   0.86379   0.00000  Uiso   1.00
O1314  O     0.90839   0.50000   0.80288   0.00000  Uiso   1.00
O1315  O     0.75828   0.49999   0.78460   0.00000  Uiso   1.00
O1316  O     0.90839   0.50001   0.88207   0.00000  Uiso   1.00
C1317  C     0.99083   0.48708   0.76664   0.00000  Uiso   1.00
O1318  O     0.99958   0.50877   0.73338   0.00000  Uiso   1.00
O1319  O     0.96253   0.45074   0.75886   0.00000  Uiso   1.00
H1320  H     0.95126   0.44623   0.72427   0.00000  Uiso   1.00
C1321  C     0.67550   0.51168   0.90092   0.00000  Uiso   1.00
O1322  O     0.99752   0.49051   0.93370   0.00000  Uiso   1.00
O1323  O     0.70627   0.54656   0.90983   0.00000  Uiso   1.00
H1324  H     0.71791   0.55009   0.94455   0.00000  Uiso   1.00
C1325  C     0.87852   0.37397   0.76106   0.00000  Uiso   1.00
O1326  O     0.92407   0.36938   0.76614   0.00000  Uiso   1.00
O1327  O     0.85541   0.39533   0.72225   0.00000  Uiso   1.00
H1328  H     0.88011   0.40539   0.70041   0.00000  Uiso   1.00
C1329  C     0.79034   0.62330   0.90732   0.00000  Uiso   1.00
O1330  O     0.74423   0.62201   0.90191   0.00000  Uiso   1.00
O1331  O     0.81742   0.60710   0.94773   0.00000  Uiso   1.00
H1332  H     0.79488   0.59126   0.96773   0.00000  Uiso   1.00
C1333  C     0.81781   0.63031   0.74318   0.00000  Uiso   1.00
O1334  O     0.84243   0.63782   0.71096   0.00000  Uiso   1.00
O1335  O     0.77241   0.60734   0.73525   0.00000  Uiso   1.00
H1336  H     0.76374   0.59829   0.70169   0.00000  Uiso   1.00
C1337  C     0.83340   0.37025   0.92389   0.00000  Uiso   1.00
O1338  O     0.87155   0.38990   0.93931   0.00000  Uiso   1.00
O1339  O     0.79556   0.36179   0.95227   0.00000  Uiso   1.00
H1340  H     0.80345   0.37369   0.98457   0.00000  Uiso   1.00
Cl1341 Cl    0.75625   0.44256   0.71209   0.00000  Uiso   1.00
Cl1342 Cl    0.91115   0.55684   0.95473   0.00000  Uiso   1.00
Cl1343 Cl    0.75673   0.44309   0.93762   0.00000  Uiso   1.00
Cl1344 Cl    0.90663   0.56003   0.72849   0.00000  Uiso   1.00
C1345  C     0.17045   0.75415   0.83440   0.00000  Uiso   1.00
C1346  C     0.16249   0.91240   0.83232   0.00000  Uiso   1.00
C1347  C     0.06831   0.83382   0.82155   0.00000  Uiso   1.00
C1348  C     0.26500   0.83278   0.84518   0.00000  Uiso   1.00
C1349  C     0.01354   0.83139   0.81509   0.00000  Uiso   1.00
C1350  C     0.31977   0.83504   0.85197   0.00000  Uiso   1.00
C1351  C     0.18129   0.68828   0.79534   0.00000  Uiso   1.00
C1352  C     0.15058   0.97769   0.87176   0.00000  Uiso   1.00
C1353  C     0.16723   0.98021   0.79075   0.00000  Uiso   1.00
C1354  C     0.16213   0.68617   0.87609   0.00000  Uiso   1.00
C1355  C     0.15807   0.95728   0.83089   0.00000  Uiso   1.00
C1356  C     0.17377   0.70909   0.83624   0.00000  Uiso   1.00
C1357  C     0.13340   0.80862   0.68776   0.00000  Uiso   1.00
C1358  C     0.20006   0.85795   0.97894   0.00000  Uiso   1.00
C1359  C     0.13342   0.80875   0.97172   0.00000  Uiso   1.00
C1360  C     0.19933   0.85850   0.69488   0.00000  Uiso   1.00
Cu1361 Cu    0.16667   0.83334   0.88022   0.00000  Uiso   1.00
Cu1362 Cu    0.16667   0.83333   0.78645   0.00000  Uiso   1.00
N1363  N     0.16668   0.83334   0.95069   0.00000  Uiso   1.00
N1364  N     0.16665   0.83332   0.71597   0.00000  Uiso   1.00
O1365  O     0.16666   0.77322   0.87291   0.00000  Uiso   1.00
O1366  O     0.16667   0.89345   0.79375   0.00000  Uiso   1.00
O1367  O     0.16666   0.77321   0.79372   0.00000  Uiso   1.00
O1368  O     0.16667   0.89346   0.87294   0.00000  Uiso   1.00
O1369  O     0.09161   0.83334   0.86379   0.00000  Uiso   1.00
O1370  O     0.24172   0.83333   0.80288   0.00000  Uiso   1.00
O1371  O     0.09161   0.83333   0.78460   0.00000  Uiso   1.00
O1372  O     0.24172   0.83334   0.88207   0.00000  Uiso   1.00
C1373  C     0.32416   0.82041   0.76664   0.00000  Uiso   1.00
O1374  O     0.33291   0.84210   0.73338   0.00000  Uiso   1.00
O1375  O     0.29587   0.78407   0.75886   0.00000  Uiso   1.00
H1376  H     0.28460   0.77956   0.72427   0.00000  Uiso   1.00
C1377  C     0.00883   0.84501   0.90092   0.00000  Uiso   1.00
O1378  O     0.33085   0.82384   0.93370   0.00000  Uiso   1.00
O1379  O     0.03960   0.87989   0.90983   0.00000  Uiso   1.00
H1380  H     0.05124   0.88342   0.94455   0.00000  Uiso   1.00
C1381  C     0.21185   0.70731   0.76106   0.00000  Uiso   1.00
O1382  O     0.25741   0.70271   0.76614   0.00000  Uiso   1.00
O1383  O     0.18874   0.72867   0.72225   0.00000  Uiso   1.00
H1384  H     0.21345   0.73872   0.70041   0.00000  Uiso   1.00
C1385  C     0.12367   0.95663   0.90732   0.00000  Uiso   1.00
O1386  O     0.07757   0.95535   0.90191   0.00000  Uiso   1.00
O1387  O     0.15075   0.94043   0.94773   0.00000  Uiso   1.00
H1388  H     0.12821   0.92459   0.96773   0.00000  Uiso   1.00
C1389  C     0.15114   0.96365   0.74318   0.00000  Uiso   1.00
O1390  O     0.17576   0.97115   0.71096   0.00000  Uiso   1.00
O1391  O     0.10574   0.94067   0.73525   0.00000  Uiso   1.00
H1392  H     0.09707   0.93163   0.70169   0.00000  Uiso   1.00
C1393  C     0.16673   0.70358   0.92389   0.00000  Uiso   1.00
O1394  O     0.20488   0.72323   0.93931   0.00000  Uiso   1.00
O1395  O     0.12889   0.69512   0.95227   0.00000  Uiso   1.00
H1396  H     0.13678   0.70702   0.98457   0.00000  Uiso   1.00
Cl1397 Cl    0.08959   0.77589   0.71209   0.00000  Uiso   1.00
Cl1398 Cl    0.24448   0.89017   0.95473   0.00000  Uiso   1.00
Cl1399 Cl    0.09006   0.77643   0.93762   0.00000  Uiso   1.00
Cl1400 Cl    0.23996   0.89336   0.72849   0.00000  Uiso   1.00
C1401  C     0.50378   0.75415   0.83440   0.00000  Uiso   1.00
C1402  C     0.49582   0.91240   0.83232   0.00000  Uiso   1.00
C1403  C     0.40164   0.83382   0.82155   0.00000  Uiso   1.00
C1404  C     0.59834   0.83278   0.84518   0.00000  Uiso   1.00
C1405  C     0.34688   0.83139   0.81509   0.00000  Uiso   1.00
C1406  C     0.65310   0.83504   0.85197   0.00000  Uiso   1.00
C1407  C     0.51462   0.68828   0.79534   0.00000  Uiso   1.00
C1408  C     0.48391   0.97769   0.87176   0.00000  Uiso   1.00
C1409  C     0.50057   0.98021   0.79075   0.00000  Uiso   1.00
C1410  C     0.49546   0.68617   0.87609   0.00000  Uiso   1.00
C1411  C     0.49140   0.95728   0.83089   0.00000  Uiso   1.00
C1412  C     0.50710   0.70909   0.83624   0.00000  Uiso   1.00
C1413  C     0.46674   0.80862   0.68776   0.00000  Uiso   1.00
C1414  C     0.53340   0.85795   0.97894   0.00000  Uiso   1.00
C1415  C     0.46675   0.80875   0.97172   0.00000  Uiso   1.00
C1416  C     0.53266   0.85850   0.69488   0.00000  Uiso   1.00
Cu1417 Cu    0.50000   0.83334   0.88022   0.00000  Uiso   1.00
Cu1418 Cu    0.50000   0.83333   0.78645   0.00000  Uiso   1.00
N1419  N     0.50001   0.83334   0.95069   0.00000  Uiso   1.00
N1420  N     0.49999   0.83332   0.71597   0.00000  Uiso   1.00
O1421  O     0.50000   0.77322   0.87291   0.00000  Uiso   1.00
O1422  O     0.50000   0.89345   0.79375   0.00000  Uiso   1.00
O1423  O     0.50000   0.77321   0.79372   0.00000  Uiso   1.00
O1424  O     0.50000   0.89346   0.87294   0.00000  Uiso   1.00
O1425  O     0.42495   0.83334   0.86379   0.00000  Uiso   1.00
O1426  O     0.57505   0.83333   0.80288   0.00000  Uiso   1.00
O1427  O     0.42494   0.83333   0.78460   0.00000  Uiso   1.00
O1428  O     0.57506   0.83334   0.88207   0.00000  Uiso   1.00
C1429  C     0.65749   0.82041   0.76664   0.00000  Uiso   1.00
O1430  O     0.66624   0.84210   0.73338   0.00000  Uiso   1.00
O1431  O     0.62920   0.78407   0.75886   0.00000  Uiso   1.00
H1432  H     0.61793   0.77956   0.72427   0.00000  Uiso   1.00
C1433  C     0.34216   0.84501   0.90092   0.00000  Uiso   1.00
O1434  O     0.66419   0.82384   0.93370   0.00000  Uiso   1.00
O1435  O     0.37293   0.87989   0.90983   0.00000  Uiso   1.00
H1436  H     0.38458   0.88342   0.94455   0.00000  Uiso   1.00
C1437  C     0.54519   0.70731   0.76106   0.00000  Uiso   1.00
O1438  O     0.59074   0.70271   0.76614   0.00000  Uiso   1.00
O1439  O     0.52208   0.72867   0.72225   0.00000  Uiso   1.00
H1440  H     0.54678   0.73872   0.70041   0.00000  Uiso   1.00
C1441  C     0.45701   0.95663   0.90732   0.00000  Uiso   1.00
O1442  O     0.41090   0.95535   0.90191   0.00000  Uiso   1.00
O1443  O     0.48408   0.94043   0.94773   0.00000  Uiso   1.00
H1444  H     0.46155   0.92459   0.96773   0.00000  Uiso   1.00
C1445  C     0.48448   0.96365   0.74318   0.00000  Uiso   1.00
O1446  O     0.50909   0.97115   0.71096   0.00000  Uiso   1.00
O1447  O     0.43908   0.94067   0.73525   0.00000  Uiso   1.00
H1448  H     0.43041   0.93163   0.70169   0.00000  Uiso   1.00
C1449  C     0.50006   0.70358   0.92389   0.00000  Uiso   1.00
O1450  O     0.53822   0.72323   0.93931   0.00000  Uiso   1.00
O1451  O     0.46222   0.69512   0.95227   0.00000  Uiso   1.00
H1452  H     0.47011   0.70702   0.98457   0.00000  Uiso   1.00
Cl1453 Cl    0.42292   0.77589   0.71209   0.00000  Uiso   1.00
Cl1454 Cl    0.57782   0.89017   0.95473   0.00000  Uiso   1.00
Cl1455 Cl    0.42340   0.77643   0.93762   0.00000  Uiso   1.00
Cl1456 Cl    0.57330   0.89336   0.72849   0.00000  Uiso   1.00
C1457  C     0.83712   0.75415   0.83440   0.00000  Uiso   1.00
C1458  C     0.82915   0.91240   0.83232   0.00000  Uiso   1.00
C1459  C     0.73498   0.83382   0.82155   0.00000  Uiso   1.00
C1460  C     0.93167   0.83278   0.84518   0.00000  Uiso   1.00
C1461  C     0.68021   0.83139   0.81509   0.00000  Uiso   1.00
C1462  C     0.98643   0.83504   0.85197   0.00000  Uiso   1.00
C1463  C     0.84795   0.68828   0.79534   0.00000  Uiso   1.00
C1464  C     0.81725   0.97769   0.87176   0.00000  Uiso   1.00
C1465  C     0.83390   0.98021   0.79075   0.00000  Uiso   1.00
C1466  C     0.82880   0.68617   0.87609   0.00000  Uiso   1.00
C1467  C     0.82474   0.95728   0.83089   0.00000  Uiso   1.00
C1468  C     0.84043   0.70909   0.83624   0.00000  Uiso   1.00
C1469  C     0.80007   0.80862   0.68776   0.00000  Uiso   1.00
C1470  C     0.86673   0.85795   0.97894   0.00000  Uiso   1.00
C1471  C     0.80009   0.80875   0.97172   0.00000  Uiso   1.00
C1472  C     0.86599   0.85850   0.69488   0.00000  Uiso   1.00
Cu1473 Cu    0.83333   0.83334   0.88022   0.00000  Uiso   1.00
Cu1474 Cu    0.83333   0.83333   0.78645   0.00000  Uiso   1.00
N1475  N     0.83335   0.83334   0.95069   0.00000  Uiso   1.00
N1476  N     0.83332   0.83332   0.71597   0.00000  Uiso   1.00
O1477  O     0.83333   0.77322   0.87291   0.00000  Uiso   1.00
O1478  O     0.83334   0.89345   0.79375   0.00000  Uiso   1.00
O1479  O     0.83333   0.77321   0.79372   0.00000  Uiso   1.00
O1480  O     0.83334   0.89346   0.87294   0.00000  Uiso   1.00
O1481  O     0.75828   0.83334   0.86379   0.00000  Uiso   1.00
O1482  O     0.90839   0.83333   0.80288   0.00000  Uiso   1.00
O1483  O     0.75828   0.83333   0.78460   0.00000  Uiso   1.00
O1484  O     0.90839   0.83334   0.88207   0.00000  Uiso   1.00
C1485  C     0.99083   0.82041   0.76664   0.00000  Uiso   1.00
O1486  O     0.99958   0.84210   0.73338   0.00000  Uiso   1.00
O1487  O     0.96253   0.78407   0.75886   0.00000  Uiso   1.00
H1488  H     0.95126   0.77956   0.72427   0.00000  Uiso   1.00
C1489  C     0.67550   0.84501   0.90092   0.00000  Uiso   1.00
O1490  O     0.99752   0.82384   0.93370   0.00000  Uiso   1.00
O1491  O     0.70627   0.87989   0.90983   0.00000  Uiso   1.00
H1492  H     0.71791   0.88342   0.94455   0.00000  Uiso   1.00
C1493  C     0.87852   0.70731   0.76106   0.00000  Uiso   1.00
O1494  O     0.92407   0.70271   0.76614   0.00000  Uiso   1.00
O1495  O     0.85541   0.72867   0.72225   0.00000  Uiso   1.00
H1496  H     0.88011   0.73872   0.70041   0.00000  Uiso   1.00
C1497  C     0.79034   0.95663   0.90732   0.00000  Uiso   1.00
O1498  O     0.74423   0.95535   0.90191   0.00000  Uiso   1.00
O1499  O     0.81742   0.94043   0.94773   0.00000  Uiso   1.00
H1500  H     0.79488   0.92459   0.96773   0.00000  Uiso   1.00
C1501  C     0.81781   0.96365   0.74318   0.00000  Uiso   1.00
O1502  O     0.84243   0.97115   0.71096   0.00000  Uiso   1.00
O1503  O     0.77241   0.94067   0.73525   0.00000  Uiso   1.00
H1504  H     0.76374   0.93163   0.70169   0.00000  Uiso   1.00
C1505  C     0.83340   0.70358   0.92389   0.00000  Uiso   1.00
O1506  O     0.87155   0.72323   0.93931   0.00000  Uiso   1.00
O1507  O     0.79556   0.69512   0.95227   0.00000  Uiso   1.00
H1508  H     0.80345   0.70702   0.98457   0.00000  Uiso   1.00
Cl1509 Cl    0.75625   0.77589   0.71209   0.00000  Uiso   1.00
Cl1510 Cl    0.91115   0.89017   0.95473   0.00000  Uiso   1.00
Cl1511 Cl    0.75673   0.77643   0.93762   0.00000  Uiso   1.00
Cl1512 Cl    0.90663   0.89336   0.72849   0.00000  Uiso   1.00
loop_
_geom_bond_atom_site_label_1
_geom_bond_atom_site_label_2
_geom_bond_distance
_geom_bond_site_symmetry_2
_ccdc_geom_bond_type
C1     O23     1.310   .     A
C1     O21     1.302   .     A
C1     C12     1.486   .     S
C2     O22     1.303   .     A
C2     C11     1.484   .     S
C2     O24     1.306   .     A
C3     O27     1.302   .     A
C3     O25     1.290   .     A
C3     C5      1.451   .     S
C4     O26     1.292   .     A
C4     C6      1.450   .     S
C4     O28     1.300   .     A
C5     C118    1.372   1_455 S
C5     C141    1.491   1_455 S
C6     C61     1.372   .     S
C6     C89     1.493   .     S
C7     C37     1.477   .     S
C7     C12     1.414   .     A
C7     C345    1.402   1_545 S
C8     C11     1.406   .     A
C8     C41     1.474   .     S
C8     C178    1.401   .     S
C9     C45     1.487   .     S
C9     C11     1.409   .     A
C9     C175    1.402   .     S
C10    C49     1.488   .     S
C10    C12     1.421   .     A
C10    C344    1.401   1_545 S
C13    Cl53    1.763   .     S
C13    N20     1.374   .     A
C13    C1023   1.421   1_554 S
C14    Cl54    1.763   .     S
C14    N19     1.375   .     A
C14    C520    1.421   .     S
C15    N19     1.370   .     A
C15    Cl55    1.755   .     S
C15    C517    1.421   .     S
C16    Cl56    1.761   .     S
C16    N20     1.371   .     A
C16    C1022   1.421   1_554 S
Cu17   O25     2.000   .     S
Cu17   Cu18    2.698   .     S
Cu17   N19     2.028   .     S
Cu17   O24     1.982   .     S
Cu17   O28     2.000   .     S
Cu17   O21     1.991   .     S
Cu18   O23     1.982   .     S
Cu18   N20     2.028   .     S
Cu18   O26     2.000   .     S
Cu18   O22     1.991   .     S
Cu18   O27     2.000   .     S
C29    O30     1.223   .     D
C29    O31     1.395   .     S
C29    C61     1.491   .     S
O31    H32     1.013   .     S
C33    O35     1.393   .     S
C33    C118    1.493   1_455 S
C33    O146    1.224   1_455 S
O34    C89     1.224   .     S
O35    H36     1.014   .     S
C37    O38     1.222   .     D
C37    O39     1.393   .     S
O39    H40     1.012   .     S
C41    O42     1.221   .     D
C41    O43     1.393   .     S
O43    H44     1.010   .     S
C45    O46     1.222   .     D
C45    O47     1.400   .     S
O47    H48     1.011   .     S
C49    O50     1.223   .     D
C49    O51     1.398   .     S
O51    H52     1.009   .     S
C57    O79     1.310   .     A
C57    O77     1.302   .     A
C57    C68     1.486   .     S
C58    O78     1.303   .     A
C58    C67     1.484   .     S
C58    O80     1.306   .     A
C59    O83     1.302   .     A
C59    O81     1.290   .     A
C59    C61     1.451   .     S
C60    O82     1.292   .     A
C60    C62     1.450   .     S
C60    O84     1.300   .     A
C62    C117    1.372   .     S
C62    C145    1.493   .     S
C63    C93     1.477   .     S
C63    C68     1.414   .     A
C63    C401    1.402   1_545 S
C64    C67     1.406   .     A
C64    C97     1.474   .     S
C64    C234    1.401   .     S
C65    C101    1.487   .     S
C65    C67     1.409   .     A
C65    C231    1.402   .     S
C66    C105    1.488   .     S
C66    C68     1.421   .     A
C66    C400    1.401   1_545 S
C69    Cl109   1.763   .     S
C69    N76     1.374   .     A
C69    C1079   1.421   1_554 S
C70    Cl110   1.763   .     S
C70    N75     1.375   .     A
C70    C576    1.421   .     S
C71    N75     1.370   .     A
C71    Cl111   1.755   .     S
C71    C573    1.421   .     S
C72    Cl112   1.761   .     S
C72    N76     1.371   .     A
C72    C1078   1.421   1_554 S
Cu73   O81     2.000   .     S
Cu73   Cu74    2.698   .     S
Cu73   N75     2.028   .     S
Cu73   O80     1.982   .     S
Cu73   O84     2.000   .     S
Cu73   O77     1.991   .     S
Cu74   O79     1.982   .     S
Cu74   N76     2.028   .     S
Cu74   O82     2.000   .     S
Cu74   O78     1.991   .     S
Cu74   O83     2.000   .     S
C85    O86     1.223   .     D
C85    O87     1.395   .     S
C85    C117    1.491   .     S
O87    H88     1.013   .     S
C89    O91     1.393   .     S
O90    C145    1.224   .     S
O91    H92     1.014   .     S
C93    O94     1.222   .     D
C93    O95     1.393   .     S
O95    H96     1.012   .     S
C97    O98     1.221   .     D
C97    O99     1.393   .     S
O99    H100    1.010   .     S
C101   O102    1.222   .     D
C101   O103    1.400   .     S
O103   H104    1.011   .     S
C105   O106    1.223   .     D
C105   O107    1.398   .     S
O107   H108    1.009   .     S
C113   O135    1.310   .     A
C113   O133    1.302   .     A
C113   C124    1.486   .     S
C114   O134    1.303   .     A
C114   C123    1.484   .     S
C114   O136    1.306   .     A
C115   O139    1.302   .     A
C115   O137    1.290   .     A
C115   C117    1.451   .     S
C116   O138    1.292   .     A
C116   C118    1.450   .     S
C116   O140    1.300   .     A
C118   C5      1.372   1_655 S
C118   C33     1.493   1_655 S
C119   C149    1.477   .     S
C119   C124    1.414   .     A
C119   C457    1.402   1_545 S
C120   C123    1.406   .     A
C120   C153    1.474   .     S
C120   C290    1.401   .     S
C121   C157    1.487   .     S
C121   C123    1.409   .     A
C121   C287    1.402   .     S
C122   C161    1.488   .     S
C122   C124    1.421   .     A
C122   C456    1.401   1_545 S
C125   Cl165   1.763   .     S
C125   N132    1.374   .     A
C125   C1135   1.421   1_554 S
C126   Cl166   1.763   .     S
C126   N131    1.375   .     A
C126   C632    1.421   .     S
C127   N131    1.370   .     A
C127   Cl167   1.755   .     S
C127   C629    1.421   .     S
C128   Cl168   1.761   .     S
C128   N132    1.371   .     A
C128   C1134   1.421   1_554 S
Cu129  O137    2.000   .     S
Cu129  Cu130   2.698   .     S
Cu129  N131    2.028   .     S
Cu129  O136    1.982   .     S
Cu129  O140    2.000   .     S
Cu129  O133    1.991   .     S
Cu130  O135    1.982   .     S
Cu130  N132    2.028   .     S
Cu130  O138    2.000   .     S
Cu130  O134    1.991   .     S
Cu130  O139    2.000   .     S
C141   O142    1.223   .     D
C141   O143    1.395   .     S
C141   C5      1.491   1_655 S
O143   H144    1.013   .     S
C145   O147    1.393   .     S
O146   C33     1.224   1_655 S
O147   H148    1.014   .     S
C149   O150    1.222   .     D
C149   O151    1.393   .     S
O151   H152    1.012   .     S
C153   O154    1.221   .     D
C153   O155    1.393   .     S
O155   H156    1.010   .     S
C157   O158    1.222   .     D
C157   O159    1.400   .     S
O159   H160    1.011   .     S
C161   O162    1.223   .     D
C161   O163    1.398   .     S
O163   H164    1.009   .     S
C169   O191    1.310   .     A
C169   O189    1.302   .     A
C169   C180    1.486   .     S
C170   O190    1.303   .     A
C170   C179    1.484   .     S
C170   O192    1.306   .     A
C171   O195    1.302   .     A
C171   O193    1.290   .     A
C171   C173    1.451   .     S
C172   O194    1.292   .     A
C172   C174    1.450   .     S
C172   O196    1.300   .     A
C173   C286    1.372   1_455 S
C173   C309    1.491   1_455 S
C174   C229    1.372   .     S
C174   C257    1.493   .     S
C175   C205    1.477   .     S
C175   C180    1.414   .     A
C176   C179    1.406   .     A
C176   C209    1.474   .     S
C176   C346    1.401   .     S
C177   C213    1.487   .     S
C177   C179    1.409   .     A
C177   C343    1.402   .     S
C178   C217    1.488   .     S
C178   C180    1.421   .     A
C181   Cl221   1.763   .     S
C181   N188    1.374   .     A
C181   C1191   1.421   1_554 S
C182   Cl222   1.763   .     S
C182   N187    1.375   .     A
C182   C688    1.421   .     S
C183   N187    1.370   .     A
C183   Cl223   1.755   .     S
C183   C685    1.421   .     S
C184   Cl224   1.761   .     S
C184   N188    1.371   .     A
C184   C1190   1.421   1_554 S
Cu185  O193    2.000   .     S
Cu185  Cu186   2.698   .     S
Cu185  N187    2.028   .     S
Cu185  O192    1.982   .     S
Cu185  O196    2.000   .     S
Cu185  O189    1.991   .     S
Cu186  O191    1.982   .     S
Cu186  N188    2.028   .     S
Cu186  O194    2.000   .     S
Cu186  O190    1.991   .     S
Cu186  O195    2.000   .     S
C197   O198    1.223   .     D
C197   O199    1.395   .     S
C197   C229    1.491   .     S
O199   H200    1.013   .     S
C201   O203    1.393   .     S
C201   C286    1.493   1_455 S
C201   O314    1.224   1_455 S
O202   C257    1.224   .     S
O203   H204    1.014   .     S
C205   O206    1.222   .     D
C205   O207    1.393   .     S
O207   H208    1.012   .     S
C209   O210    1.221   .     D
C209   O211    1.393   .     S
O211   H212    1.010   .     S
C213   O214    1.222   .     D
C213   O215    1.400   .     S
O215   H216    1.011   .     S
C217   O218    1.223   .     D
C217   O219    1.398   .     S
O219   H220    1.009   .     S
C225   O247    1.310   .     A
C225   O245    1.302   .     A
C225   C236    1.486   .     S
C226   O246    1.303   .     A
C226   C235    1.484   .     S
C226   O248    1.306   .     A
C227   O251    1.302   .     A
C227   O249    1.290   .     A
C227   C229    1.451   .     S
C228   O250    1.292   .     A
C228   C230    1.450   .     S
C228   O252    1.300   .     A
C230   C285    1.372   .     S
C230   C313    1.493   .     S
C231   C261    1.477   .     S
C231   C236    1.414   .     A
C232   C235    1.406   .     A
C232   C265    1.474   .     S
C232   C402    1.401   .     S
C233   C269    1.487   .     S
C233   C235    1.409   .     A
C233   C399    1.402   .     S
C234   C273    1.488   .     S
C234   C236    1.421   .     A
C237   Cl277   1.763   .     S
C237   N244    1.374   .     A
C237   C1247   1.421   1_554 S
C238   Cl278   1.763   .     S
C238   N243    1.375   .     A
C238   C744    1.421   .     S
C239   N243    1.370   .     A
C239   Cl279   1.755   .     S
C239   C741    1.421   .     S
C240   Cl280   1.761   .     S
C240   N244    1.371   .     A
C240   C1246   1.421   1_554 S
Cu241  O249    2.000   .     S
Cu241  Cu242   2.698   .     S
Cu241  N243    2.028   .     S
Cu241  O248    1.982   .     S
Cu241  O252    2.000   .     S
Cu241  O245    1.991   .     S
Cu242  O247    1.982   .     S
Cu242  N244    2.028   .     S
Cu242  O250    2.000   .     S
Cu242  O246    1.991   .     S
Cu242  O251    2.000   .     S
C253   O254    1.223   .     D
C253   O255    1.395   .     S
C253   C285    1.491   .     S
O255   H256    1.013   .     S
C257   O259    1.393   .     S
O258   C313    1.224   .     S
O259   H260    1.014   .     S
C261   O262    1.222   .     D
C261   O263    1.393   .     S
O263   H264    1.012   .     S
C265   O266    1.221   .     D
C265   O267    1.393   .     S
O267   H268    1.010   .     S
C269   O270    1.222   .     D
C269   O271    1.400   .     S
O271   H272    1.011   .     S
C273   O274    1.223   .     D
C273   O275    1.398   .     S
O275   H276    1.009   .     S
C281   O303    1.310   .     A
C281   O301    1.302   .     A
C281   C292    1.486   .     S
C282   O302    1.303   .     A
C282   C291    1.484   .     S
C282   O304    1.306   .     A
C283   O307    1.302   .     A
C283   O305    1.290   .     A
C283   C285    1.451   .     S
C284   O306    1.292   .     A
C284   C286    1.450   .     S
C284   O308    1.300   .     A
C286   C173    1.372   1_655 S
C286   C201    1.493   1_655 S
C287   C317    1.477   .     S
C287   C292    1.414   .     A
C288   C291    1.406   .     A
C288   C321    1.474   .     S
C288   C458    1.401   .     S
C289   C325    1.487   .     S
C289   C291    1.409   .     A
C289   C455    1.402   .     S
C290   C329    1.488   .     S
C290   C292    1.421   .     A
C293   Cl333   1.763   .     S
C293   N300    1.374   .     A
C293   C1303   1.421   1_554 S
C294   Cl334   1.763   .     S
C294   N299    1.375   .     A
C294   C800    1.421   .     S
C295   N299    1.370   .     A
C295   Cl335   1.755   .     S
C295   C797    1.421   .     S
C296   Cl336   1.761   .     S
C296   N300    1.371   .     A
C296   C1302   1.421   1_554 S
Cu297  O305    2.000   .     S
Cu297  Cu298   2.698   .     S
Cu297  N299    2.028   .     S
Cu297  O304    1.982   .     S
Cu297  O308    2.000   .     S
Cu297  O301    1.991   .     S
Cu298  O303    1.982   .     S
Cu298  N300    2.028   .     S
Cu298  O306    2.000   .     S
Cu298  O302    1.991   .     S
Cu298  O307    2.000   .     S
C309   O310    1.223   .     D
C309   O311    1.395   .     S
C309   C173    1.491   1_655 S
O311   H312    1.013   .     S
C313   O315    1.393   .     S
O314   C201    1.224   1_655 S
O315   H316    1.014   .     S
C317   O318    1.222   .     D
C317   O319    1.393   .     S
O319   H320    1.012   .     S
C321   O322    1.221   .     D
C321   O323    1.393   .     S
O323   H324    1.010   .     S
C325   O326    1.222   .     D
C325   O327    1.400   .     S
O327   H328    1.011   .     S
C329   O330    1.223   .     D
C329   O331    1.398   .     S
O331   H332    1.009   .     S
C337   O359    1.310   .     A
C337   O357    1.302   .     A
C337   C348    1.486   .     S
C338   O358    1.303   .     A
C338   C347    1.484   .     S
C338   O360    1.306   .     A
C339   O363    1.302   .     A
C339   O361    1.290   .     A
C339   C341    1.451   .     S
C340   O362    1.292   .     A
C340   C342    1.450   .     S
C340   O364    1.300   .     A
C341   C454    1.372   1_455 S
C341   C477    1.491   1_455 S
C342   C397    1.372   .     S
C342   C425    1.493   .     S
C343   C373    1.477   .     S
C343   C348    1.414   .     A
C344   C347    1.406   .     A
C344   C377    1.474   .     S
C344   C10     1.401   1_565 S
C345   C381    1.487   .     S
C345   C347    1.409   .     A
C345   C7      1.402   1_565 S
C346   C385    1.488   .     S
C346   C348    1.421   .     A
C349   Cl389   1.763   .     S
C349   N356    1.374   .     A
C349   C1359   1.421   1_554 S
C350   Cl390   1.763   .     S
C350   N355    1.375   .     A
C350   C856    1.421   .     S
C351   N355    1.370   .     A
C351   Cl391   1.755   .     S
C351   C853    1.421   .     S
C352   Cl392   1.761   .     S
C352   N356    1.371   .     A
C352   C1358   1.421   1_554 S
Cu353  O361    2.000   .     S
Cu353  Cu354   2.698   .     S
Cu353  N355    2.028   .     S
Cu353  O360    1.982   .     S
Cu353  O364    2.000   .     S
Cu353  O357    1.991   .     S
Cu354  O359    1.982   .     S
Cu354  N356    2.028   .     S
Cu354  O362    2.000   .     S
Cu354  O358    1.991   .     S
Cu354  O363    2.000   .     S
C365   O366    1.223   .     D
C365   O367    1.395   .     S
C365   C397    1.491   .     S
O367   H368    1.013   .     S
C369   O371    1.393   .     S
C369   C454    1.493   1_455 S
C369   O482    1.224   1_455 S
O370   C425    1.224   .     S
O371   H372    1.014   .     S
C373   O374    1.222   .     D
C373   O375    1.393   .     S
O375   H376    1.012   .     S
C377   O378    1.221   .     D
C377   O379    1.393   .     S
O379   H380    1.010   .     S
C381   O382    1.222   .     D
C381   O383    1.400   .     S
O383   H384    1.011   .     S
C385   O386    1.223   .     D
C385   O387    1.398   .     S
O387   H388    1.009   .     S
C393   O415    1.310   .     A
C393   O413    1.302   .     A
C393   C404    1.486   .     S
C394   O414    1.303   .     A
C394   C403    1.484   .     S
C394   O416    1.306   .     A
C395   O419    1.302   .     A
C395   O417    1.290   .     A
C395   C397    1.451   .     S
C396   O418    1.292   .     A
C396   C398    1.450   .     S
C396   O420    1.300   .     A
C398   C453    1.372   .     S
C398   C481    1.493   .     S
C399   C429    1.477   .     S
C399   C404    1.414   .     A
C400   C403    1.406   .     A
C400   C433    1.474   .     S
C400   C66     1.401   1_565 S
C401   C437    1.487   .     S
C401   C403    1.409   .     A
C401   C63     1.402   1_565 S
C402   C441    1.488   .     S
C402   C404    1.421   .     A
C405   Cl445   1.763   .     S
C405   N412    1.374   .     A
C405   C1415   1.421   1_554 S
C406   Cl446   1.763   .     S
C406   N411    1.375   .     A
C406   C912    1.421   .     S
C407   N411    1.370   .     A
C407   Cl447   1.755   .     S
C407   C909    1.421   .     S
C408   Cl448   1.761   .     S
C408   N412    1.371   .     A
C408   C1414   1.421   1_554 S
Cu409  O417    2.000   .     S
Cu409  Cu410   2.698   .     S
Cu409  N411    2.028   .     S
Cu409  O416    1.982   .     S
Cu409  O420    2.000   .     S
Cu409  O413    1.991   .     S
Cu410  O415    1.982   .     S
Cu410  N412    2.028   .     S
Cu410  O418    2.000   .     S
Cu410  O414    1.991   .     S
Cu410  O419    2.000   .     S
C421   O422    1.223   .     D
C421   O423    1.395   .     S
C421   C453    1.491   .     S
O423   H424    1.013   .     S
C425   O427    1.393   .     S
O426   C481    1.224   .     S
O427   H428    1.014   .     S
C429   O430    1.222   .     D
C429   O431    1.393   .     S
O431   H432    1.012   .     S
C433   O434    1.221   .     D
C433   O435    1.393   .     S
O435   H436    1.010   .     S
C437   O438    1.222   .     D
C437   O439    1.400   .     S
O439   H440    1.011   .     S
C441   O442    1.223   .     D
C441   O443    1.398   .     S
O443   H444    1.009   .     S
C449   O471    1.310   .     A
C449   O469    1.302   .     A
C449   C460    1.486   .     S
C450   O470    1.303   .     A
C450   C459    1.484   .     S
C450   O472    1.306   .     A
C451   O475    1.302   .     A
C451   O473    1.290   .     A
C451   C453    1.451   .     S
C452   O474    1.292   .     A
C452   C454    1.450   .     S
C452   O476    1.300   .     A
C454   C341    1.372   1_655 S
C454   C369    1.493   1_655 S
C455   C485    1.477   .     S
C455   C460    1.414   .     A
C456   C459    1.406   .     A
C456   C489    1.474   .     S
C456   C122    1.401   1_565 S
C457   C493    1.487   .     S
C457   C459    1.409   .     A
C457   C119    1.402   1_565 S
C458   C497    1.488   .     S
C458   C460    1.421   .     A
C461   Cl501   1.763   .     S
C461   N468    1.374   .     A
C461   C1471   1.421   1_554 S
C462   Cl502   1.763   .     S
C462   N467    1.375   .     A
C462   C968    1.421   .     S
C463   N467    1.370   .     A
C463   Cl503   1.755   .     S
C463   C965    1.421   .     S
C464   Cl504   1.761   .     S
C464   N468    1.371   .     A
C464   C1470   1.421   1_554 S
Cu465  O473    2.000   .     S
Cu465  Cu466   2.698   .     S
Cu465  N467    2.028   .     S
Cu465  O472    1.982   .     S
Cu465  O476    2.000   .     S
Cu465  O469    1.991   .     S
Cu466  O471    1.982   .     S
Cu466  N468    2.028   .     S
Cu466  O474    2.000   .     S
Cu466  O470    1.991   .     S
Cu466  O475    2.000   .     S
C477   O478    1.223   .     D
C477   O479    1.395   .     S
C477   C341    1.491   1_655 S
O479   H480    1.013   .     S
C481   O483    1.393   .     S
O482   C369    1.224   1_655 S
O483   H484    1.014   .     S
C485   O486    1.222   .     D
C485   O487    1.393   .     S
O487   H488    1.012   .     S
C489   O490    1.221   .     D
C489   O491    1.393   .     S
O491   H492    1.010   .     S
C493   O494    1.222   .     D
C493   O495    1.400   .     S
O495   H496    1.011   .     S
C497   O498    1.223   .     D
C497   O499    1.398   .     S
O499   H500    1.009   .     S
C505   O527    1.310   .     A
C505   O525    1.302   .     A
C505   C516    1.486   .     S
C506   O526    1.303   .     A
C506   C515    1.484   .     S
C506   O528    1.306   .     A
C507   O531    1.302   .     A
C507   O529    1.290   .     A
C507   C509    1.451   .     S
C508   O530    1.292   .     A
C508   C510    1.450   .     S
C508   O532    1.300   .     A
C509   C622    1.372   1_455 S
C509   C645    1.491   1_455 S
C510   C565    1.372   .     S
C510   C593    1.493   .     S
C511   C541    1.477   .     S
C511   C516    1.414   .     A
C511   C849    1.402   1_545 S
C512   C515    1.406   .     A
C512   C545    1.474   .     S
C512   C682    1.401   .     S
C513   C549    1.487   .     S
C513   C515    1.409   .     A
C513   C679    1.402   .     S
C514   C553    1.488   .     S
C514   C516    1.421   .     A
C514   C848    1.401   1_545 S
C517   Cl557   1.763   .     S
C517   N524    1.374   .     A
C518   Cl558   1.763   .     S
C518   N523    1.375   .     A
C518   C1024   1.421   .     S
C519   N523    1.370   .     A
C519   Cl559   1.755   .     S
C519   C1021   1.421   .     S
C520   Cl560   1.761   .     S
C520   N524    1.371   .     A
Cu521  O529    2.000   .     S
Cu521  Cu522   2.698   .     S
Cu521  N523    2.028   .     S
Cu521  O528    1.982   .     S
Cu521  O532    2.000   .     S
Cu521  O525    1.991   .     S
Cu522  O527    1.982   .     S
Cu522  N524    2.028   .     S
Cu522  O530    2.000   .     S
Cu522  O526    1.991   .     S
Cu522  O531    2.000   .     S
C533   O534    1.223   .     D
C533   O535    1.395   .     S
C533   C565    1.491   .     S
O535   H536    1.013   .     S
C537   O539    1.393   .     S
C537   C622    1.493   1_455 S
C537   O650    1.224   1_455 S
O538   C593    1.224   .     S
O539   H540    1.014   .     S
C541   O542    1.222   .     D
C541   O543    1.393   .     S
O543   H544    1.012   .     S
C545   O546    1.221   .     D
C545   O547    1.393   .     S
O547   H548    1.010   .     S
C549   O550    1.222   .     D
C549   O551    1.400   .     S
O551   H552    1.011   .     S
C553   O554    1.223   .     D
C553   O555    1.398   .     S
O555   H556    1.009   .     S
C561   O583    1.310   .     A
C561   O581    1.302   .     A
C561   C572    1.486   .     S
C562   O582    1.303   .     A
C562   C571    1.484   .     S
C562   O584    1.306   .     A
C563   O587    1.302   .     A
C563   O585    1.290   .     A
C563   C565    1.451   .     S
C564   O586    1.292   .     A
C564   C566    1.450   .     S
C564   O588    1.300   .     A
C566   C621    1.372   .     S
C566   C649    1.493   .     S
C567   C597    1.477   .     S
C567   C572    1.414   .     A
C567   C905    1.402   1_545 S
C568   C571    1.406   .     A
C568   C601    1.474   .     S
C568   C738    1.401   .     S
C569   C605    1.487   .     S
C569   C571    1.409   .     A
C569   C735    1.402   .     S
C570   C609    1.488   .     S
C570   C572    1.421   .     A
C570   C904    1.401   1_545 S
C573   Cl613   1.763   .     S
C573   N580    1.374   .     A
C574   Cl614   1.763   .     S
C574   N579    1.375   .     A
C574   C1080   1.421   .     S
C575   N579    1.370   .     A
C575   Cl615   1.755   .     S
C575   C1077   1.421   .     S
C576   Cl616   1.761   .     S
C576   N580    1.371   .     A
Cu577  O585    2.000   .     S
Cu577  Cu578   2.698   .     S
Cu577  N579    2.028   .     S
Cu577  O584    1.982   .     S
Cu577  O588    2.000   .     S
Cu577  O581    1.991   .     S
Cu578  O583    1.982   .     S
Cu578  N580    2.028   .     S
Cu578  O586    2.000   .     S
Cu578  O582    1.991   .     S
Cu578  O587    2.000   .     S
C589   O590    1.223   .     D
C589   O591    1.395   .     S
C589   C621    1.491   .     S
O591   H592    1.013   .     S
C593   O595    1.393   .     S
O594   C649    1.224   .     S
O595   H596    1.014   .     S
C597   O598    1.222   .     D
C597   O599    1.393   .     S
O599   H600    1.012   .     S
C601   O602    1.221   .     D
C601   O603    1.393   .     S
O603   H604    1.010   .     S
C605   O606    1.222   .     D
C605   O607    1.400   .     S
O607   H608    1.011   .     S
C609   O610    1.223   .     D
C609   O611    1.398   .     S
O611   H612    1.009   .     S
C617   O639    1.310   .     A
C617   O637    1.302   .     A
C617   C628    1.486   .     S
C618   O638    1.303   .     A
C618   C627    1.484   .     S
C618   O640    1.306   .     A
C619   O643    1.302   .     A
C619   O641    1.290   .     A
C619   C621    1.451   .     S
C620   O642    1.292   .     A
C620   C622    1.450   .     S
C620   O644    1.300   .     A
C622   C509    1.372   1_655 S
C622   C537    1.493   1_655 S
C623   C653    1.477   .     S
C623   C628    1.414   .     A
C623   C961    1.402   1_545 S
C624   C627    1.406   .     A
C624   C657    1.474   .     S
C624   C794    1.401   .     S
C625   C661    1.487   .     S
C625   C627    1.409   .     A
C625   C791    1.402   .     S
C626   C665    1.488   .     S
C626   C628    1.421   .     A
C626   C960    1.401   1_545 S
C629   Cl669   1.763   .     S
C629   N636    1.374   .     A
C630   Cl670   1.763   .     S
C630   N635    1.375   .     A
C630   C1136   1.421   .     S
C631   N635    1.370   .     A
C631   Cl671   1.755   .     S
C631   C1133   1.421   .     S
C632   Cl672   1.761   .     S
C632   N636    1.371   .     A
Cu633  O641    2.000   .     S
Cu633  Cu634   2.698   .     S
Cu633  N635    2.028   .     S
Cu633  O640    1.982   .     S
Cu633  O644    2.000   .     S
Cu633  O637    1.991   .     S
Cu634  O639    1.982   .     S
Cu634  N636    2.028   .     S
Cu634  O642    2.000   .     S
Cu634  O638    1.991   .     S
Cu634  O643    2.000   .     S
C645   O646    1.223   .     D
C645   O647    1.395   .     S
C645   C509    1.491   1_655 S
O647   H648    1.013   .     S
C649   O651    1.393   .     S
O650   C537    1.224   1_655 S
O651   H652    1.014   .     S
C653   O654    1.222   .     D
C653   O655    1.393   .     S
O655   H656    1.012   .     S
C657   O658    1.221   .     D
C657   O659    1.393   .     S
O659   H660    1.010   .     S
C661   O662    1.222   .     D
C661   O663    1.400   .     S
O663   H664    1.011   .     S
C665   O666    1.223   .     D
C665   O667    1.398   .     S
O667   H668    1.009   .     S
C673   O695    1.310   .     A
C673   O693    1.302   .     A
C673   C684    1.486   .     S
C674   O694    1.303   .     A
C674   C683    1.484   .     S
C674   O696    1.306   .     A
C675   O699    1.302   .     A
C675   O697    1.290   .     A
C675   C677    1.451   .     S
C676   O698    1.292   .     A
C676   C678    1.450   .     S
C676   O700    1.300   .     A
C677   C790    1.372   1_455 S
C677   C813    1.491   1_455 S
C678   C733    1.372   .     S
C678   C761    1.493   .     S
C679   C709    1.477   .     S
C679   C684    1.414   .     A
C680   C683    1.406   .     A
C680   C713    1.474   .     S
C680   C850    1.401   .     S
C681   C717    1.487   .     S
C681   C683    1.409   .     A
C681   C847    1.402   .     S
C682   C721    1.488   .     S
C682   C684    1.421   .     A
C685   Cl725   1.763   .     S
C685   N692    1.374   .     A
C686   Cl726   1.763   .     S
C686   N691    1.375   .     A
C686   C1192   1.421   .     S
C687   N691    1.370   .     A
C687   Cl727   1.755   .     S
C687   C1189   1.421   .     S
C688   Cl728   1.761   .     S
C688   N692    1.371   .     A
Cu689  O697    2.000   .     S
Cu689  Cu690   2.698   .     S
Cu689  N691    2.028   .     S
Cu689  O696    1.982   .     S
Cu689  O700    2.000   .     S
Cu689  O693    1.991   .     S
Cu690  O695    1.982   .     S
Cu690  N692    2.028   .     S
Cu690  O698    2.000   .     S
Cu690  O694    1.991   .     S
Cu690  O699    2.000   .     S
C701   O702    1.223   .     D
C701   O703    1.395   .     S
C701   C733    1.491   .     S
O703   H704    1.013   .     S
C705   O707    1.393   .     S
C705   C790    1.493   1_455 S
C705   O818    1.224   1_455 S
O706   C761    1.224   .     S
O707   H708    1.014   .     S
C709   O710    1.222   .     D
C709   O711    1.393   .     S
O711   H712    1.012   .     S
C713   O714    1.221   .     D
C713   O715    1.393   .     S
O715   H716    1.010   .     S
C717   O718    1.222   .     D
C717   O719    1.400   .     S
O719   H720    1.011   .     S
C721   O722    1.223   .     D
C721   O723    1.398   .     S
O723   H724    1.009   .     S
C729   O751    1.310   .     A
C729   O749    1.302   .     A
C729   C740    1.486   .     S
C730   O750    1.303   .     A
C730   C739    1.484   .     S
C730   O752    1.306   .     A
C731   O755    1.302   .     A
C731   O753    1.290   .     A
C731   C733    1.451   .     S
C732   O754    1.292   .     A
C732   C734    1.450   .     S
C732   O756    1.300   .     A
C734   C789    1.372   .     S
C734   C817    1.493   .     S
C735   C765    1.477   .     S
C735   C740    1.414   .     A
C736   C739    1.406   .     A
C736   C769    1.474   .     S
C736   C906    1.401   .     S
C737   C773    1.487   .     S
C737   C739    1.409   .     A
C737   C903    1.402   .     S
C738   C777    1.488   .     S
C738   C740    1.421   .     A
C741   Cl781   1.763   .     S
C741   N748    1.374   .     A
C742   Cl782   1.763   .     S
C742   N747    1.375   .     A
C742   C1248   1.421   .     S
C743   N747    1.370   .     A
C743   Cl783   1.755   .     S
C743   C1245   1.421   .     S
C744   Cl784   1.761   .     S
C744   N748    1.371   .     A
Cu745  O753    2.000   .     S
Cu745  Cu746   2.698   .     S
Cu745  N747    2.028   .     S
Cu745  O752    1.982   .     S
Cu745  O756    2.000   .     S
Cu745  O749    1.991   .     S
Cu746  O751    1.982   .     S
Cu746  N748    2.028   .     S
Cu746  O754    2.000   .     S
Cu746  O750    1.991   .     S
Cu746  O755    2.000   .     S
C757   O758    1.223   .     D
C757   O759    1.395   .     S
C757   C789    1.491   .     S
O759   H760    1.013   .     S
C761   O763    1.393   .     S
O762   C817    1.224   .     S
O763   H764    1.014   .     S
C765   O766    1.222   .     D
C765   O767    1.393   .     S
O767   H768    1.012   .     S
C769   O770    1.221   .     D
C769   O771    1.393   .     S
O771   H772    1.010   .     S
C773   O774    1.222   .     D
C773   O775    1.400   .     S
O775   H776    1.011   .     S
C777   O778    1.223   .     D
C777   O779    1.398   .     S
O779   H780    1.009   .     S
C785   O807    1.310   .     A
C785   O805    1.302   .     A
C785   C796    1.486   .     S
C786   O806    1.303   .     A
C786   C795    1.484   .     S
C786   O808    1.306   .     A
C787   O811    1.302   .     A
C787   O809    1.290   .     A
C787   C789    1.451   .     S
C788   O810    1.292   .     A
C788   C790    1.450   .     S
C788   O812    1.300   .     A
C790   C677    1.372   1_655 S
C790   C705    1.493   1_655 S
C791   C821    1.477   .     S
C791   C796    1.414   .     A
C792   C795    1.406   .     A
C792   C825    1.474   .     S
C792   C962    1.401   .     S
C793   C829    1.487   .     S
C793   C795    1.409   .     A
C793   C959    1.402   .     S
C794   C833    1.488   .     S
C794   C796    1.421   .     A
C797   Cl837   1.763   .     S
C797   N804    1.374   .     A
C798   Cl838   1.763   .     S
C798   N803    1.375   .     A
C798   C1304   1.421   .     S
C799   N803    1.370   .     A
C799   Cl839   1.755   .     S
C799   C1301   1.421   .     S
C800   Cl840   1.761   .     S
C800   N804    1.371   .     A
Cu801  O809    2.000   .     S
Cu801  Cu802   2.698   .     S
Cu801  N803    2.028   .     S
Cu801  O808    1.982   .     S
Cu801  O812    2.000   .     S
Cu801  O805    1.991   .     S
Cu802  O807    1.982   .     S
Cu802  N804    2.028   .     S
Cu802  O810    2.000   .     S
Cu802  O806    1.991   .     S
Cu802  O811    2.000   .     S
C813   O814    1.223   .     D
C813   O815    1.395   .     S
C813   C677    1.491   1_655 S
O815   H816    1.013   .     S
C817   O819    1.393   .     S
O818   C705    1.224   1_655 S
O819   H820    1.014   .     S
C821   O822    1.222   .     D
C821   O823    1.393   .     S
O823   H824    1.012   .     S
C825   O826    1.221   .     D
C825   O827    1.393   .     S
O827   H828    1.010   .     S
C829   O830    1.222   .     D
C829   O831    1.400   .     S
O831   H832    1.011   .     S
C833   O834    1.223   .     D
C833   O835    1.398   .     S
O835   H836    1.009   .     S
C841   O863    1.310   .     A
C841   O861    1.302   .     A
C841   C852    1.486   .     S
C842   O862    1.303   .     A
C842   C851    1.484   .     S
C842   O864    1.306   .     A
C843   O867    1.302   .     A
C843   O865    1.290   .     A
C843   C845    1.451   .     S
C844   O866    1.292   .     A
C844   C846    1.450   .     S
C844   O868    1.300   .     A
C845   C958    1.372   1_455 S
C845   C981    1.491   1_455 S
C846   C901    1.372   .     S
C846   C929    1.493   .     S
C847   C877    1.477   .     S
C847   C852    1.414   .     A
C848   C851    1.406   .     A
C848   C881    1.474   .     S
C848   C514    1.401   1_565 S
C849   C885    1.487   .     S
C849   C851    1.409   .     A
C849   C511    1.402   1_565 S
C850   C889    1.488   .     S
C850   C852    1.421   .     A
C853   Cl893   1.763   .     S
C853   N860    1.374   .     A
C854   Cl894   1.763   .     S
C854   N859    1.375   .     A
C854   C1360   1.421   .     S
C855   N859    1.370   .     A
C855   Cl895   1.755   .     S
C855   C1357   1.421   .     S
C856   Cl896   1.761   .     S
C856   N860    1.371   .     A
Cu857  O865    2.000   .     S
Cu857  Cu858   2.698   .     S
Cu857  N859    2.028   .     S
Cu857  O864    1.982   .     S
Cu857  O868    2.000   .     S
Cu857  O861    1.991   .     S
Cu858  O863    1.982   .     S
Cu858  N860    2.028   .     S
Cu858  O866    2.000   .     S
Cu858  O862    1.991   .     S
Cu858  O867    2.000   .     S
C869   O870    1.223   .     D
C869   O871    1.395   .     S
C869   C901    1.491   .     S
O871   H872    1.013   .     S
C873   O875    1.393   .     S
C873   C958    1.493   1_455 S
C873   O986    1.224   1_455 S
O874   C929    1.224   .     S
O875   H876    1.014   .     S
C877   O878    1.222   .     D
C877   O879    1.393   .     S
O879   H880    1.012   .     S
C881   O882    1.221   .     D
C881   O883    1.393   .     S
O883   H884    1.010   .     S
C885   O886    1.222   .     D
C885   O887    1.400   .     S
O887   H888    1.011   .     S
C889   O890    1.223   .     D
C889   O891    1.398   .     S
O891   H892    1.009   .     S
C897   O919    1.310   .     A
C897   O917    1.302   .     A
C897   C908    1.486   .     S
C898   O918    1.303   .     A
C898   C907    1.484   .     S
C898   O920    1.306   .     A
C899   O923    1.302   .     A
C899   O921    1.290   .     A
C899   C901    1.451   .     S
C900   O922    1.292   .     A
C900   C902    1.450   .     S
C900   O924    1.300   .     A
C902   C957    1.372   .     S
C902   C985    1.493   .     S
C903   C933    1.477   .     S
C903   C908    1.414   .     A
C904   C907    1.406   .     A
C904   C937    1.474   .     S
C904   C570    1.401   1_565 S
C905   C941    1.487   .     S
C905   C907    1.409   .     A
C905   C567    1.402   1_565 S
C906   C945    1.488   .     S
C906   C908    1.421   .     A
C909   Cl949   1.763   .     S
C909   N916    1.374   .     A
C910   Cl950   1.763   .     S
C910   N915    1.375   .     A
C910   C1416   1.421   .     S
C911   N915    1.370   .     A
C911   Cl951   1.755   .     S
C911   C1413   1.421   .     S
C912   Cl952   1.761   .     S
C912   N916    1.371   .     A
Cu913  O921    2.000   .     S
Cu913  Cu914   2.698   .     S
Cu913  N915    2.028   .     S
Cu913  O920    1.982   .     S
Cu913  O924    2.000   .     S
Cu913  O917    1.991   .     S
Cu914  O919    1.982   .     S
Cu914  N916    2.028   .     S
Cu914  O922    2.000   .     S
Cu914  O918    1.991   .     S
Cu914  O923    2.000   .     S
C925   O926    1.223   .     D
C925   O927    1.395   .     S
C925   C957    1.491   .     S
O927   H928    1.013   .     S
C929   O931    1.393   .     S
O930   C985    1.224   .     S
O931   H932    1.014   .     S
C933   O934    1.222   .     D
C933   O935    1.393   .     S
O935   H936    1.012   .     S
C937   O938    1.221   .     D
C937   O939    1.393   .     S
O939   H940    1.010   .     S
C941   O942    1.222   .     D
C941   O943    1.400   .     S
O943   H944    1.011   .     S
C945   O946    1.223   .     D
C945   O947    1.398   .     S
O947   H948    1.009   .     S
C953   O975    1.310   .     A
C953   O973    1.302   .     A
C953   C964    1.486   .     S
C954   O974    1.303   .     A
C954   C963    1.484   .     S
C954   O976    1.306   .     A
C955   O979    1.302   .     A
C955   O977    1.290   .     A
C955   C957    1.451   .     S
C956   O978    1.292   .     A
C956   C958    1.450   .     S
C956   O980    1.300   .     A
C958   C845    1.372   1_655 S
C958   C873    1.493   1_655 S
C959   C989    1.477   .     S
C959   C964    1.414   .     A
C960   C963    1.406   .     A
C960   C993    1.474   .     S
C960   C626    1.401   1_565 S
C961   C997    1.487   .     S
C961   C963    1.409   .     A
C961   C623    1.402   1_565 S
C962   C1001   1.488   .     S
C962   C964    1.421   .     A
C965   Cl1005  1.763   .     S
C965   N972    1.374   .     A
C966   Cl1006  1.763   .     S
C966   N971    1.375   .     A
C966   C1472   1.421   .     S
C967   N971    1.370   .     A
C967   Cl1007  1.755   .     S
C967   C1469   1.421   .     S
C968   Cl1008  1.761   .     S
C968   N972    1.371   .     A
Cu969  O977    2.000   .     S
Cu969  Cu970   2.698   .     S
Cu969  N971    2.028   .     S
Cu969  O976    1.982   .     S
Cu969  O980    2.000   .     S
Cu969  O973    1.991   .     S
Cu970  O975    1.982   .     S
Cu970  N972    2.028   .     S
Cu970  O978    2.000   .     S
Cu970  O974    1.991   .     S
Cu970  O979    2.000   .     S
C981   O982    1.223   .     D
C981   O983    1.395   .     S
C981   C845    1.491   1_655 S
O983   H984    1.013   .     S
C985   O987    1.393   .     S
O986   C873    1.224   1_655 S
O987   H988    1.014   .     S
C989   O990    1.222   .     D
C989   O991    1.393   .     S
O991   H992    1.012   .     S
C993   O994    1.221   .     D
C993   O995    1.393   .     S
O995   H996    1.010   .     S
C997   O998    1.222   .     D
C997   O999    1.400   .     S
O999   H1000   1.011   .     S
C1001  O1002   1.223   .     D
C1001  O1003   1.398   .     S
O1003  H1004   1.009   .     S
C1009  O1031   1.310   .     A
C1009  O1029   1.302   .     A
C1009  C1020   1.486   .     S
C1010  O1030   1.303   .     A
C1010  C1019   1.484   .     S
C1010  O1032   1.306   .     A
C1011  O1035   1.302   .     A
C1011  O1033   1.290   .     A
C1011  C1013   1.451   .     S
C1012  O1034   1.292   .     A
C1012  C1014   1.450   .     S
C1012  O1036   1.300   .     A
C1013  C1126   1.372   1_455 S
C1013  C1149   1.491   1_455 S
C1014  C1069   1.372   .     S
C1014  C1097   1.493   .     S
C1015  C1045   1.477   .     S
C1015  C1020   1.414   .     A
C1015  C1353   1.402   1_545 S
C1016  C1019   1.406   .     A
C1016  C1049   1.474   .     S
C1016  C1186   1.401   .     S
C1017  C1053   1.487   .     S
C1017  C1019   1.409   .     A
C1017  C1183   1.402   .     S
C1018  C1057   1.488   .     S
C1018  C1020   1.421   .     A
C1018  C1352   1.401   1_545 S
C1021  Cl1061  1.763   .     S
C1021  N1028   1.374   .     A
C1022  Cl1062  1.763   .     S
C1022  N1027   1.375   .     A
C1022  C16     1.421   1_556 S
C1023  N1027   1.370   .     A
C1023  Cl1063  1.755   .     S
C1023  C13     1.421   1_556 S
C1024  Cl1064  1.761   .     S
C1024  N1028   1.371   .     A
Cu1025 O1033   2.000   .     S
Cu1025 Cu1026  2.698   .     S
Cu1025 N1027   2.028   .     S
Cu1025 O1032   1.982   .     S
Cu1025 O1036   2.000   .     S
Cu1025 O1029   1.991   .     S
Cu1026 O1031   1.982   .     S
Cu1026 N1028   2.028   .     S
Cu1026 O1034   2.000   .     S
Cu1026 O1030   1.991   .     S
Cu1026 O1035   2.000   .     S
C1037  O1038   1.223   .     D
C1037  O1039   1.395   .     S
C1037  C1069   1.491   .     S
O1039  H1040   1.013   .     S
C1041  O1043   1.393   .     S
C1041  C1126   1.493   1_455 S
C1041  O1154   1.224   1_455 S
O1042  C1097   1.224   .     S
O1043  H1044   1.014   .     S
C1045  O1046   1.222   .     D
C1045  O1047   1.393   .     S
O1047  H1048   1.012   .     S
C1049  O1050   1.221   .     D
C1049  O1051   1.393   .     S
O1051  H1052   1.010   .     S
C1053  O1054   1.222   .     D
C1053  O1055   1.400   .     S
O1055  H1056   1.011   .     S
C1057  O1058   1.223   .     D
C1057  O1059   1.398   .     S
O1059  H1060   1.009   .     S
C1065  O1087   1.310   .     A
C1065  O1085   1.302   .     A
C1065  C1076   1.486   .     S
C1066  O1086   1.303   .     A
C1066  C1075   1.484   .     S
C1066  O1088   1.306   .     A
C1067  O1091   1.302   .     A
C1067  O1089   1.290   .     A
C1067  C1069   1.451   .     S
C1068  O1090   1.292   .     A
C1068  C1070   1.450   .     S
C1068  O1092   1.300   .     A
C1070  C1125   1.372   .     S
C1070  C1153   1.493   .     S
C1071  C1101   1.477   .     S
C1071  C1076   1.414   .     A
C1071  C1409   1.402   1_545 S
C1072  C1075   1.406   .     A
C1072  C1105   1.474   .     S
C1072  C1242   1.401   .     S
C1073  C1109   1.487   .     S
C1073  C1075   1.409   .     A
C1073  C1239   1.402   .     S
C1074  C1113   1.488   .     S
C1074  C1076   1.421   .     A
C1074  C1408   1.401   1_545 S
C1077  Cl1117  1.763   .     S
C1077  N1084   1.374   .     A
C1078  Cl1118  1.763   .     S
C1078  N1083   1.375   .     A
C1078  C72     1.421   1_556 S
C1079  N1083   1.370   .     A
C1079  Cl1119  1.755   .     S
C1079  C69     1.421   1_556 S
C1080  Cl1120  1.761   .     S
C1080  N1084   1.371   .     A
Cu1081 O1089   2.000   .     S
Cu1081 Cu1082  2.698   .     S
Cu1081 N1083   2.028   .     S
Cu1081 O1088   1.982   .     S
Cu1081 O1092   2.000   .     S
Cu1081 O1085   1.991   .     S
Cu1082 O1087   1.982   .     S
Cu1082 N1084   2.028   .     S
Cu1082 O1090   2.000   .     S
Cu1082 O1086   1.991   .     S
Cu1082 O1091   2.000   .     S
C1093  O1094   1.223   .     D
C1093  O1095   1.395   .     S
C1093  C1125   1.491   .     S
O1095  H1096   1.013   .     S
C1097  O1099   1.393   .     S
O1098  C1153   1.224   .     S
O1099  H1100   1.014   .     S
C1101  O1102   1.222   .     D
C1101  O1103   1.393   .     S
O1103  H1104   1.012   .     S
C1105  O1106   1.221   .     D
C1105  O1107   1.393   .     S
O1107  H1108   1.010   .     S
C1109  O1110   1.222   .     D
C1109  O1111   1.400   .     S
O1111  H1112   1.011   .     S
C1113  O1114   1.223   .     D
C1113  O1115   1.398   .     S
O1115  H1116   1.009   .     S
C1121  O1143   1.310   .     A
C1121  O1141   1.302   .     A
C1121  C1132   1.486   .     S
C1122  O1142   1.303   .     A
C1122  C1131   1.484   .     S
C1122  O1144   1.306   .     A
C1123  O1147   1.302   .     A
C1123  O1145   1.290   .     A
C1123  C1125   1.451   .     S
C1124  O1146   1.292   .     A
C1124  C1126   1.450   .     S
C1124  O1148   1.300   .     A
C1126  C1013   1.372   1_655 S
C1126  C1041   1.493   1_655 S
C1127  C1157   1.477   .     S
C1127  C1132   1.414   .     A
C1127  C1465   1.402   1_545 S
C1128  C1131   1.406   .     A
C1128  C1161   1.474   .     S
C1128  C1298   1.401   .     S
C1129  C1165   1.487   .     S
C1129  C1131   1.409   .     A
C1129  C1295   1.402   .     S
C1130  C1169   1.488   .     S
C1130  C1132   1.421   .     A
C1130  C1464   1.401   1_545 S
C1133  Cl1173  1.763   .     S
C1133  N1140   1.374   .     A
C1134  Cl1174  1.763   .     S
C1134  N1139   1.375   .     A
C1134  C128    1.421   1_556 S
C1135  N1139   1.370   .     A
C1135  Cl1175  1.755   .     S
C1135  C125    1.421   1_556 S
C1136  Cl1176  1.761   .     S
C1136  N1140   1.371   .     A
Cu1137 O1145   2.000   .     S
Cu1137 Cu1138  2.698   .     S
Cu1137 N1139   2.028   .     S
Cu1137 O1144   1.982   .     S
Cu1137 O1148   2.000   .     S
Cu1137 O1141   1.991   .     S
Cu1138 O1143   1.982   .     S
Cu1138 N1140   2.028   .     S
Cu1138 O1146   2.000   .     S
Cu1138 O1142   1.991   .     S
Cu1138 O1147   2.000   .     S
C1149  O1150   1.223   .     D
C1149  O1151   1.395   .     S
C1149  C1013   1.491   1_655 S
O1151  H1152   1.013   .     S
C1153  O1155   1.393   .     S
O1154  C1041   1.224   1_655 S
O1155  H1156   1.014   .     S
C1157  O1158   1.222   .     D
C1157  O1159   1.393   .     S
O1159  H1160   1.012   .     S
C1161  O1162   1.221   .     D
C1161  O1163   1.393   .     S
O1163  H1164   1.010   .     S
C1165  O1166   1.222   .     D
C1165  O1167   1.400   .     S
O1167  H1168   1.011   .     S
C1169  O1170   1.223   .     D
C1169  O1171   1.398   .     S
O1171  H1172   1.009   .     S
C1177  O1199   1.310   .     A
C1177  O1197   1.302   .     A
C1177  C1188   1.486   .     S
C1178  O1198   1.303   .     A
C1178  C1187   1.484   .     S
C1178  O1200   1.306   .     A
C1179  O1203   1.302   .     A
C1179  O1201   1.290   .     A
C1179  C1181   1.451   .     S
C1180  O1202   1.292   .     A
C1180  C1182   1.450   .     S
C1180  O1204   1.300   .     A
C1181  C1294   1.372   1_455 S
C1181  C1317   1.491   1_455 S
C1182  C1237   1.372   .     S
C1182  C1265   1.493   .     S
C1183  C1213   1.477   .     S
C1183  C1188   1.414   .     A
C1184  C1187   1.406   .     A
C1184  C1217   1.474   .     S
C1184  C1354   1.401   .     S
C1185  C1221   1.487   .     S
C1185  C1187   1.409   .     A
C1185  C1351   1.402   .     S
C1186  C1225   1.488   .     S
C1186  C1188   1.421   .     A
C1189  Cl1229  1.763   .     S
C1189  N1196   1.374   .     A
C1190  Cl1230  1.763   .     S
C1190  N1195   1.375   .     A
C1190  C184    1.421   1_556 S
C1191  N1195   1.370   .     A
C1191  Cl1231  1.755   .     S
C1191  C181    1.421   1_556 S
C1192  Cl1232  1.761   .     S
C1192  N1196   1.371   .     A
Cu1193 O1201   2.000   .     S
Cu1193 Cu1194  2.698   .     S
Cu1193 N1195   2.028   .     S
Cu1193 O1200   1.982   .     S
Cu1193 O1204   2.000   .     S
Cu1193 O1197   1.991   .     S
Cu1194 O1199   1.982   .     S
Cu1194 N1196   2.028   .     S
Cu1194 O1202   2.000   .     S
Cu1194 O1198   1.991   .     S
Cu1194 O1203   2.000   .     S
C1205  O1206   1.223   .     D
C1205  O1207   1.395   .     S
C1205  C1237   1.491   .     S
O1207  H1208   1.013   .     S
C1209  O1211   1.393   .     S
C1209  C1294   1.493   1_455 S
C1209  O1322   1.224   1_455 S
O1210  C1265   1.224   .     S
O1211  H1212   1.014   .     S
C1213  O1214   1.222   .     D
C1213  O1215   1.393   .     S
O1215  H1216   1.012   .     S
C1217  O1218   1.221   .     D
C1217  O1219   1.393   .     S
O1219  H1220   1.010   .     S
C1221  O1222   1.222   .     D
C1221  O1223   1.400   .     S
O1223  H1224   1.011   .     S
C1225  O1226   1.223   .     D
C1225  O1227   1.398   .     S
O1227  H1228   1.009   .     S
C1233  O1255   1.310   .     A
C1233  O1253   1.302   .     A
C1233  C1244   1.486   .     S
C1234  O1254   1.303   .     A
C1234  C1243   1.484   .     S
C1234  O1256   1.306   .     A
C1235  O1259   1.302   .     A
C1235  O1257   1.290   .     A
C1235  C1237   1.451   .     S
C1236  O1258   1.292   .     A
C1236  C1238   1.450   .     S
C1236  O1260   1.300   .     A
C1238  C1293   1.372   .     S
C1238  C1321   1.493   .     S
C1239  C1269   1.477   .     S
C1239  C1244   1.414   .     A
C1240  C1243   1.406   .     A
C1240  C1273   1.474   .     S
C1240  C1410   1.401   .     S
C1241  C1277   1.487   .     S
C1241  C1243   1.409   .     A
C1241  C1407   1.402   .     S
C1242  C1281   1.488   .     S
C1242  C1244   1.421   .     A
C1245  Cl1285  1.763   .     S
C1245  N1252   1.374   .     A
C1246  Cl1286  1.763   .     S
C1246  N1251   1.375   .     A
C1246  C240    1.421   1_556 S
C1247  N1251   1.370   .     A
C1247  Cl1287  1.755   .     S
C1247  C237    1.421   1_556 S
C1248  Cl1288  1.761   .     S
C1248  N1252   1.371   .     A
Cu1249 O1257   2.000   .     S
Cu1249 Cu1250  2.698   .     S
Cu1249 N1251   2.028   .     S
Cu1249 O1256   1.982   .     S
Cu1249 O1260   2.000   .     S
Cu1249 O1253   1.991   .     S
Cu1250 O1255   1.982   .     S
Cu1250 N1252   2.028   .     S
Cu1250 O1258   2.000   .     S
Cu1250 O1254   1.991   .     S
Cu1250 O1259   2.000   .     S
C1261  O1262   1.223   .     D
C1261  O1263   1.395   .     S
C1261  C1293   1.491   .     S
O1263  H1264   1.013   .     S
C1265  O1267   1.393   .     S
O1266  C1321   1.224   .     S
O1267  H1268   1.014   .     S
C1269  O1270   1.222   .     D
C1269  O1271   1.393   .     S
O1271  H1272   1.012   .     S
C1273  O1274   1.221   .     D
C1273  O1275   1.393   .     S
O1275  H1276   1.010   .     S
C1277  O1278   1.222   .     D
C1277  O1279   1.400   .     S
O1279  H1280   1.011   .     S
C1281  O1282   1.223   .     D
C1281  O1283   1.398   .     S
O1283  H1284   1.009   .     S
C1289  O1311   1.310   .     A
C1289  O1309   1.302   .     A
C1289  C1300   1.486   .     S
C1290  O1310   1.303   .     A
C1290  C1299   1.484   .     S
C1290  O1312   1.306   .     A
C1291  O1315   1.302   .     A
C1291  O1313   1.290   .     A
C1291  C1293   1.451   .     S
C1292  O1314   1.292   .     A
C1292  C1294   1.450   .     S
C1292  O1316   1.300   .     A
C1294  C1181   1.372   1_655 S
C1294  C1209   1.493   1_655 S
C1295  C1325   1.477   .     S
C1295  C1300   1.414   .     A
C1296  C1299   1.406   .     A
C1296  C1329   1.474   .     S
C1296  C1466   1.401   .     S
C1297  C1333   1.487   .     S
C1297  C1299   1.409   .     A
C1297  C1463   1.402   .     S
C1298  C1337   1.488   .     S
C1298  C1300   1.421   .     A
C1301  Cl1341  1.763   .     S
C1301  N1308   1.374   .     A
C1302  Cl1342  1.763   .     S
C1302  N1307   1.375   .     A
C1302  C296    1.421   1_556 S
C1303  N1307   1.370   .     A
C1303  Cl1343  1.755   .     S
C1303  C293    1.421   1_556 S
C1304  Cl1344  1.761   .     S
C1304  N1308   1.371   .     A
Cu1305 O1313   2.000   .     S
Cu1305 Cu1306  2.698   .     S
Cu1305 N1307   2.028   .     S
Cu1305 O1312   1.982   .     S
Cu1305 O1316   2.000   .     S
Cu1305 O1309   1.991   .     S
Cu1306 O1311   1.982   .     S
Cu1306 N1308   2.028   .     S
Cu1306 O1314   2.000   .     S
Cu1306 O1310   1.991   .     S
Cu1306 O1315   2.000   .     S
C1317  O1318   1.223   .     D
C1317  O1319   1.395   .     S
C1317  C1181   1.491   1_655 S
O1319  H1320   1.013   .     S
C1321  O1323   1.393   .     S
O1322  C1209   1.224   1_655 S
O1323  H1324   1.014   .     S
C1325  O1326   1.222   .     D
C1325  O1327   1.393   .     S
O1327  H1328   1.012   .     S
C1329  O1330   1.221   .     D
C1329  O1331   1.393   .     S
O1331  H1332   1.010   .     S
C1333  O1334   1.222   .     D
C1333  O1335   1.400   .     S
O1335  H1336   1.011   .     S
C1337  O1338   1.223   .     D
C1337  O1339   1.398   .     S
O1339  H1340   1.009   .     S
C1345  O1367   1.310   .     A
C1345  O1365   1.302   .     A
C1345  C1356   1.486   .     S
C1346  O1366   1.303   .     A
C1346  C1355   1.484   .     S
C1346  O1368   1.306   .     A
C1347  O1371   1.302   .     A
C1347  O1369   1.290   .     A
C1347  C1349   1.451   .     S
C1348  O1370   1.292   .     A
C1348  C1350   1.450   .     S
C1348  O1372   1.300   .     A
C1349  C1462   1.372   1_455 S
C1349  C1485   1.491   1_455 S
C1350  C1405   1.372   .     S
C1350  C1433   1.493   .     S
C1351  C1381   1.477   .     S
C1351  C1356   1.414   .     A
C1352  C1355   1.406   .     A
C1352  C1385   1.474   .     S
C1352  C1018   1.401   1_565 S
C1353  C1389   1.487   .     S
C1353  C1355   1.409   .     A
C1353  C1015   1.402   1_565 S
C1354  C1393   1.488   .     S
C1354  C1356   1.421   .     A
C1357  Cl1397  1.763   .     S
C1357  N1364   1.374   .     A
C1358  Cl1398  1.763   .     S
C1358  N1363   1.375   .     A
C1358  C352    1.421   1_556 S
C1359  N1363   1.370   .     A
C1359  Cl1399  1.755   .     S
C1359  C349    1.421   1_556 S
C1360  Cl1400  1.761   .     S
C1360  N1364   1.371   .     A
Cu1361 O1369   2.000   .     S
Cu1361 Cu1362  2.698   .     S
Cu1361 N1363   2.028   .     S
Cu1361 O1368   1.982   .     S
Cu1361 O1372   2.000   .     S
Cu1361 O1365   1.991   .     S
Cu1362 O1367   1.982   .     S
Cu1362 N1364   2.028   .     S
Cu1362 O1370   2.000   .     S
Cu1362 O1366   1.991   .     S
Cu1362 O1371   2.000   .     S
C1373  O1374   1.223   .     D
C1373  O1375   1.395   .     S
C1373  C1405   1.491   .     S
O1375  H1376   1.013   .     S
C1377  O1379   1.393   .     S
C1377  C1462   1.493   1_455 S
C1377  O1490   1.224   1_455 S
O1378  C1433   1.224   .     S
O1379  H1380   1.014   .     S
C1381  O1382   1.222   .     D
C1381  O1383   1.393   .     S
O1383  H1384   1.012   .     S
C1385  O1386   1.221   .     D
C1385  O1387   1.393   .     S
O1387  H1388   1.010   .     S
C1389  O1390   1.222   .     D
C1389  O1391   1.400   .     S
O1391  H1392   1.011   .     S
C1393  O1394   1.223   .     D
C1393  O1395   1.398   .     S
O1395  H1396   1.009   .     S
C1401  O1423   1.310   .     A
C1401  O1421   1.302   .     A
C1401  C1412   1.486   .     S
C1402  O1422   1.303   .     A
C1402  C1411   1.484   .     S
C1402  O1424   1.306   .     A
C1403  O1427   1.302   .     A
C1403  O1425   1.290   .     A
C1403  C1405   1.451   .     S
C1404  O1426   1.292   .     A
C1404  C1406   1.450   .     S
C1404  O1428   1.300   .     A
C1406  C1461   1.372   .     S
C1406  C1489   1.493   .     S
C1407  C1437   1.477   .     S
C1407  C1412   1.414   .     A
C1408  C1411   1.406   .     A
C1408  C1441   1.474   .     S
C1408  C1074   1.401   1_565 S
C1409  C1445   1.487   .     S
C1409  C1411   1.409   .     A
C1409  C1071   1.402   1_565 S
C1410  C1449   1.488   .     S
C1410  C1412   1.421   .     A
C1413  Cl1453  1.763   .     S
C1413  N1420   1.374   .     A
C1414  Cl1454  1.763   .     S
C1414  N1419   1.375   .     A
C1414  C408    1.421   1_556 S
C1415  N1419   1.370   .     A
C1415  Cl1455  1.755   .     S
C1415  C405    1.421   1_556 S
C1416  Cl1456  1.761   .     S
C1416  N1420   1.371   .     A
Cu1417 O1425   2.000   .     S
Cu1417 Cu1418  2.698   .     S
Cu1417 N1419   2.028   .     S
Cu1417 O1424   1.982   .     S
Cu1417 O1428   2.000   .     S
Cu1417 O1421   1.991   .     S
Cu1418 O1423   1.982   .     S
Cu1418 N1420   2.028   .     S
Cu1418 O1426   2.000   .     S
Cu1418 O1422   1.991   .     S
Cu1418 O1427   2.000   .     S
C1429  O1430   1.223   .     D
C1429  O1431   1.395   .     S
C1429  C1461   1.491   .     S
O1431  H1432   1.013   .     S
C1433  O1435   1.393   .     S
O1434  C1489   1.224   .     S
O1435  H1436   1.014   .     S
C1437  O1438   1.222   .     D
C1437  O1439   1.393   .     S
O1439  H1440   1.012   .     S
C1441  O1442   1.221   .     D
C1441  O1443   1.393   .     S
O1443  H1444   1.010   .     S
C1445  O1446   1.222   .     D
C1445  O1447   1.400   .     S
O1447  H1448   1.011   .     S
C1449  O1450   1.223   .     D
C1449  O1451   1.398   .     S
O1451  H1452   1.009   .     S
C1457  O1479   1.310   .     A
C1457  O1477   1.302   .     A
C1457  C1468   1.486   .     S
C1458  O1478   1.303   .     A
C1458  C1467   1.484   .     S
C1458  O1480   1.306   .     A
C1459  O1483   1.302   .     A
C1459  O1481   1.290   .     A
C1459  C1461   1.451   .     S
C1460  O1482   1.292   .     A
C1460  C1462   1.450   .     S
C1460  O1484   1.300   .     A
C1462  C1349   1.372   1_655 S
C1462  C1377   1.493   1_655 S
C1463  C1493   1.477   .     S
C1463  C1468   1.414   .     A
C1464  C1467   1.406   .     A
C1464  C1497   1.474   .     S
C1464  C1130   1.401   1_565 S
C1465  C1501   1.487   .     S
C1465  C1467   1.409   .     A
C1465  C1127   1.402   1_565 S
C1466  C1505   1.488   .     S
C1466  C1468   1.421   .     A
C1469  Cl1509  1.763   .     S
C1469  N1476   1.374   .     A
C1470  Cl1510  1.763   .     S
C1470  N1475   1.375   .     A
C1470  C464    1.421   1_556 S
C1471  N1475   1.370   .     A
C1471  Cl1511  1.755   .     S
C1471  C461    1.421   1_556 S
C1472  Cl1512  1.761   .     S
C1472  N1476   1.371   .     A
Cu1473 O1481   2.000   .     S
Cu1473 Cu1474  2.698   .     S
Cu1473 N1475   2.028   .     S
Cu1473 O1480   1.982   .     S
Cu1473 O1484   2.000   .     S
Cu1473 O1477   1.991   .     S
Cu1474 O1479   1.982   .     S
Cu1474 N1476   2.028   .     S
Cu1474 O1482   2.000   .     S
Cu1474 O1478   1.991   .     S
Cu1474 O1483   2.000   .     S
C1485  O1486   1.223   .     D
C1485  O1487   1.395   .     S
C1485  C1349   1.491   1_655 S
O1487  H1488   1.013   .     S
C1489  O1491   1.393   .     S
O1490  C1377   1.224   1_655 S
O1491  H1492   1.014   .     S
C1493  O1494   1.222   .     D
C1493  O1495   1.393   .     S
O1495  H1496   1.012   .     S
C1497  O1498   1.221   .     D
C1497  O1499   1.393   .     S
O1499  H1500   1.010   .     S
C1501  O1502   1.222   .     D
C1501  O1503   1.400   .     S
O1503  H1504   1.011   .     S
C1505  O1506   1.223   .     D
C1505  O1507   1.398   .     S
O1507  H1508   1.009   .     S
