data_str_m1_o1_o17_pcu_sym.144
_audit_creation_date              2020-01-03
_audit_creation_method            'Materials Studio'
_symmetry_space_group_name_H-M    'P1'
_symmetry_Int_Tables_number       1
_symmetry_cell_setting            triclinic
loop_
_symmetry_equiv_pos_as_xyz
  x,y,z
_cell_length_a                    36.6566
_cell_length_b                    36.6584
_cell_length_c                    34.4939
_cell_angle_alpha                 89.9781
_cell_angle_beta                  90.0029
_cell_angle_gamma                 89.9441
loop_
_atom_site_label
_atom_site_type_symbol
_atom_site_fract_x
_atom_site_fract_y
_atom_site_fract_z
_atom_site_U_iso_or_equiv
_atom_site_adp_type
_atom_site_occupancy
C1     C     0.47179   0.26702   0.41827   0.00000  Uiso   1.00
C2     C     0.02776   0.23201   0.58156   0.00000  Uiso   1.00
C3     C     0.23316   0.02843   0.41840   0.00000  Uiso   1.00
C4     C     0.26913   0.47282   0.58169   0.00000  Uiso   1.00
C5     C     0.02727   0.23094   0.41829   0.00000  Uiso   1.00
C6     C     0.47134   0.26660   0.58157   0.00000  Uiso   1.00
C7     C     0.26788   0.47207   0.41842   0.00000  Uiso   1.00
C8     C     0.23339   0.02850   0.58169   0.00000  Uiso   1.00
C9     C     0.22205   0.01776   0.91846   0.00000  Uiso   1.00
C10    C     0.27868   0.48381   0.08170   0.00000  Uiso   1.00
C11    C     0.48308   0.22168   0.91832   0.00000  Uiso   1.00
C12    C     0.01682   0.27835   0.08166   0.00000  Uiso   1.00
C13    C     0.27905   0.48415   0.91844   0.00000  Uiso   1.00
C14    C     0.22249   0.01878   0.08169   0.00000  Uiso   1.00
C15    C     0.01792   0.27787   0.91833   0.00000  Uiso   1.00
C16    C     0.48204   0.22212   0.08167   0.00000  Uiso   1.00
C17    C     0.49981   0.24944   0.39826   0.00000  Uiso   1.00
C18    C     0.49982   0.24971   0.60165   0.00000  Uiso   1.00
C19    C     0.25020   0.00006   0.39835   0.00000  Uiso   1.00
C20    C     0.25071   0.00030   0.60173   0.00000  Uiso   1.00
C21    C     0.25022   0.00044   0.89836   0.00000  Uiso   1.00
C22    C     0.25024   0.00071   0.10172   0.00000  Uiso   1.00
C23    C     0.00036   0.24986   0.89829   0.00000  Uiso   1.00
C24    C     0.49959   0.25014   0.10171   0.00000  Uiso   1.00
C25    C     0.05426   0.21011   0.47968   0.00000  Uiso   1.00
C26    C     0.44306   0.28553   0.52018   0.00000  Uiso   1.00
C27    C     0.28947   0.44547   0.47970   0.00000  Uiso   1.00
C28    C     0.21661   0.05821   0.52047   0.00000  Uiso   1.00
C29    C     0.44189   0.28358   0.47943   0.00000  Uiso   1.00
C30    C     0.05338   0.20898   0.52049   0.00000  Uiso   1.00
C31    C     0.21452   0.05693   0.47972   0.00000  Uiso   1.00
C32    C     0.29126   0.44670   0.52048   0.00000  Uiso   1.00
C33    C     0.30788   0.46610   0.97982   0.00000  Uiso   1.00
C34    C     0.19544   0.03956   0.02032   0.00000  Uiso   1.00
C35    C     0.03611   0.30653   0.97970   0.00000  Uiso   1.00
C36    C     0.46377   0.19350   0.02029   0.00000  Uiso   1.00
C37    C     0.19626   0.04064   0.97950   0.00000  Uiso   1.00
C38    C     0.30905   0.46817   0.02057   0.00000  Uiso   1.00
C39    C     0.46618   0.19210   0.97957   0.00000  Uiso   1.00
C40    C     0.03366   0.30795   0.02042   0.00000  Uiso   1.00
C41    C     0.24998  -0.00000   0.35592   0.00000  Uiso   1.00
C42    C     0.24999   0.00002   0.64411   0.00000  Uiso   1.00
C43    C     0.49999   0.25000   0.35589   0.00000  Uiso   1.00
C44    C     0.49999   0.25005   0.64408   0.00000  Uiso   1.00
C45    C     0.00002   0.24999   0.85590   0.00000  Uiso   1.00
C46    C     0.49997   0.25001   0.14410   0.00000  Uiso   1.00
C47    C     0.25002   0.49997   0.85593   0.00000  Uiso   1.00
C48    C     0.25001   0.00001   0.14410   0.00000  Uiso   1.00
C49    C     0.17996   0.07003   0.25001   0.00000  Uiso   1.00
C50    C     0.32004   0.42997   0.74999   0.00000  Uiso   1.00
C51    C     0.42995   0.17997   0.24999   0.00000  Uiso   1.00
C52    C     0.07005   0.32003   0.75001   0.00000  Uiso   1.00
C53    C     0.32004   0.42997   0.25001   0.00000  Uiso   1.00
C54    C     0.17996   0.07004   0.75000   0.00000  Uiso   1.00
C55    C     0.07005   0.32004   0.24999   0.00000  Uiso   1.00
C56    C     0.42995   0.17996   0.75001   0.00000  Uiso   1.00
C57    C     0.17996   0.42995   0.75001   0.00000  Uiso   1.00
C58    C     0.32004   0.07004   0.24999   0.00000  Uiso   1.00
C59    C     0.42997   0.32004   0.74999   0.00000  Uiso   1.00
C60    C     0.07003   0.17996   0.25001   0.00000  Uiso   1.00
C61    C     0.32004   0.07005   0.75000   0.00000  Uiso   1.00
C62    C     0.17996   0.42995   0.25000   0.00000  Uiso   1.00
C63    C     0.07003   0.17995   0.74999   0.00000  Uiso   1.00
C64    C     0.42997   0.32005   0.25001   0.00000  Uiso   1.00
C65    C     0.11646   0.41027   0.23730   0.00000  Uiso   1.00
C66    C     0.36967   0.10359   0.78316   0.00000  Uiso   1.00
C67    C     0.10419   0.13096   0.21656   0.00000  Uiso   1.00
C68    C     0.39584   0.36907   0.78342   0.00000  Uiso   1.00
C69    C     0.36956   0.10372   0.21678   0.00000  Uiso   1.00
C70    C     0.13044   0.39628   0.78322   0.00000  Uiso   1.00
C71    C     0.39604   0.36931   0.21668   0.00000  Uiso   1.00
C72    C     0.10411   0.13085   0.78340   0.00000  Uiso   1.00
C73    C     0.13088   0.10411   0.78341   0.00000  Uiso   1.00
C74    C     0.36928   0.39605   0.21668   0.00000  Uiso   1.00
C75    C     0.10372   0.36953   0.78323   0.00000  Uiso   1.00
C76    C     0.39629   0.13047   0.21677   0.00000  Uiso   1.00
C77    C     0.36908   0.39582   0.78343   0.00000  Uiso   1.00
C78    C     0.13095   0.10421   0.21656   0.00000  Uiso   1.00
C79    C     0.39640   0.13032   0.78316   0.00000  Uiso   1.00
C80    C     0.08973   0.38354   0.23729   0.00000  Uiso   1.00
C81    C     0.38031   0.14643   0.71688   0.00000  Uiso   1.00
C82    C     0.13355   0.33971   0.26265   0.00000  Uiso   1.00
C83    C     0.35422   0.38100   0.71650   0.00000  Uiso   1.00
C84    C     0.14575   0.11898   0.28351   0.00000  Uiso   1.00
C85    C     0.11961   0.35367   0.71685   0.00000  Uiso   1.00
C86    C     0.38039   0.14634   0.28315   0.00000  Uiso   1.00
C87    C     0.14587   0.11913   0.71656   0.00000  Uiso   1.00
C88    C     0.35402   0.38077   0.28340   0.00000  Uiso   1.00
C89    C     0.38078   0.35401   0.28340   0.00000  Uiso   1.00
C90    C     0.11910   0.14587   0.71655   0.00000  Uiso   1.00
C91    C     0.35366   0.11960   0.28315   0.00000  Uiso   1.00
C92    C     0.14634   0.38041   0.71685   0.00000  Uiso   1.00
C93    C     0.11900   0.14574   0.28351   0.00000  Uiso   1.00
C94    C     0.38098   0.35424   0.71650   0.00000  Uiso   1.00
C95    C     0.16028   0.36645   0.26266   0.00000  Uiso   1.00
C96    C     0.35358   0.11970   0.71688   0.00000  Uiso   1.00
C97    C     0.02698   0.22947   0.45907   0.00000  Uiso   1.00
C98    C     0.47095   0.26705   0.54078   0.00000  Uiso   1.00
C99    C     0.26984   0.47261   0.45917   0.00000  Uiso   1.00
C100   C     0.23426   0.02977   0.54096   0.00000  Uiso   1.00
C101   C     0.47040   0.26598   0.45898   0.00000  Uiso   1.00
C102   C     0.02676   0.22942   0.54088   0.00000  Uiso   1.00
C103   C     0.23287   0.02893   0.45917   0.00000  Uiso   1.00
C104   C     0.27123   0.47354   0.54097   0.00000  Uiso   1.00
C105   C     0.27956   0.48389   0.95922   0.00000  Uiso   1.00
C106   C     0.22289   0.02047   0.04092   0.00000  Uiso   1.00
C107   C     0.01850   0.27814   0.95912   0.00000  Uiso   1.00
C108   C     0.48141   0.22186   0.04087   0.00000  Uiso   1.00
C109   C     0.22310   0.02050   0.95912   0.00000  Uiso   1.00
C110   C     0.28013   0.48504   0.04100   0.00000  Uiso   1.00
C111   C     0.48334   0.22082   0.95908   0.00000  Uiso   1.00
C112   C     0.01654   0.27921   0.04091   0.00000  Uiso   1.00
C113   C     0.09811   0.34810   0.24998   0.00000  Uiso   1.00
C114   C     0.40189   0.15190   0.75002   0.00000  Uiso   1.00
C115   C     0.15188   0.09808   0.25003   0.00000  Uiso   1.00
C116   C     0.34812   0.40193   0.74997   0.00000  Uiso   1.00
C117   C     0.40187   0.15192   0.24997   0.00000  Uiso   1.00
C118   C     0.09813   0.34808   0.75003   0.00000  Uiso   1.00
C119   C     0.34812   0.40192   0.25003   0.00000  Uiso   1.00
C120   C     0.15190   0.09810   0.74999   0.00000  Uiso   1.00
C121   C     0.09809   0.15188   0.74998   0.00000  Uiso   1.00
C122   C     0.40192   0.34813   0.25004   0.00000  Uiso   1.00
C123   C     0.15190   0.40188   0.75003   0.00000  Uiso   1.00
C124   C     0.34810   0.09812   0.24997   0.00000  Uiso   1.00
C125   C     0.40192   0.34812   0.74997   0.00000  Uiso   1.00
C126   C     0.09809   0.15188   0.25003   0.00000  Uiso   1.00
C127   C     0.34810   0.09812   0.75002   0.00000  Uiso   1.00
C128   C     0.15190   0.40189   0.24999   0.00000  Uiso   1.00
C129   C     0.49861   0.24766   0.47950   0.00000  Uiso   1.00
C130   C     0.49871   0.24795   0.52035   0.00000  Uiso   1.00
C131   C     0.25193   0.00114   0.47963   0.00000  Uiso   1.00
C132   C     0.25252   0.00151   0.52047   0.00000  Uiso   1.00
C133   C     0.25148   0.00249   0.97965   0.00000  Uiso   1.00
C134   C     0.25158   0.00281   0.02049   0.00000  Uiso   1.00
C135   C     0.00039   0.24977   0.97958   0.00000  Uiso   1.00
C136   C     0.49950   0.25025   0.02042   0.00000  Uiso   1.00
O137   O     0.25000  -0.00000   0.25000   0.00000  Uiso   1.00
O138   O     0.25000  -0.00000   0.75000   0.00000  Uiso   1.00
O139   O     0.00000   0.25000   0.25000   0.00000  Uiso   1.00
O140   O     0.00000   0.25000   0.75000   0.00000  Uiso   1.00
O141   O     0.25000   0.46963   0.33755   0.00000  Uiso   1.00
O142   O     0.25000   0.03036   0.66245   0.00000  Uiso   1.00
O143   O     0.03036   0.25000   0.33755   0.00000  Uiso   1.00
O144   O     0.46963   0.25000   0.66245   0.00000  Uiso   1.00
O145   O     0.25000   0.03036   0.33755   0.00000  Uiso   1.00
O146   O     0.25000   0.46963   0.66245   0.00000  Uiso   1.00
O147   O     0.46963   0.25000   0.33755   0.00000  Uiso   1.00
O148   O     0.03036   0.25000   0.66245   0.00000  Uiso   1.00
O149   O     0.00000   0.21963   0.83755   0.00000  Uiso   1.00
O150   O     0.00000   0.28036   0.16245   0.00000  Uiso   1.00
O151   O     0.28036  -0.00000   0.83755   0.00000  Uiso   1.00
O152   O     0.21963  -0.00000   0.16245   0.00000  Uiso   1.00
O153   O     0.00000   0.28036   0.83755   0.00000  Uiso   1.00
O154   O     0.00000   0.21963   0.16245   0.00000  Uiso   1.00
O155   O     0.21963  -0.00000   0.83755   0.00000  Uiso   1.00
O156   O     0.28036  -0.00000   0.16245   0.00000  Uiso   1.00
O157   O     0.20724   0.07307   0.27302   0.00000  Uiso   1.00
O158   O     0.29275   0.42692   0.72698   0.00000  Uiso   1.00
O159   O     0.42692   0.20724   0.27302   0.00000  Uiso   1.00
O160   O     0.07307   0.29275   0.72698   0.00000  Uiso   1.00
O161   O     0.29275   0.42692   0.27302   0.00000  Uiso   1.00
O162   O     0.20724   0.07307   0.72698   0.00000  Uiso   1.00
O163   O     0.07307   0.29275   0.27302   0.00000  Uiso   1.00
O164   O     0.42692   0.20724   0.72698   0.00000  Uiso   1.00
O165   O     0.20724   0.42692   0.72698   0.00000  Uiso   1.00
O166   O     0.29275   0.07307   0.27302   0.00000  Uiso   1.00
O167   O     0.42692   0.29275   0.72698   0.00000  Uiso   1.00
O168   O     0.07307   0.20724   0.27302   0.00000  Uiso   1.00
O169   O     0.29275   0.07307   0.72698   0.00000  Uiso   1.00
O170   O     0.20724   0.42692   0.27302   0.00000  Uiso   1.00
O171   O     0.07307   0.20724   0.72698   0.00000  Uiso   1.00
O172   O     0.42692   0.29275   0.27302   0.00000  Uiso   1.00
O173   O     0.45724   0.32307   0.77302   0.00000  Uiso   1.00
O174   O     0.04275   0.17692   0.22698   0.00000  Uiso   1.00
O175   O     0.17692   0.45724   0.77302   0.00000  Uiso   1.00
O176   O     0.32307   0.04275   0.22698   0.00000  Uiso   1.00
O177   O     0.04275   0.17692   0.77302   0.00000  Uiso   1.00
O178   O     0.45724   0.32307   0.22698   0.00000  Uiso   1.00
O179   O     0.32307   0.04275   0.77302   0.00000  Uiso   1.00
O180   O     0.17692   0.45724   0.22698   0.00000  Uiso   1.00
O181   O     0.45724   0.17692   0.22698   0.00000  Uiso   1.00
O182   O     0.04275   0.32307   0.77302   0.00000  Uiso   1.00
O183   O     0.17692   0.04275   0.22698   0.00000  Uiso   1.00
O184   O     0.32307   0.45724   0.77302   0.00000  Uiso   1.00
O185   O     0.04275   0.32307   0.22698   0.00000  Uiso   1.00
O186   O     0.45724   0.17692   0.77302   0.00000  Uiso   1.00
O187   O     0.32307   0.45724   0.22698   0.00000  Uiso   1.00
O188   O     0.17692   0.04275   0.77302   0.00000  Uiso   1.00
Zn189  Zn    0.20659  -0.00000   0.21735   0.00000  Uiso   1.00
Zn190  Zn    0.29340  -0.00000   0.78265   0.00000  Uiso   1.00
Zn191  Zn    0.00000   0.20659   0.21735   0.00000  Uiso   1.00
Zn192  Zn    0.00000   0.29340   0.78265   0.00000  Uiso   1.00
Zn193  Zn    0.29340  -0.00000   0.21735   0.00000  Uiso   1.00
Zn194  Zn    0.20659  -0.00000   0.78265   0.00000  Uiso   1.00
Zn195  Zn   -0.00000   0.29340   0.21735   0.00000  Uiso   1.00
Zn196  Zn   -0.00000   0.20659   0.78265   0.00000  Uiso   1.00
Zn197  Zn    0.45659   0.25000   0.71735   0.00000  Uiso   1.00
Zn198  Zn    0.04340   0.25000   0.28265   0.00000  Uiso   1.00
Zn199  Zn    0.25000   0.45659   0.71735   0.00000  Uiso   1.00
Zn200  Zn    0.25000   0.04340   0.28265   0.00000  Uiso   1.00
Zn201  Zn    0.04340   0.25000   0.71735   0.00000  Uiso   1.00
Zn202  Zn    0.45659   0.25000   0.28265   0.00000  Uiso   1.00
Zn203  Zn    0.25000   0.04340   0.71735   0.00000  Uiso   1.00
Zn204  Zn    0.25000   0.45659   0.28265   0.00000  Uiso   1.00
N205   N     0.08292   0.19206   0.45930   0.00000  Uiso   1.00
H206   H     0.10917   0.19857   0.46745   0.00000  Uiso   1.00
C207   C     0.07709   0.15402   0.44988   0.00000  Uiso   1.00
H208   H     0.09295   0.13643   0.46996   0.00000  Uiso   1.00
H209   H     0.08679   0.14880   0.41991   0.00000  Uiso   1.00
H210   H     0.04772   0.14657   0.45150   0.00000  Uiso   1.00
N211   N     0.41599   0.30600   0.54049   0.00000  Uiso   1.00
H212   H     0.38968   0.30302   0.53049   0.00000  Uiso   1.00
C213   C     0.42578   0.34360   0.54793   0.00000  Uiso   1.00
H214   H     0.42786   0.35909   0.52034   0.00000  Uiso   1.00
H215   H     0.45228   0.34513   0.56348   0.00000  Uiso   1.00
H216   H     0.40456   0.35650   0.56636   0.00000  Uiso   1.00
N217   N     0.30721   0.41663   0.45931   0.00000  Uiso   1.00
H218   H     0.30080   0.39045   0.46778   0.00000  Uiso   1.00
C219   C     0.34509   0.42238   0.44905   0.00000  Uiso   1.00
H220   H     0.36300   0.40602   0.46836   0.00000  Uiso   1.00
H221   H     0.35280   0.45166   0.45110   0.00000  Uiso   1.00
H222   H     0.34957   0.41321   0.41877   0.00000  Uiso   1.00
N223   N     0.20088   0.08820   0.54091   0.00000  Uiso   1.00
H224   H     0.17603   0.09720   0.53074   0.00000  Uiso   1.00
C225   C     0.22607   0.11757   0.54916   0.00000  Uiso   1.00
H226   H     0.23540   0.13059   0.52182   0.00000  Uiso   1.00
H227   H     0.25015   0.10718   0.56533   0.00000  Uiso   1.00
H228   H     0.21228   0.13845   0.56730   0.00000  Uiso   1.00
N229   N     0.41199   0.29942   0.45892   0.00000  Uiso   1.00
H230   H     0.40297   0.32423   0.46914   0.00000  Uiso   1.00
C231   C     0.38262   0.27429   0.45044   0.00000  Uiso   1.00
H232   H     0.36950   0.26486   0.47768   0.00000  Uiso   1.00
H233   H     0.39305   0.25027   0.43420   0.00000  Uiso   1.00
H234   H     0.36181   0.28817   0.43227   0.00000  Uiso   1.00
N235   N     0.07840   0.18615   0.54103   0.00000  Uiso   1.00
H236   H     0.10424   0.18407   0.52954   0.00000  Uiso   1.00
C237   C     0.06359   0.15128   0.55297   0.00000  Uiso   1.00
H238   H     0.05633   0.13454   0.52732   0.00000  Uiso   1.00
H239   H     0.03882   0.15510   0.57105   0.00000  Uiso   1.00
H240   H     0.08420   0.13632   0.57042   0.00000  Uiso   1.00
N241   N     0.19402   0.08396   0.45938   0.00000  Uiso   1.00
H242   H     0.19704   0.11030   0.46927   0.00000  Uiso   1.00
C243   C     0.15640   0.07418   0.45202   0.00000  Uiso   1.00
H244   H     0.14093   0.07232   0.47963   0.00000  Uiso   1.00
H245   H     0.15481   0.04757   0.43671   0.00000  Uiso   1.00
H246   H     0.14353   0.09528   0.43340   0.00000  Uiso   1.00
N247   N     0.31429   0.42173   0.54086   0.00000  Uiso   1.00
H248   H     0.31600   0.39577   0.52964   0.00000  Uiso   1.00
C249   C     0.34944   0.43643   0.55195   0.00000  Uiso   1.00
H250   H     0.36599   0.44285   0.52592   0.00000  Uiso   1.00
H251   H     0.36435   0.41608   0.56980   0.00000  Uiso   1.00
H252   H     0.34610   0.46167   0.56939   0.00000  Uiso   1.00
N253   N     0.33532   0.44614   0.95953   0.00000  Uiso   1.00
H254   H     0.36159   0.44969   0.96946   0.00000  Uiso   1.00
C255   C     0.32624   0.40832   0.95230   0.00000  Uiso   1.00
H256   H     0.32430   0.39298   0.97999   0.00000  Uiso   1.00
H257   H     0.34776   0.39568   0.93405   0.00000  Uiso   1.00
H258   H     0.29983   0.40622   0.93665   0.00000  Uiso   1.00
N259   N     0.16685   0.05770   0.04072   0.00000  Uiso   1.00
H260   H     0.14055   0.05147   0.03252   0.00000  Uiso   1.00
C261   C     0.17307   0.09557   0.05064   0.00000  Uiso   1.00
H262   H     0.15701   0.11353   0.03112   0.00000  Uiso   1.00
H263   H     0.20245   0.10289   0.04859   0.00000  Uiso   1.00
H264   H     0.16389   0.10041   0.08086   0.00000  Uiso   1.00
N265   N     0.05613   0.33389   0.95939   0.00000  Uiso   1.00
H266   H     0.05252   0.36020   0.96917   0.00000  Uiso   1.00
C267   C     0.09399   0.32473   0.95238   0.00000  Uiso   1.00
H268   H     0.10919   0.32286   0.98015   0.00000  Uiso   1.00
H269   H     0.10669   0.34618   0.93411   0.00000  Uiso   1.00
H270   H     0.09616   0.29828   0.93683   0.00000  Uiso   1.00
N271   N     0.44374   0.16614   0.04061   0.00000  Uiso   1.00
H272   H     0.44730   0.13984   0.03080   0.00000  Uiso   1.00
C273   C     0.40591   0.17534   0.04770   0.00000  Uiso   1.00
H274   H     0.39067   0.17726   0.01995   0.00000  Uiso   1.00
H275   H     0.40379   0.20178   0.06329   0.00000  Uiso   1.00
H276   H     0.39320   0.15388   0.06596   0.00000  Uiso   1.00
N277   N     0.17106   0.06326   0.95893   0.00000  Uiso   1.00
H278   H     0.14521   0.06512   0.97040   0.00000  Uiso   1.00
C279   C     0.18562   0.09822   0.94698   0.00000  Uiso   1.00
H280   H     0.19261   0.11507   0.97262   0.00000  Uiso   1.00
H281   H     0.16495   0.11296   0.92938   0.00000  Uiso   1.00
H282   H     0.21049   0.09458   0.92902   0.00000  Uiso   1.00
N283   N     0.33943   0.45325   0.04107   0.00000  Uiso   1.00
H284   H     0.34916   0.42870   0.03089   0.00000  Uiso   1.00
C285   C     0.36802   0.47928   0.04947   0.00000  Uiso   1.00
H286   H     0.38080   0.48906   0.02218   0.00000  Uiso   1.00
H287   H     0.38927   0.46606   0.06762   0.00000  Uiso   1.00
H288   H     0.35689   0.00298   0.06569   0.00000  Uiso   1.00
N289   N     0.45147   0.16162   0.95916   0.00000  Uiso   1.00
H290   H     0.42675   0.15210   0.96911   0.00000  Uiso   1.00
C291   C     0.47751   0.13280   0.95147   0.00000  Uiso   1.00
H292   H     0.48686   0.12019   0.97902   0.00000  Uiso   1.00
H293   H     0.00150   0.14367   0.93554   0.00000  Uiso   1.00
H294   H     0.46449   0.11148   0.93331   0.00000  Uiso   1.00
N295   N     0.04827   0.33849   0.04082   0.00000  Uiso   1.00
H296   H     0.07297   0.34806   0.03090   0.00000  Uiso   1.00
C297   C     0.02214   0.36723   0.04845   0.00000  Uiso   1.00
H298   H     0.01277   0.37978   0.02087   0.00000  Uiso   1.00
H299   H     0.03508   0.38862   0.06659   0.00000  Uiso   1.00
H300   H     0.49817   0.35632   0.06438   0.00000  Uiso   1.00
F301   F     0.10734   0.44453   0.22578   0.00000  Uiso   1.00
F302   F     0.36436   0.08373   0.81593   0.00000  Uiso   1.00
F303   F     0.08496   0.13696   0.18350   0.00000  Uiso   1.00
F304   F     0.41510   0.36310   0.81647   0.00000  Uiso   1.00
F305   F     0.36416   0.08397   0.18396   0.00000  Uiso   1.00
F306   F     0.13585   0.41602   0.81604   0.00000  Uiso   1.00
F307   F     0.41551   0.36358   0.18373   0.00000  Uiso   1.00
F308   F     0.08478   0.13672   0.81642   0.00000  Uiso   1.00
F309   F     0.13679   0.08479   0.81644   0.00000  Uiso   1.00
F310   F     0.36353   0.41551   0.18371   0.00000  Uiso   1.00
F311   F     0.08399   0.36408   0.81606   0.00000  Uiso   1.00
F312   F     0.41602   0.13591   0.18394   0.00000  Uiso   1.00
F313   F     0.36311   0.41506   0.81649   0.00000  Uiso   1.00
F314   F     0.13696   0.08500   0.18348   0.00000  Uiso   1.00
F315   F     0.41625   0.13563   0.81594   0.00000  Uiso   1.00
F316   F     0.05548   0.39265   0.22575   0.00000  Uiso   1.00
F317   F     0.38562   0.16629   0.68411   0.00000  Uiso   1.00
F318   F     0.14267   0.30545   0.27417   0.00000  Uiso   1.00
F319   F     0.33499   0.38701   0.68344   0.00000  Uiso   1.00
F320   F     0.16497   0.11295   0.31659   0.00000  Uiso   1.00
F321   F     0.11421   0.33392   0.68403   0.00000  Uiso   1.00
F322   F     0.38578   0.16609   0.31597   0.00000  Uiso   1.00
F323   F     0.16520   0.11324   0.68353   0.00000  Uiso   1.00
F324   F     0.33459   0.38653   0.31638   0.00000  Uiso   1.00
F325   F     0.38655   0.33455   0.31637   0.00000  Uiso   1.00
F326   F     0.11319   0.16519   0.68352   0.00000  Uiso   1.00
F327   F     0.33390   0.11419   0.31597   0.00000  Uiso   1.00
F328   F     0.16609   0.38582   0.68403   0.00000  Uiso   1.00
F329   F     0.11299   0.16494   0.31659   0.00000  Uiso   1.00
F330   F     0.38696   0.33500   0.68344   0.00000  Uiso   1.00
F331   F     0.19454   0.35733   0.27418   0.00000  Uiso   1.00
F332   F     0.33372   0.11441   0.68411   0.00000  Uiso   1.00
F333   F     0.44716   0.28680   0.39754   0.00000  Uiso   1.00
F334   F     0.05583   0.21735   0.60212   0.00000  Uiso   1.00
F335   F     0.21674   0.05533   0.39758   0.00000  Uiso   1.00
F336   F     0.28448   0.44518   0.60236   0.00000  Uiso   1.00
F337   F     0.05378   0.21401   0.39742   0.00000  Uiso   1.00
F338   F     0.44437   0.28294   0.60235   0.00000  Uiso   1.00
F339   F     0.28403   0.44505   0.39760   0.00000  Uiso   1.00
F340   F     0.21379   0.05327   0.60239   0.00000  Uiso   1.00
F341   F     0.19371   0.03194   0.89794   0.00000  Uiso   1.00
F342   F     0.30367   0.46442   0.10236   0.00000  Uiso   1.00
F343   F     0.46424   0.19640   0.89757   0.00000  Uiso   1.00
F344   F     0.03565   0.30365   0.10240   0.00000  Uiso   1.00
F345   F     0.30628   0.46823   0.89768   0.00000  Uiso   1.00
F346   F     0.19550   0.03497   0.10253   0.00000  Uiso   1.00
F347   F     0.03408   0.30488   0.89751   0.00000  Uiso   1.00
F348   F     0.46592   0.19508   0.10249   0.00000  Uiso   1.00
C349   C     0.97179   0.26702   0.41827   0.00000  Uiso   1.00
C350   C     0.52776   0.23201   0.58156   0.00000  Uiso   1.00
C351   C     0.73316   0.02843   0.41840   0.00000  Uiso   1.00
C352   C     0.76913   0.47282   0.58169   0.00000  Uiso   1.00
C353   C     0.52727   0.23094   0.41829   0.00000  Uiso   1.00
C354   C     0.97134   0.26660   0.58157   0.00000  Uiso   1.00
C355   C     0.76788   0.47207   0.41842   0.00000  Uiso   1.00
C356   C     0.73339   0.02850   0.58169   0.00000  Uiso   1.00
C357   C     0.72205   0.01776   0.91846   0.00000  Uiso   1.00
C358   C     0.77868   0.48381   0.08170   0.00000  Uiso   1.00
C359   C     0.98308   0.22168   0.91832   0.00000  Uiso   1.00
C360   C     0.51682   0.27835   0.08166   0.00000  Uiso   1.00
C361   C     0.77905   0.48415   0.91844   0.00000  Uiso   1.00
C362   C     0.72249   0.01878   0.08169   0.00000  Uiso   1.00
C363   C     0.51792   0.27787   0.91833   0.00000  Uiso   1.00
C364   C     0.98204   0.22212   0.08167   0.00000  Uiso   1.00
C365   C     0.99981   0.24944   0.39826   0.00000  Uiso   1.00
C366   C     0.99982   0.24971   0.60165   0.00000  Uiso   1.00
C367   C     0.75020   0.00006   0.39835   0.00000  Uiso   1.00
C368   C     0.75071   0.00030   0.60173   0.00000  Uiso   1.00
C369   C     0.75022   0.00044   0.89836   0.00000  Uiso   1.00
C370   C     0.75024   0.00071   0.10172   0.00000  Uiso   1.00
C371   C     0.50036   0.24986   0.89829   0.00000  Uiso   1.00
C372   C     0.99959   0.25014   0.10171   0.00000  Uiso   1.00
C373   C     0.55426   0.21011   0.47968   0.00000  Uiso   1.00
C374   C     0.94306   0.28553   0.52018   0.00000  Uiso   1.00
C375   C     0.78947   0.44547   0.47970   0.00000  Uiso   1.00
C376   C     0.71661   0.05821   0.52047   0.00000  Uiso   1.00
C377   C     0.94189   0.28358   0.47943   0.00000  Uiso   1.00
C378   C     0.55338   0.20898   0.52049   0.00000  Uiso   1.00
C379   C     0.71452   0.05693   0.47972   0.00000  Uiso   1.00
C380   C     0.79126   0.44670   0.52048   0.00000  Uiso   1.00
C381   C     0.80788   0.46610   0.97982   0.00000  Uiso   1.00
C382   C     0.69544   0.03956   0.02032   0.00000  Uiso   1.00
C383   C     0.53611   0.30653   0.97970   0.00000  Uiso   1.00
C384   C     0.96377   0.19350   0.02029   0.00000  Uiso   1.00
C385   C     0.69626   0.04064   0.97950   0.00000  Uiso   1.00
C386   C     0.80905   0.46817   0.02057   0.00000  Uiso   1.00
C387   C     0.96618   0.19210   0.97957   0.00000  Uiso   1.00
C388   C     0.53366   0.30795   0.02042   0.00000  Uiso   1.00
C389   C     0.74998  -0.00000   0.35592   0.00000  Uiso   1.00
C390   C     0.74999   0.00002   0.64411   0.00000  Uiso   1.00
C391   C     0.99999   0.25000   0.35589   0.00000  Uiso   1.00
C392   C     0.99999   0.25005   0.64408   0.00000  Uiso   1.00
C393   C     0.50002   0.24999   0.85590   0.00000  Uiso   1.00
C394   C     0.99997   0.25001   0.14410   0.00000  Uiso   1.00
C395   C     0.75002   0.49997   0.85593   0.00000  Uiso   1.00
C396   C     0.75001   0.00001   0.14410   0.00000  Uiso   1.00
C397   C     0.67996   0.07003   0.25001   0.00000  Uiso   1.00
C398   C     0.82004   0.42997   0.74999   0.00000  Uiso   1.00
C399   C     0.92995   0.17997   0.24999   0.00000  Uiso   1.00
C400   C     0.57005   0.32003   0.75001   0.00000  Uiso   1.00
C401   C     0.82004   0.42997   0.25001   0.00000  Uiso   1.00
C402   C     0.67996   0.07004   0.75000   0.00000  Uiso   1.00
C403   C     0.57005   0.32004   0.24999   0.00000  Uiso   1.00
C404   C     0.92995   0.17996   0.75001   0.00000  Uiso   1.00
C405   C     0.67996   0.42995   0.75001   0.00000  Uiso   1.00
C406   C     0.82004   0.07004   0.24999   0.00000  Uiso   1.00
C407   C     0.92997   0.32004   0.74999   0.00000  Uiso   1.00
C408   C     0.57003   0.17996   0.25001   0.00000  Uiso   1.00
C409   C     0.82004   0.07005   0.75000   0.00000  Uiso   1.00
C410   C     0.67996   0.42995   0.25000   0.00000  Uiso   1.00
C411   C     0.57003   0.17995   0.74999   0.00000  Uiso   1.00
C412   C     0.92997   0.32005   0.25001   0.00000  Uiso   1.00
C413   C     0.61646   0.41027   0.23730   0.00000  Uiso   1.00
C414   C     0.86967   0.10359   0.78316   0.00000  Uiso   1.00
C415   C     0.60419   0.13096   0.21656   0.00000  Uiso   1.00
C416   C     0.89584   0.36907   0.78342   0.00000  Uiso   1.00
C417   C     0.86956   0.10372   0.21678   0.00000  Uiso   1.00
C418   C     0.63044   0.39628   0.78322   0.00000  Uiso   1.00
C419   C     0.89604   0.36931   0.21668   0.00000  Uiso   1.00
C420   C     0.60411   0.13085   0.78340   0.00000  Uiso   1.00
C421   C     0.63088   0.10411   0.78341   0.00000  Uiso   1.00
C422   C     0.86928   0.39605   0.21668   0.00000  Uiso   1.00
C423   C     0.60372   0.36953   0.78323   0.00000  Uiso   1.00
C424   C     0.89629   0.13047   0.21677   0.00000  Uiso   1.00
C425   C     0.86908   0.39582   0.78343   0.00000  Uiso   1.00
C426   C     0.63095   0.10421   0.21656   0.00000  Uiso   1.00
C427   C     0.89640   0.13032   0.78316   0.00000  Uiso   1.00
C428   C     0.58973   0.38354   0.23729   0.00000  Uiso   1.00
C429   C     0.88031   0.14643   0.71688   0.00000  Uiso   1.00
C430   C     0.63355   0.33971   0.26265   0.00000  Uiso   1.00
C431   C     0.85422   0.38100   0.71650   0.00000  Uiso   1.00
C432   C     0.64575   0.11898   0.28351   0.00000  Uiso   1.00
C433   C     0.61961   0.35367   0.71685   0.00000  Uiso   1.00
C434   C     0.88039   0.14634   0.28315   0.00000  Uiso   1.00
C435   C     0.64587   0.11913   0.71656   0.00000  Uiso   1.00
C436   C     0.85402   0.38077   0.28340   0.00000  Uiso   1.00
C437   C     0.88078   0.35401   0.28340   0.00000  Uiso   1.00
C438   C     0.61910   0.14587   0.71655   0.00000  Uiso   1.00
C439   C     0.85366   0.11960   0.28315   0.00000  Uiso   1.00
C440   C     0.64634   0.38041   0.71685   0.00000  Uiso   1.00
C441   C     0.61900   0.14574   0.28351   0.00000  Uiso   1.00
C442   C     0.88098   0.35424   0.71650   0.00000  Uiso   1.00
C443   C     0.66028   0.36645   0.26266   0.00000  Uiso   1.00
C444   C     0.85358   0.11970   0.71688   0.00000  Uiso   1.00
C445   C     0.52698   0.22947   0.45907   0.00000  Uiso   1.00
C446   C     0.97095   0.26705   0.54078   0.00000  Uiso   1.00
C447   C     0.76984   0.47261   0.45917   0.00000  Uiso   1.00
C448   C     0.73426   0.02977   0.54096   0.00000  Uiso   1.00
C449   C     0.97040   0.26598   0.45898   0.00000  Uiso   1.00
C450   C     0.52676   0.22942   0.54088   0.00000  Uiso   1.00
C451   C     0.73287   0.02893   0.45917   0.00000  Uiso   1.00
C452   C     0.77123   0.47354   0.54097   0.00000  Uiso   1.00
C453   C     0.77956   0.48389   0.95922   0.00000  Uiso   1.00
C454   C     0.72289   0.02047   0.04092   0.00000  Uiso   1.00
C455   C     0.51850   0.27814   0.95912   0.00000  Uiso   1.00
C456   C     0.98141   0.22186   0.04087   0.00000  Uiso   1.00
C457   C     0.72310   0.02050   0.95912   0.00000  Uiso   1.00
C458   C     0.78013   0.48504   0.04100   0.00000  Uiso   1.00
C459   C     0.98334   0.22082   0.95908   0.00000  Uiso   1.00
C460   C     0.51654   0.27921   0.04091   0.00000  Uiso   1.00
C461   C     0.59811   0.34810   0.24998   0.00000  Uiso   1.00
C462   C     0.90189   0.15190   0.75002   0.00000  Uiso   1.00
C463   C     0.65188   0.09808   0.25003   0.00000  Uiso   1.00
C464   C     0.84812   0.40193   0.74997   0.00000  Uiso   1.00
C465   C     0.90187   0.15192   0.24997   0.00000  Uiso   1.00
C466   C     0.59813   0.34808   0.75003   0.00000  Uiso   1.00
C467   C     0.84812   0.40192   0.25003   0.00000  Uiso   1.00
C468   C     0.65190   0.09810   0.74999   0.00000  Uiso   1.00
C469   C     0.59809   0.15188   0.74998   0.00000  Uiso   1.00
C470   C     0.90192   0.34813   0.25004   0.00000  Uiso   1.00
C471   C     0.65190   0.40188   0.75003   0.00000  Uiso   1.00
C472   C     0.84810   0.09812   0.24997   0.00000  Uiso   1.00
C473   C     0.90192   0.34812   0.74997   0.00000  Uiso   1.00
C474   C     0.59809   0.15188   0.25003   0.00000  Uiso   1.00
C475   C     0.84810   0.09812   0.75002   0.00000  Uiso   1.00
C476   C     0.65190   0.40189   0.24999   0.00000  Uiso   1.00
C477   C     0.99861   0.24766   0.47950   0.00000  Uiso   1.00
C478   C     0.99871   0.24795   0.52035   0.00000  Uiso   1.00
C479   C     0.75193   0.00114   0.47963   0.00000  Uiso   1.00
C480   C     0.75252   0.00151   0.52047   0.00000  Uiso   1.00
C481   C     0.75148   0.00249   0.97965   0.00000  Uiso   1.00
C482   C     0.75158   0.00281   0.02049   0.00000  Uiso   1.00
C483   C     0.50039   0.24977   0.97958   0.00000  Uiso   1.00
C484   C     0.99950   0.25025   0.02042   0.00000  Uiso   1.00
O485   O     0.75000  -0.00000   0.25000   0.00000  Uiso   1.00
O486   O     0.75000  -0.00000   0.75000   0.00000  Uiso   1.00
O487   O     0.50000   0.25000   0.25000   0.00000  Uiso   1.00
O488   O     0.50000   0.25000   0.75000   0.00000  Uiso   1.00
O489   O     0.75000   0.46963   0.33755   0.00000  Uiso   1.00
O490   O     0.75000   0.03036   0.66245   0.00000  Uiso   1.00
O491   O     0.53036   0.25000   0.33755   0.00000  Uiso   1.00
O492   O     0.96963   0.25000   0.66245   0.00000  Uiso   1.00
O493   O     0.75000   0.03036   0.33755   0.00000  Uiso   1.00
O494   O     0.75000   0.46963   0.66245   0.00000  Uiso   1.00
O495   O     0.96963   0.25000   0.33755   0.00000  Uiso   1.00
O496   O     0.53036   0.25000   0.66245   0.00000  Uiso   1.00
O497   O     0.50000   0.21963   0.83755   0.00000  Uiso   1.00
O498   O     0.50000   0.28036   0.16245   0.00000  Uiso   1.00
O499   O     0.78036  -0.00000   0.83755   0.00000  Uiso   1.00
O500   O     0.71963  -0.00000   0.16245   0.00000  Uiso   1.00
O501   O     0.50000   0.28036   0.83755   0.00000  Uiso   1.00
O502   O     0.50000   0.21963   0.16245   0.00000  Uiso   1.00
O503   O     0.71963  -0.00000   0.83755   0.00000  Uiso   1.00
O504   O     0.78036  -0.00000   0.16245   0.00000  Uiso   1.00
O505   O     0.70724   0.07307   0.27302   0.00000  Uiso   1.00
O506   O     0.79275   0.42692   0.72698   0.00000  Uiso   1.00
O507   O     0.92692   0.20724   0.27302   0.00000  Uiso   1.00
O508   O     0.57307   0.29275   0.72698   0.00000  Uiso   1.00
O509   O     0.79275   0.42692   0.27302   0.00000  Uiso   1.00
O510   O     0.70724   0.07307   0.72698   0.00000  Uiso   1.00
O511   O     0.57307   0.29275   0.27302   0.00000  Uiso   1.00
O512   O     0.92692   0.20724   0.72698   0.00000  Uiso   1.00
O513   O     0.70724   0.42692   0.72698   0.00000  Uiso   1.00
O514   O     0.79275   0.07307   0.27302   0.00000  Uiso   1.00
O515   O     0.92692   0.29275   0.72698   0.00000  Uiso   1.00
O516   O     0.57307   0.20724   0.27302   0.00000  Uiso   1.00
O517   O     0.79275   0.07307   0.72698   0.00000  Uiso   1.00
O518   O     0.70724   0.42692   0.27302   0.00000  Uiso   1.00
O519   O     0.57307   0.20724   0.72698   0.00000  Uiso   1.00
O520   O     0.92692   0.29275   0.27302   0.00000  Uiso   1.00
O521   O     0.95724   0.32307   0.77302   0.00000  Uiso   1.00
O522   O     0.54275   0.17692   0.22698   0.00000  Uiso   1.00
O523   O     0.67692   0.45724   0.77302   0.00000  Uiso   1.00
O524   O     0.82307   0.04275   0.22698   0.00000  Uiso   1.00
O525   O     0.54275   0.17692   0.77302   0.00000  Uiso   1.00
O526   O     0.95724   0.32307   0.22698   0.00000  Uiso   1.00
O527   O     0.82307   0.04275   0.77302   0.00000  Uiso   1.00
O528   O     0.67692   0.45724   0.22698   0.00000  Uiso   1.00
O529   O     0.95724   0.17692   0.22698   0.00000  Uiso   1.00
O530   O     0.54275   0.32307   0.77302   0.00000  Uiso   1.00
O531   O     0.67692   0.04275   0.22698   0.00000  Uiso   1.00
O532   O     0.82307   0.45724   0.77302   0.00000  Uiso   1.00
O533   O     0.54275   0.32307   0.22698   0.00000  Uiso   1.00
O534   O     0.95724   0.17692   0.77302   0.00000  Uiso   1.00
O535   O     0.82307   0.45724   0.22698   0.00000  Uiso   1.00
O536   O     0.67692   0.04275   0.77302   0.00000  Uiso   1.00
Zn537  Zn    0.70659  -0.00000   0.21735   0.00000  Uiso   1.00
Zn538  Zn    0.79340  -0.00000   0.78265   0.00000  Uiso   1.00
Zn539  Zn    0.50000   0.20659   0.21735   0.00000  Uiso   1.00
Zn540  Zn    0.50000   0.29340   0.78265   0.00000  Uiso   1.00
Zn541  Zn    0.79340  -0.00000   0.21735   0.00000  Uiso   1.00
Zn542  Zn    0.70659  -0.00000   0.78265   0.00000  Uiso   1.00
Zn543  Zn    0.50000   0.29340   0.21735   0.00000  Uiso   1.00
Zn544  Zn    0.50000   0.20659   0.78265   0.00000  Uiso   1.00
Zn545  Zn    0.95659   0.25000   0.71735   0.00000  Uiso   1.00
Zn546  Zn    0.54340   0.25000   0.28265   0.00000  Uiso   1.00
Zn547  Zn    0.75000   0.45659   0.71735   0.00000  Uiso   1.00
Zn548  Zn    0.75000   0.04340   0.28265   0.00000  Uiso   1.00
Zn549  Zn    0.54340   0.25000   0.71735   0.00000  Uiso   1.00
Zn550  Zn    0.95659   0.25000   0.28265   0.00000  Uiso   1.00
Zn551  Zn    0.75000   0.04340   0.71735   0.00000  Uiso   1.00
Zn552  Zn    0.75000   0.45659   0.28265   0.00000  Uiso   1.00
N553   N     0.58292   0.19206   0.45930   0.00000  Uiso   1.00
H554   H     0.60917   0.19857   0.46745   0.00000  Uiso   1.00
C555   C     0.57709   0.15402   0.44988   0.00000  Uiso   1.00
H556   H     0.59295   0.13643   0.46996   0.00000  Uiso   1.00
H557   H     0.58679   0.14880   0.41991   0.00000  Uiso   1.00
H558   H     0.54772   0.14657   0.45150   0.00000  Uiso   1.00
N559   N     0.91599   0.30600   0.54049   0.00000  Uiso   1.00
H560   H     0.88968   0.30302   0.53049   0.00000  Uiso   1.00
C561   C     0.92578   0.34360   0.54793   0.00000  Uiso   1.00
H562   H     0.92786   0.35909   0.52034   0.00000  Uiso   1.00
H563   H     0.95228   0.34513   0.56348   0.00000  Uiso   1.00
H564   H     0.90456   0.35650   0.56636   0.00000  Uiso   1.00
N565   N     0.80721   0.41663   0.45931   0.00000  Uiso   1.00
H566   H     0.80080   0.39045   0.46778   0.00000  Uiso   1.00
C567   C     0.84509   0.42238   0.44905   0.00000  Uiso   1.00
H568   H     0.86300   0.40602   0.46836   0.00000  Uiso   1.00
H569   H     0.85280   0.45166   0.45110   0.00000  Uiso   1.00
H570   H     0.84957   0.41321   0.41877   0.00000  Uiso   1.00
N571   N     0.70088   0.08820   0.54091   0.00000  Uiso   1.00
H572   H     0.67603   0.09720   0.53074   0.00000  Uiso   1.00
C573   C     0.72607   0.11757   0.54916   0.00000  Uiso   1.00
H574   H     0.73540   0.13059   0.52182   0.00000  Uiso   1.00
H575   H     0.75015   0.10718   0.56533   0.00000  Uiso   1.00
H576   H     0.71228   0.13845   0.56730   0.00000  Uiso   1.00
N577   N     0.91199   0.29942   0.45892   0.00000  Uiso   1.00
H578   H     0.90297   0.32423   0.46914   0.00000  Uiso   1.00
C579   C     0.88262   0.27429   0.45044   0.00000  Uiso   1.00
H580   H     0.86950   0.26486   0.47768   0.00000  Uiso   1.00
H581   H     0.89305   0.25027   0.43420   0.00000  Uiso   1.00
H582   H     0.86181   0.28817   0.43227   0.00000  Uiso   1.00
N583   N     0.57840   0.18615   0.54103   0.00000  Uiso   1.00
H584   H     0.60424   0.18407   0.52954   0.00000  Uiso   1.00
C585   C     0.56359   0.15128   0.55297   0.00000  Uiso   1.00
H586   H     0.55633   0.13454   0.52732   0.00000  Uiso   1.00
H587   H     0.53882   0.15510   0.57105   0.00000  Uiso   1.00
H588   H     0.58420   0.13632   0.57042   0.00000  Uiso   1.00
N589   N     0.69402   0.08396   0.45938   0.00000  Uiso   1.00
H590   H     0.69704   0.11030   0.46927   0.00000  Uiso   1.00
C591   C     0.65640   0.07418   0.45202   0.00000  Uiso   1.00
H592   H     0.64093   0.07232   0.47963   0.00000  Uiso   1.00
H593   H     0.65481   0.04757   0.43671   0.00000  Uiso   1.00
H594   H     0.64353   0.09528   0.43340   0.00000  Uiso   1.00
N595   N     0.81429   0.42173   0.54086   0.00000  Uiso   1.00
H596   H     0.81600   0.39577   0.52964   0.00000  Uiso   1.00
C597   C     0.84944   0.43643   0.55195   0.00000  Uiso   1.00
H598   H     0.86599   0.44285   0.52592   0.00000  Uiso   1.00
H599   H     0.86435   0.41608   0.56980   0.00000  Uiso   1.00
H600   H     0.84610   0.46167   0.56939   0.00000  Uiso   1.00
N601   N     0.83532   0.44614   0.95953   0.00000  Uiso   1.00
H602   H     0.86159   0.44969   0.96946   0.00000  Uiso   1.00
C603   C     0.82624   0.40832   0.95230   0.00000  Uiso   1.00
H604   H     0.82430   0.39298   0.97999   0.00000  Uiso   1.00
H605   H     0.84776   0.39568   0.93405   0.00000  Uiso   1.00
H606   H     0.79983   0.40622   0.93665   0.00000  Uiso   1.00
N607   N     0.66685   0.05770   0.04072   0.00000  Uiso   1.00
H608   H     0.64055   0.05147   0.03252   0.00000  Uiso   1.00
C609   C     0.67307   0.09557   0.05064   0.00000  Uiso   1.00
H610   H     0.65701   0.11353   0.03112   0.00000  Uiso   1.00
H611   H     0.70245   0.10289   0.04859   0.00000  Uiso   1.00
H612   H     0.66389   0.10041   0.08086   0.00000  Uiso   1.00
N613   N     0.55613   0.33389   0.95939   0.00000  Uiso   1.00
H614   H     0.55252   0.36020   0.96917   0.00000  Uiso   1.00
C615   C     0.59399   0.32473   0.95238   0.00000  Uiso   1.00
H616   H     0.60919   0.32286   0.98015   0.00000  Uiso   1.00
H617   H     0.60669   0.34618   0.93411   0.00000  Uiso   1.00
H618   H     0.59616   0.29828   0.93683   0.00000  Uiso   1.00
N619   N     0.94374   0.16614   0.04061   0.00000  Uiso   1.00
H620   H     0.94730   0.13984   0.03080   0.00000  Uiso   1.00
C621   C     0.90591   0.17534   0.04770   0.00000  Uiso   1.00
H622   H     0.89067   0.17726   0.01995   0.00000  Uiso   1.00
H623   H     0.90379   0.20178   0.06329   0.00000  Uiso   1.00
H624   H     0.89320   0.15388   0.06596   0.00000  Uiso   1.00
N625   N     0.67106   0.06326   0.95893   0.00000  Uiso   1.00
H626   H     0.64521   0.06512   0.97040   0.00000  Uiso   1.00
C627   C     0.68562   0.09822   0.94698   0.00000  Uiso   1.00
H628   H     0.69261   0.11507   0.97262   0.00000  Uiso   1.00
H629   H     0.66495   0.11296   0.92938   0.00000  Uiso   1.00
H630   H     0.71049   0.09458   0.92902   0.00000  Uiso   1.00
N631   N     0.83943   0.45325   0.04107   0.00000  Uiso   1.00
H632   H     0.84916   0.42870   0.03089   0.00000  Uiso   1.00
C633   C     0.86802   0.47928   0.04947   0.00000  Uiso   1.00
H634   H     0.88080   0.48906   0.02218   0.00000  Uiso   1.00
H635   H     0.88927   0.46606   0.06762   0.00000  Uiso   1.00
H636   H     0.85689   0.00298   0.06569   0.00000  Uiso   1.00
N637   N     0.95147   0.16162   0.95916   0.00000  Uiso   1.00
H638   H     0.92675   0.15210   0.96911   0.00000  Uiso   1.00
C639   C     0.97751   0.13280   0.95147   0.00000  Uiso   1.00
H640   H     0.98686   0.12019   0.97902   0.00000  Uiso   1.00
H641   H     0.50150   0.14367   0.93554   0.00000  Uiso   1.00
H642   H     0.96449   0.11148   0.93331   0.00000  Uiso   1.00
N643   N     0.54827   0.33849   0.04082   0.00000  Uiso   1.00
H644   H     0.57297   0.34806   0.03090   0.00000  Uiso   1.00
C645   C     0.52214   0.36723   0.04845   0.00000  Uiso   1.00
H646   H     0.51277   0.37978   0.02087   0.00000  Uiso   1.00
H647   H     0.53508   0.38862   0.06659   0.00000  Uiso   1.00
H648   H     0.99817   0.35632   0.06438   0.00000  Uiso   1.00
F649   F     0.60734   0.44453   0.22578   0.00000  Uiso   1.00
F650   F     0.86436   0.08373   0.81593   0.00000  Uiso   1.00
F651   F     0.58496   0.13696   0.18350   0.00000  Uiso   1.00
F652   F     0.91510   0.36310   0.81647   0.00000  Uiso   1.00
F653   F     0.86416   0.08397   0.18396   0.00000  Uiso   1.00
F654   F     0.63585   0.41602   0.81604   0.00000  Uiso   1.00
F655   F     0.91551   0.36358   0.18373   0.00000  Uiso   1.00
F656   F     0.58478   0.13672   0.81642   0.00000  Uiso   1.00
F657   F     0.63679   0.08479   0.81644   0.00000  Uiso   1.00
F658   F     0.86353   0.41551   0.18371   0.00000  Uiso   1.00
F659   F     0.58399   0.36408   0.81606   0.00000  Uiso   1.00
F660   F     0.91602   0.13591   0.18394   0.00000  Uiso   1.00
F661   F     0.86311   0.41506   0.81649   0.00000  Uiso   1.00
F662   F     0.63696   0.08500   0.18348   0.00000  Uiso   1.00
F663   F     0.91625   0.13563   0.81594   0.00000  Uiso   1.00
F664   F     0.55548   0.39265   0.22575   0.00000  Uiso   1.00
F665   F     0.88562   0.16629   0.68411   0.00000  Uiso   1.00
F666   F     0.64267   0.30545   0.27417   0.00000  Uiso   1.00
F667   F     0.83499   0.38701   0.68344   0.00000  Uiso   1.00
F668   F     0.66497   0.11295   0.31659   0.00000  Uiso   1.00
F669   F     0.61421   0.33392   0.68403   0.00000  Uiso   1.00
F670   F     0.88578   0.16609   0.31597   0.00000  Uiso   1.00
F671   F     0.66520   0.11324   0.68353   0.00000  Uiso   1.00
F672   F     0.83459   0.38653   0.31638   0.00000  Uiso   1.00
F673   F     0.88655   0.33455   0.31637   0.00000  Uiso   1.00
F674   F     0.61319   0.16519   0.68352   0.00000  Uiso   1.00
F675   F     0.83390   0.11419   0.31597   0.00000  Uiso   1.00
F676   F     0.66609   0.38582   0.68403   0.00000  Uiso   1.00
F677   F     0.61299   0.16494   0.31659   0.00000  Uiso   1.00
F678   F     0.88696   0.33500   0.68344   0.00000  Uiso   1.00
F679   F     0.69454   0.35733   0.27418   0.00000  Uiso   1.00
F680   F     0.83372   0.11441   0.68411   0.00000  Uiso   1.00
F681   F     0.94716   0.28680   0.39754   0.00000  Uiso   1.00
F682   F     0.55583   0.21735   0.60212   0.00000  Uiso   1.00
F683   F     0.71674   0.05533   0.39758   0.00000  Uiso   1.00
F684   F     0.78448   0.44518   0.60236   0.00000  Uiso   1.00
F685   F     0.55378   0.21401   0.39742   0.00000  Uiso   1.00
F686   F     0.94437   0.28294   0.60235   0.00000  Uiso   1.00
F687   F     0.78403   0.44505   0.39760   0.00000  Uiso   1.00
F688   F     0.71379   0.05327   0.60239   0.00000  Uiso   1.00
F689   F     0.69371   0.03194   0.89794   0.00000  Uiso   1.00
F690   F     0.80367   0.46442   0.10236   0.00000  Uiso   1.00
F691   F     0.96424   0.19640   0.89757   0.00000  Uiso   1.00
F692   F     0.53565   0.30365   0.10240   0.00000  Uiso   1.00
F693   F     0.80628   0.46823   0.89768   0.00000  Uiso   1.00
F694   F     0.69550   0.03497   0.10253   0.00000  Uiso   1.00
F695   F     0.53408   0.30488   0.89751   0.00000  Uiso   1.00
F696   F     0.96592   0.19508   0.10249   0.00000  Uiso   1.00
C697   C     0.47179   0.76702   0.41827   0.00000  Uiso   1.00
C698   C     0.02776   0.73201   0.58156   0.00000  Uiso   1.00
C699   C     0.23316   0.52843   0.41840   0.00000  Uiso   1.00
C700   C     0.26913   0.97282   0.58169   0.00000  Uiso   1.00
C701   C     0.02727   0.73094   0.41829   0.00000  Uiso   1.00
C702   C     0.47134   0.76660   0.58157   0.00000  Uiso   1.00
C703   C     0.26788   0.97207   0.41842   0.00000  Uiso   1.00
C704   C     0.23339   0.52850   0.58169   0.00000  Uiso   1.00
C705   C     0.22205   0.51776   0.91846   0.00000  Uiso   1.00
C706   C     0.27868   0.98381   0.08170   0.00000  Uiso   1.00
C707   C     0.48308   0.72168   0.91832   0.00000  Uiso   1.00
C708   C     0.01682   0.77835   0.08166   0.00000  Uiso   1.00
C709   C     0.27905   0.98415   0.91844   0.00000  Uiso   1.00
C710   C     0.22249   0.51878   0.08169   0.00000  Uiso   1.00
C711   C     0.01792   0.77787   0.91833   0.00000  Uiso   1.00
C712   C     0.48204   0.72212   0.08167   0.00000  Uiso   1.00
C713   C     0.49981   0.74944   0.39826   0.00000  Uiso   1.00
C714   C     0.49982   0.74971   0.60165   0.00000  Uiso   1.00
C715   C     0.25020   0.50006   0.39835   0.00000  Uiso   1.00
C716   C     0.25071   0.50030   0.60173   0.00000  Uiso   1.00
C717   C     0.25022   0.50044   0.89836   0.00000  Uiso   1.00
C718   C     0.25024   0.50071   0.10172   0.00000  Uiso   1.00
C719   C     0.00036   0.74986   0.89829   0.00000  Uiso   1.00
C720   C     0.49959   0.75014   0.10171   0.00000  Uiso   1.00
C721   C     0.05426   0.71011   0.47968   0.00000  Uiso   1.00
C722   C     0.44306   0.78553   0.52018   0.00000  Uiso   1.00
C723   C     0.28947   0.94547   0.47970   0.00000  Uiso   1.00
C724   C     0.21661   0.55821   0.52047   0.00000  Uiso   1.00
C725   C     0.44189   0.78358   0.47943   0.00000  Uiso   1.00
C726   C     0.05338   0.70898   0.52049   0.00000  Uiso   1.00
C727   C     0.21452   0.55693   0.47972   0.00000  Uiso   1.00
C728   C     0.29126   0.94670   0.52048   0.00000  Uiso   1.00
C729   C     0.30788   0.96610   0.97982   0.00000  Uiso   1.00
C730   C     0.19544   0.53956   0.02032   0.00000  Uiso   1.00
C731   C     0.03611   0.80653   0.97970   0.00000  Uiso   1.00
C732   C     0.46377   0.69350   0.02029   0.00000  Uiso   1.00
C733   C     0.19626   0.54064   0.97950   0.00000  Uiso   1.00
C734   C     0.30905   0.96817   0.02057   0.00000  Uiso   1.00
C735   C     0.46618   0.69210   0.97957   0.00000  Uiso   1.00
C736   C     0.03366   0.80795   0.02042   0.00000  Uiso   1.00
C737   C     0.24998   0.50000   0.35592   0.00000  Uiso   1.00
C738   C     0.24999   0.50002   0.64411   0.00000  Uiso   1.00
C739   C     0.49999   0.75000   0.35589   0.00000  Uiso   1.00
C740   C     0.49999   0.75005   0.64408   0.00000  Uiso   1.00
C741   C     0.00002   0.74999   0.85590   0.00000  Uiso   1.00
C742   C     0.49997   0.75001   0.14410   0.00000  Uiso   1.00
C743   C     0.25002   0.99997   0.85593   0.00000  Uiso   1.00
C744   C     0.25001   0.50001   0.14410   0.00000  Uiso   1.00
C745   C     0.17996   0.57003   0.25001   0.00000  Uiso   1.00
C746   C     0.32004   0.92997   0.74999   0.00000  Uiso   1.00
C747   C     0.42995   0.67997   0.24999   0.00000  Uiso   1.00
C748   C     0.07005   0.82003   0.75001   0.00000  Uiso   1.00
C749   C     0.32004   0.92997   0.25001   0.00000  Uiso   1.00
C750   C     0.17996   0.57004   0.75000   0.00000  Uiso   1.00
C751   C     0.07005   0.82004   0.24999   0.00000  Uiso   1.00
C752   C     0.42995   0.67996   0.75001   0.00000  Uiso   1.00
C753   C     0.17996   0.92995   0.75001   0.00000  Uiso   1.00
C754   C     0.32004   0.57004   0.24999   0.00000  Uiso   1.00
C755   C     0.42997   0.82004   0.74999   0.00000  Uiso   1.00
C756   C     0.07003   0.67996   0.25001   0.00000  Uiso   1.00
C757   C     0.32004   0.57005   0.75000   0.00000  Uiso   1.00
C758   C     0.17996   0.92995   0.25000   0.00000  Uiso   1.00
C759   C     0.07003   0.67995   0.74999   0.00000  Uiso   1.00
C760   C     0.42997   0.82005   0.25001   0.00000  Uiso   1.00
C761   C     0.11646   0.91027   0.23730   0.00000  Uiso   1.00
C762   C     0.36967   0.60359   0.78316   0.00000  Uiso   1.00
C763   C     0.10419   0.63096   0.21656   0.00000  Uiso   1.00
C764   C     0.39584   0.86907   0.78342   0.00000  Uiso   1.00
C765   C     0.36956   0.60372   0.21678   0.00000  Uiso   1.00
C766   C     0.13044   0.89628   0.78322   0.00000  Uiso   1.00
C767   C     0.39604   0.86931   0.21668   0.00000  Uiso   1.00
C768   C     0.10411   0.63085   0.78340   0.00000  Uiso   1.00
C769   C     0.13088   0.60411   0.78341   0.00000  Uiso   1.00
C770   C     0.36928   0.89605   0.21668   0.00000  Uiso   1.00
C771   C     0.10372   0.86953   0.78323   0.00000  Uiso   1.00
C772   C     0.39629   0.63047   0.21677   0.00000  Uiso   1.00
C773   C     0.36908   0.89582   0.78343   0.00000  Uiso   1.00
C774   C     0.13095   0.60421   0.21656   0.00000  Uiso   1.00
C775   C     0.39640   0.63032   0.78316   0.00000  Uiso   1.00
C776   C     0.08973   0.88354   0.23729   0.00000  Uiso   1.00
C777   C     0.38031   0.64643   0.71688   0.00000  Uiso   1.00
C778   C     0.13355   0.83971   0.26265   0.00000  Uiso   1.00
C779   C     0.35422   0.88100   0.71650   0.00000  Uiso   1.00
C780   C     0.14575   0.61898   0.28351   0.00000  Uiso   1.00
C781   C     0.11961   0.85367   0.71685   0.00000  Uiso   1.00
C782   C     0.38039   0.64634   0.28315   0.00000  Uiso   1.00
C783   C     0.14587   0.61913   0.71656   0.00000  Uiso   1.00
C784   C     0.35402   0.88077   0.28340   0.00000  Uiso   1.00
C785   C     0.38078   0.85401   0.28340   0.00000  Uiso   1.00
C786   C     0.11910   0.64587   0.71655   0.00000  Uiso   1.00
C787   C     0.35366   0.61960   0.28315   0.00000  Uiso   1.00
C788   C     0.14634   0.88041   0.71685   0.00000  Uiso   1.00
C789   C     0.11900   0.64574   0.28351   0.00000  Uiso   1.00
C790   C     0.38098   0.85424   0.71650   0.00000  Uiso   1.00
C791   C     0.16028   0.86645   0.26266   0.00000  Uiso   1.00
C792   C     0.35358   0.61970   0.71688   0.00000  Uiso   1.00
C793   C     0.02698   0.72947   0.45907   0.00000  Uiso   1.00
C794   C     0.47095   0.76705   0.54078   0.00000  Uiso   1.00
C795   C     0.26984   0.97261   0.45917   0.00000  Uiso   1.00
C796   C     0.23426   0.52977   0.54096   0.00000  Uiso   1.00
C797   C     0.47040   0.76598   0.45898   0.00000  Uiso   1.00
C798   C     0.02676   0.72942   0.54088   0.00000  Uiso   1.00
C799   C     0.23287   0.52893   0.45917   0.00000  Uiso   1.00
C800   C     0.27123   0.97354   0.54097   0.00000  Uiso   1.00
C801   C     0.27956   0.98389   0.95922   0.00000  Uiso   1.00
C802   C     0.22289   0.52047   0.04092   0.00000  Uiso   1.00
C803   C     0.01850   0.77814   0.95912   0.00000  Uiso   1.00
C804   C     0.48141   0.72186   0.04087   0.00000  Uiso   1.00
C805   C     0.22310   0.52050   0.95912   0.00000  Uiso   1.00
C806   C     0.28013   0.98504   0.04100   0.00000  Uiso   1.00
C807   C     0.48334   0.72082   0.95908   0.00000  Uiso   1.00
C808   C     0.01654   0.77921   0.04091   0.00000  Uiso   1.00
C809   C     0.09811   0.84810   0.24998   0.00000  Uiso   1.00
C810   C     0.40189   0.65190   0.75002   0.00000  Uiso   1.00
C811   C     0.15188   0.59808   0.25003   0.00000  Uiso   1.00
C812   C     0.34812   0.90193   0.74997   0.00000  Uiso   1.00
C813   C     0.40187   0.65192   0.24997   0.00000  Uiso   1.00
C814   C     0.09813   0.84808   0.75003   0.00000  Uiso   1.00
C815   C     0.34812   0.90192   0.25003   0.00000  Uiso   1.00
C816   C     0.15190   0.59810   0.74999   0.00000  Uiso   1.00
C817   C     0.09809   0.65188   0.74998   0.00000  Uiso   1.00
C818   C     0.40192   0.84813   0.25004   0.00000  Uiso   1.00
C819   C     0.15190   0.90188   0.75003   0.00000  Uiso   1.00
C820   C     0.34810   0.59812   0.24997   0.00000  Uiso   1.00
C821   C     0.40192   0.84812   0.74997   0.00000  Uiso   1.00
C822   C     0.09809   0.65188   0.25003   0.00000  Uiso   1.00
C823   C     0.34810   0.59812   0.75002   0.00000  Uiso   1.00
C824   C     0.15190   0.90189   0.24999   0.00000  Uiso   1.00
C825   C     0.49861   0.74766   0.47950   0.00000  Uiso   1.00
C826   C     0.49871   0.74795   0.52035   0.00000  Uiso   1.00
C827   C     0.25193   0.50114   0.47963   0.00000  Uiso   1.00
C828   C     0.25252   0.50151   0.52047   0.00000  Uiso   1.00
C829   C     0.25148   0.50249   0.97965   0.00000  Uiso   1.00
C830   C     0.25158   0.50281   0.02049   0.00000  Uiso   1.00
C831   C     0.00039   0.74977   0.97958   0.00000  Uiso   1.00
C832   C     0.49950   0.75025   0.02042   0.00000  Uiso   1.00
O833   O     0.25000   0.50000   0.25000   0.00000  Uiso   1.00
O834   O     0.25000   0.50000   0.75000   0.00000  Uiso   1.00
O835   O     0.00000   0.75000   0.25000   0.00000  Uiso   1.00
O836   O     0.00000   0.75000   0.75000   0.00000  Uiso   1.00
O837   O     0.25000   0.96963   0.33755   0.00000  Uiso   1.00
O838   O     0.25000   0.53036   0.66245   0.00000  Uiso   1.00
O839   O     0.03036   0.75000   0.33755   0.00000  Uiso   1.00
O840   O     0.46963   0.75000   0.66245   0.00000  Uiso   1.00
O841   O     0.25000   0.53036   0.33755   0.00000  Uiso   1.00
O842   O     0.25000   0.96963   0.66245   0.00000  Uiso   1.00
O843   O     0.46963   0.75000   0.33755   0.00000  Uiso   1.00
O844   O     0.03036   0.75000   0.66245   0.00000  Uiso   1.00
O845   O     0.00000   0.71963   0.83755   0.00000  Uiso   1.00
O846   O     0.00000   0.78036   0.16245   0.00000  Uiso   1.00
O847   O     0.28036   0.50000   0.83755   0.00000  Uiso   1.00
O848   O     0.21963   0.50000   0.16245   0.00000  Uiso   1.00
O849   O     0.00000   0.78036   0.83755   0.00000  Uiso   1.00
O850   O     0.00000   0.71963   0.16245   0.00000  Uiso   1.00
O851   O     0.21963   0.50000   0.83755   0.00000  Uiso   1.00
O852   O     0.28036   0.50000   0.16245   0.00000  Uiso   1.00
O853   O     0.20724   0.57307   0.27302   0.00000  Uiso   1.00
O854   O     0.29275   0.92692   0.72698   0.00000  Uiso   1.00
O855   O     0.42692   0.70724   0.27302   0.00000  Uiso   1.00
O856   O     0.07307   0.79275   0.72698   0.00000  Uiso   1.00
O857   O     0.29275   0.92692   0.27302   0.00000  Uiso   1.00
O858   O     0.20724   0.57307   0.72698   0.00000  Uiso   1.00
O859   O     0.07307   0.79275   0.27302   0.00000  Uiso   1.00
O860   O     0.42692   0.70724   0.72698   0.00000  Uiso   1.00
O861   O     0.20724   0.92692   0.72698   0.00000  Uiso   1.00
O862   O     0.29275   0.57307   0.27302   0.00000  Uiso   1.00
O863   O     0.42692   0.79275   0.72698   0.00000  Uiso   1.00
O864   O     0.07307   0.70724   0.27302   0.00000  Uiso   1.00
O865   O     0.29275   0.57307   0.72698   0.00000  Uiso   1.00
O866   O     0.20724   0.92692   0.27302   0.00000  Uiso   1.00
O867   O     0.07307   0.70724   0.72698   0.00000  Uiso   1.00
O868   O     0.42692   0.79275   0.27302   0.00000  Uiso   1.00
O869   O     0.45724   0.82307   0.77302   0.00000  Uiso   1.00
O870   O     0.04275   0.67692   0.22698   0.00000  Uiso   1.00
O871   O     0.17692   0.95724   0.77302   0.00000  Uiso   1.00
O872   O     0.32307   0.54275   0.22698   0.00000  Uiso   1.00
O873   O     0.04275   0.67692   0.77302   0.00000  Uiso   1.00
O874   O     0.45724   0.82307   0.22698   0.00000  Uiso   1.00
O875   O     0.32307   0.54275   0.77302   0.00000  Uiso   1.00
O876   O     0.17692   0.95724   0.22698   0.00000  Uiso   1.00
O877   O     0.45724   0.67692   0.22698   0.00000  Uiso   1.00
O878   O     0.04275   0.82307   0.77302   0.00000  Uiso   1.00
O879   O     0.17692   0.54275   0.22698   0.00000  Uiso   1.00
O880   O     0.32307   0.95724   0.77302   0.00000  Uiso   1.00
O881   O     0.04275   0.82307   0.22698   0.00000  Uiso   1.00
O882   O     0.45724   0.67692   0.77302   0.00000  Uiso   1.00
O883   O     0.32307   0.95724   0.22698   0.00000  Uiso   1.00
O884   O     0.17692   0.54275   0.77302   0.00000  Uiso   1.00
Zn885  Zn    0.20659   0.50000   0.21735   0.00000  Uiso   1.00
Zn886  Zn    0.29340   0.50000   0.78265   0.00000  Uiso   1.00
Zn887  Zn    0.00000   0.70659   0.21735   0.00000  Uiso   1.00
Zn888  Zn    0.00000   0.79340   0.78265   0.00000  Uiso   1.00
Zn889  Zn    0.29340   0.50000   0.21735   0.00000  Uiso   1.00
Zn890  Zn    0.20659   0.50000   0.78265   0.00000  Uiso   1.00
Zn891  Zn   -0.00000   0.79340   0.21735   0.00000  Uiso   1.00
Zn892  Zn   -0.00000   0.70659   0.78265   0.00000  Uiso   1.00
Zn893  Zn    0.45659   0.75000   0.71735   0.00000  Uiso   1.00
Zn894  Zn    0.04340   0.75000   0.28265   0.00000  Uiso   1.00
Zn895  Zn    0.25000   0.95659   0.71735   0.00000  Uiso   1.00
Zn896  Zn    0.25000   0.54340   0.28265   0.00000  Uiso   1.00
Zn897  Zn    0.04340   0.75000   0.71735   0.00000  Uiso   1.00
Zn898  Zn    0.45659   0.75000   0.28265   0.00000  Uiso   1.00
Zn899  Zn    0.25000   0.54340   0.71735   0.00000  Uiso   1.00
Zn900  Zn    0.25000   0.95659   0.28265   0.00000  Uiso   1.00
N901   N     0.08292   0.69206   0.45930   0.00000  Uiso   1.00
H902   H     0.10917   0.69857   0.46745   0.00000  Uiso   1.00
C903   C     0.07709   0.65402   0.44988   0.00000  Uiso   1.00
H904   H     0.09295   0.63643   0.46996   0.00000  Uiso   1.00
H905   H     0.08679   0.64880   0.41991   0.00000  Uiso   1.00
H906   H     0.04772   0.64657   0.45150   0.00000  Uiso   1.00
N907   N     0.41599   0.80600   0.54049   0.00000  Uiso   1.00
H908   H     0.38968   0.80302   0.53049   0.00000  Uiso   1.00
C909   C     0.42578   0.84360   0.54793   0.00000  Uiso   1.00
H910   H     0.42786   0.85909   0.52034   0.00000  Uiso   1.00
H911   H     0.45228   0.84513   0.56348   0.00000  Uiso   1.00
H912   H     0.40456   0.85650   0.56636   0.00000  Uiso   1.00
N913   N     0.30721   0.91663   0.45931   0.00000  Uiso   1.00
H914   H     0.30080   0.89045   0.46778   0.00000  Uiso   1.00
C915   C     0.34509   0.92238   0.44905   0.00000  Uiso   1.00
H916   H     0.36300   0.90602   0.46836   0.00000  Uiso   1.00
H917   H     0.35280   0.95166   0.45110   0.00000  Uiso   1.00
H918   H     0.34957   0.91321   0.41877   0.00000  Uiso   1.00
N919   N     0.20088   0.58820   0.54091   0.00000  Uiso   1.00
H920   H     0.17603   0.59720   0.53074   0.00000  Uiso   1.00
C921   C     0.22607   0.61757   0.54916   0.00000  Uiso   1.00
H922   H     0.23540   0.63059   0.52182   0.00000  Uiso   1.00
H923   H     0.25015   0.60718   0.56533   0.00000  Uiso   1.00
H924   H     0.21228   0.63845   0.56730   0.00000  Uiso   1.00
N925   N     0.41199   0.79942   0.45892   0.00000  Uiso   1.00
H926   H     0.40297   0.82423   0.46914   0.00000  Uiso   1.00
C927   C     0.38262   0.77429   0.45044   0.00000  Uiso   1.00
H928   H     0.36950   0.76486   0.47768   0.00000  Uiso   1.00
H929   H     0.39305   0.75027   0.43420   0.00000  Uiso   1.00
H930   H     0.36181   0.78817   0.43227   0.00000  Uiso   1.00
N931   N     0.07840   0.68615   0.54103   0.00000  Uiso   1.00
H932   H     0.10424   0.68407   0.52954   0.00000  Uiso   1.00
C933   C     0.06359   0.65128   0.55297   0.00000  Uiso   1.00
H934   H     0.05633   0.63454   0.52732   0.00000  Uiso   1.00
H935   H     0.03882   0.65510   0.57105   0.00000  Uiso   1.00
H936   H     0.08420   0.63632   0.57042   0.00000  Uiso   1.00
N937   N     0.19402   0.58396   0.45938   0.00000  Uiso   1.00
H938   H     0.19704   0.61030   0.46927   0.00000  Uiso   1.00
C939   C     0.15640   0.57418   0.45202   0.00000  Uiso   1.00
H940   H     0.14093   0.57232   0.47963   0.00000  Uiso   1.00
H941   H     0.15481   0.54757   0.43671   0.00000  Uiso   1.00
H942   H     0.14353   0.59528   0.43340   0.00000  Uiso   1.00
N943   N     0.31429   0.92173   0.54086   0.00000  Uiso   1.00
H944   H     0.31600   0.89577   0.52964   0.00000  Uiso   1.00
C945   C     0.34944   0.93643   0.55195   0.00000  Uiso   1.00
H946   H     0.36599   0.94285   0.52592   0.00000  Uiso   1.00
H947   H     0.36435   0.91608   0.56980   0.00000  Uiso   1.00
H948   H     0.34610   0.96167   0.56939   0.00000  Uiso   1.00
N949   N     0.33532   0.94614   0.95953   0.00000  Uiso   1.00
H950   H     0.36159   0.94969   0.96946   0.00000  Uiso   1.00
C951   C     0.32624   0.90832   0.95230   0.00000  Uiso   1.00
H952   H     0.32430   0.89298   0.97999   0.00000  Uiso   1.00
H953   H     0.34776   0.89568   0.93405   0.00000  Uiso   1.00
H954   H     0.29983   0.90622   0.93665   0.00000  Uiso   1.00
N955   N     0.16685   0.55770   0.04072   0.00000  Uiso   1.00
H956   H     0.14055   0.55147   0.03252   0.00000  Uiso   1.00
C957   C     0.17307   0.59557   0.05064   0.00000  Uiso   1.00
H958   H     0.15701   0.61353   0.03112   0.00000  Uiso   1.00
H959   H     0.20245   0.60289   0.04859   0.00000  Uiso   1.00
H960   H     0.16389   0.60041   0.08086   0.00000  Uiso   1.00
N961   N     0.05613   0.83389   0.95939   0.00000  Uiso   1.00
H962   H     0.05252   0.86020   0.96917   0.00000  Uiso   1.00
C963   C     0.09399   0.82473   0.95238   0.00000  Uiso   1.00
H964   H     0.10919   0.82286   0.98015   0.00000  Uiso   1.00
H965   H     0.10669   0.84618   0.93411   0.00000  Uiso   1.00
H966   H     0.09616   0.79828   0.93683   0.00000  Uiso   1.00
N967   N     0.44374   0.66614   0.04061   0.00000  Uiso   1.00
H968   H     0.44730   0.63984   0.03080   0.00000  Uiso   1.00
C969   C     0.40591   0.67534   0.04770   0.00000  Uiso   1.00
H970   H     0.39067   0.67726   0.01995   0.00000  Uiso   1.00
H971   H     0.40379   0.70178   0.06329   0.00000  Uiso   1.00
H972   H     0.39320   0.65388   0.06596   0.00000  Uiso   1.00
N973   N     0.17106   0.56326   0.95893   0.00000  Uiso   1.00
H974   H     0.14521   0.56512   0.97040   0.00000  Uiso   1.00
C975   C     0.18562   0.59822   0.94698   0.00000  Uiso   1.00
H976   H     0.19261   0.61507   0.97262   0.00000  Uiso   1.00
H977   H     0.16495   0.61296   0.92938   0.00000  Uiso   1.00
H978   H     0.21049   0.59458   0.92902   0.00000  Uiso   1.00
N979   N     0.33943   0.95325   0.04107   0.00000  Uiso   1.00
H980   H     0.34916   0.92870   0.03089   0.00000  Uiso   1.00
C981   C     0.36802   0.97928   0.04947   0.00000  Uiso   1.00
H982   H     0.38080   0.98906   0.02218   0.00000  Uiso   1.00
H983   H     0.38927   0.96606   0.06762   0.00000  Uiso   1.00
H984   H     0.35689   0.50298   0.06569   0.00000  Uiso   1.00
N985   N     0.45147   0.66162   0.95916   0.00000  Uiso   1.00
H986   H     0.42675   0.65210   0.96911   0.00000  Uiso   1.00
C987   C     0.47751   0.63280   0.95147   0.00000  Uiso   1.00
H988   H     0.48686   0.62019   0.97902   0.00000  Uiso   1.00
H989   H     0.00150   0.64367   0.93554   0.00000  Uiso   1.00
H990   H     0.46449   0.61148   0.93331   0.00000  Uiso   1.00
N991   N     0.04827   0.83849   0.04082   0.00000  Uiso   1.00
H992   H     0.07297   0.84806   0.03090   0.00000  Uiso   1.00
C993   C     0.02214   0.86723   0.04845   0.00000  Uiso   1.00
H994   H     0.01277   0.87978   0.02087   0.00000  Uiso   1.00
H995   H     0.03508   0.88862   0.06659   0.00000  Uiso   1.00
H996   H     0.49817   0.85632   0.06438   0.00000  Uiso   1.00
F997   F     0.10734   0.94453   0.22578   0.00000  Uiso   1.00
F998   F     0.36436   0.58373   0.81593   0.00000  Uiso   1.00
F999   F     0.08496   0.63696   0.18350   0.00000  Uiso   1.00
F1000  F     0.41510   0.86310   0.81647   0.00000  Uiso   1.00
F1001  F     0.36416   0.58397   0.18396   0.00000  Uiso   1.00
F1002  F     0.13585   0.91602   0.81604   0.00000  Uiso   1.00
F1003  F     0.41551   0.86358   0.18373   0.00000  Uiso   1.00
F1004  F     0.08478   0.63672   0.81642   0.00000  Uiso   1.00
F1005  F     0.13679   0.58479   0.81644   0.00000  Uiso   1.00
F1006  F     0.36353   0.91551   0.18371   0.00000  Uiso   1.00
F1007  F     0.08399   0.86408   0.81606   0.00000  Uiso   1.00
F1008  F     0.41602   0.63591   0.18394   0.00000  Uiso   1.00
F1009  F     0.36311   0.91506   0.81649   0.00000  Uiso   1.00
F1010  F     0.13696   0.58500   0.18348   0.00000  Uiso   1.00
F1011  F     0.41625   0.63563   0.81594   0.00000  Uiso   1.00
F1012  F     0.05548   0.89265   0.22575   0.00000  Uiso   1.00
F1013  F     0.38562   0.66629   0.68411   0.00000  Uiso   1.00
F1014  F     0.14267   0.80545   0.27417   0.00000  Uiso   1.00
F1015  F     0.33499   0.88701   0.68344   0.00000  Uiso   1.00
F1016  F     0.16497   0.61295   0.31659   0.00000  Uiso   1.00
F1017  F     0.11421   0.83392   0.68403   0.00000  Uiso   1.00
F1018  F     0.38578   0.66609   0.31597   0.00000  Uiso   1.00
F1019  F     0.16520   0.61324   0.68353   0.00000  Uiso   1.00
F1020  F     0.33459   0.88653   0.31638   0.00000  Uiso   1.00
F1021  F     0.38655   0.83455   0.31637   0.00000  Uiso   1.00
F1022  F     0.11319   0.66519   0.68352   0.00000  Uiso   1.00
F1023  F     0.33390   0.61419   0.31597   0.00000  Uiso   1.00
F1024  F     0.16609   0.88582   0.68403   0.00000  Uiso   1.00
F1025  F     0.11299   0.66494   0.31659   0.00000  Uiso   1.00
F1026  F     0.38696   0.83500   0.68344   0.00000  Uiso   1.00
F1027  F     0.19454   0.85733   0.27418   0.00000  Uiso   1.00
F1028  F     0.33372   0.61441   0.68411   0.00000  Uiso   1.00
F1029  F     0.44716   0.78680   0.39754   0.00000  Uiso   1.00
F1030  F     0.05583   0.71735   0.60212   0.00000  Uiso   1.00
F1031  F     0.21674   0.55533   0.39758   0.00000  Uiso   1.00
F1032  F     0.28448   0.94518   0.60236   0.00000  Uiso   1.00
F1033  F     0.05378   0.71401   0.39742   0.00000  Uiso   1.00
F1034  F     0.44437   0.78294   0.60235   0.00000  Uiso   1.00
F1035  F     0.28403   0.94505   0.39760   0.00000  Uiso   1.00
F1036  F     0.21379   0.55327   0.60239   0.00000  Uiso   1.00
F1037  F     0.19371   0.53194   0.89794   0.00000  Uiso   1.00
F1038  F     0.30367   0.96442   0.10236   0.00000  Uiso   1.00
F1039  F     0.46424   0.69640   0.89757   0.00000  Uiso   1.00
F1040  F     0.03565   0.80365   0.10240   0.00000  Uiso   1.00
F1041  F     0.30628   0.96823   0.89768   0.00000  Uiso   1.00
F1042  F     0.19550   0.53497   0.10253   0.00000  Uiso   1.00
F1043  F     0.03408   0.80488   0.89751   0.00000  Uiso   1.00
F1044  F     0.46592   0.69508   0.10249   0.00000  Uiso   1.00
C1045  C     0.97179   0.76702   0.41827   0.00000  Uiso   1.00
C1046  C     0.52776   0.73201   0.58156   0.00000  Uiso   1.00
C1047  C     0.73316   0.52843   0.41840   0.00000  Uiso   1.00
C1048  C     0.76913   0.97282   0.58169   0.00000  Uiso   1.00
C1049  C     0.52727   0.73094   0.41829   0.00000  Uiso   1.00
C1050  C     0.97134   0.76660   0.58157   0.00000  Uiso   1.00
C1051  C     0.76788   0.97207   0.41842   0.00000  Uiso   1.00
C1052  C     0.73339   0.52850   0.58169   0.00000  Uiso   1.00
C1053  C     0.72205   0.51776   0.91846   0.00000  Uiso   1.00
C1054  C     0.77868   0.98381   0.08170   0.00000  Uiso   1.00
C1055  C     0.98308   0.72168   0.91832   0.00000  Uiso   1.00
C1056  C     0.51682   0.77835   0.08166   0.00000  Uiso   1.00
C1057  C     0.77905   0.98415   0.91844   0.00000  Uiso   1.00
C1058  C     0.72249   0.51878   0.08169   0.00000  Uiso   1.00
C1059  C     0.51792   0.77787   0.91833   0.00000  Uiso   1.00
C1060  C     0.98204   0.72212   0.08167   0.00000  Uiso   1.00
C1061  C     0.99981   0.74944   0.39826   0.00000  Uiso   1.00
C1062  C     0.99982   0.74971   0.60165   0.00000  Uiso   1.00
C1063  C     0.75020   0.50006   0.39835   0.00000  Uiso   1.00
C1064  C     0.75071   0.50030   0.60173   0.00000  Uiso   1.00
C1065  C     0.75022   0.50044   0.89836   0.00000  Uiso   1.00
C1066  C     0.75024   0.50071   0.10172   0.00000  Uiso   1.00
C1067  C     0.50036   0.74986   0.89829   0.00000  Uiso   1.00
C1068  C     0.99959   0.75014   0.10171   0.00000  Uiso   1.00
C1069  C     0.55426   0.71011   0.47968   0.00000  Uiso   1.00
C1070  C     0.94306   0.78553   0.52018   0.00000  Uiso   1.00
C1071  C     0.78947   0.94547   0.47970   0.00000  Uiso   1.00
C1072  C     0.71661   0.55821   0.52047   0.00000  Uiso   1.00
C1073  C     0.94189   0.78358   0.47943   0.00000  Uiso   1.00
C1074  C     0.55338   0.70898   0.52049   0.00000  Uiso   1.00
C1075  C     0.71452   0.55693   0.47972   0.00000  Uiso   1.00
C1076  C     0.79126   0.94670   0.52048   0.00000  Uiso   1.00
C1077  C     0.80788   0.96610   0.97982   0.00000  Uiso   1.00
C1078  C     0.69544   0.53956   0.02032   0.00000  Uiso   1.00
C1079  C     0.53611   0.80653   0.97970   0.00000  Uiso   1.00
C1080  C     0.96377   0.69350   0.02029   0.00000  Uiso   1.00
C1081  C     0.69626   0.54064   0.97950   0.00000  Uiso   1.00
C1082  C     0.80905   0.96817   0.02057   0.00000  Uiso   1.00
C1083  C     0.96618   0.69210   0.97957   0.00000  Uiso   1.00
C1084  C     0.53366   0.80795   0.02042   0.00000  Uiso   1.00
C1085  C     0.74998   0.50000   0.35592   0.00000  Uiso   1.00
C1086  C     0.74999   0.50002   0.64411   0.00000  Uiso   1.00
C1087  C     0.99999   0.75000   0.35589   0.00000  Uiso   1.00
C1088  C     0.99999   0.75005   0.64408   0.00000  Uiso   1.00
C1089  C     0.50002   0.74999   0.85590   0.00000  Uiso   1.00
C1090  C     0.99997   0.75001   0.14410   0.00000  Uiso   1.00
C1091  C     0.75002   0.99997   0.85593   0.00000  Uiso   1.00
C1092  C     0.75001   0.50001   0.14410   0.00000  Uiso   1.00
C1093  C     0.67996   0.57003   0.25001   0.00000  Uiso   1.00
C1094  C     0.82004   0.92997   0.74999   0.00000  Uiso   1.00
C1095  C     0.92995   0.67997   0.24999   0.00000  Uiso   1.00
C1096  C     0.57005   0.82003   0.75001   0.00000  Uiso   1.00
C1097  C     0.82004   0.92997   0.25001   0.00000  Uiso   1.00
C1098  C     0.67996   0.57004   0.75000   0.00000  Uiso   1.00
C1099  C     0.57005   0.82004   0.24999   0.00000  Uiso   1.00
C1100  C     0.92995   0.67996   0.75001   0.00000  Uiso   1.00
C1101  C     0.67996   0.92995   0.75001   0.00000  Uiso   1.00
C1102  C     0.82004   0.57004   0.24999   0.00000  Uiso   1.00
C1103  C     0.92997   0.82004   0.74999   0.00000  Uiso   1.00
C1104  C     0.57003   0.67996   0.25001   0.00000  Uiso   1.00
C1105  C     0.82004   0.57005   0.75000   0.00000  Uiso   1.00
C1106  C     0.67996   0.92995   0.25000   0.00000  Uiso   1.00
C1107  C     0.57003   0.67995   0.74999   0.00000  Uiso   1.00
C1108  C     0.92997   0.82005   0.25001   0.00000  Uiso   1.00
C1109  C     0.61646   0.91027   0.23730   0.00000  Uiso   1.00
C1110  C     0.86967   0.60359   0.78316   0.00000  Uiso   1.00
C1111  C     0.60419   0.63096   0.21656   0.00000  Uiso   1.00
C1112  C     0.89584   0.86907   0.78342   0.00000  Uiso   1.00
C1113  C     0.86956   0.60372   0.21678   0.00000  Uiso   1.00
C1114  C     0.63044   0.89628   0.78322   0.00000  Uiso   1.00
C1115  C     0.89604   0.86931   0.21668   0.00000  Uiso   1.00
C1116  C     0.60411   0.63085   0.78340   0.00000  Uiso   1.00
C1117  C     0.63088   0.60411   0.78341   0.00000  Uiso   1.00
C1118  C     0.86928   0.89605   0.21668   0.00000  Uiso   1.00
C1119  C     0.60372   0.86953   0.78323   0.00000  Uiso   1.00
C1120  C     0.89629   0.63047   0.21677   0.00000  Uiso   1.00
C1121  C     0.86908   0.89582   0.78343   0.00000  Uiso   1.00
C1122  C     0.63095   0.60421   0.21656   0.00000  Uiso   1.00
C1123  C     0.89640   0.63032   0.78316   0.00000  Uiso   1.00
C1124  C     0.58973   0.88354   0.23729   0.00000  Uiso   1.00
C1125  C     0.88031   0.64643   0.71688   0.00000  Uiso   1.00
C1126  C     0.63355   0.83971   0.26265   0.00000  Uiso   1.00
C1127  C     0.85422   0.88100   0.71650   0.00000  Uiso   1.00
C1128  C     0.64575   0.61898   0.28351   0.00000  Uiso   1.00
C1129  C     0.61961   0.85367   0.71685   0.00000  Uiso   1.00
C1130  C     0.88039   0.64634   0.28315   0.00000  Uiso   1.00
C1131  C     0.64587   0.61913   0.71656   0.00000  Uiso   1.00
C1132  C     0.85402   0.88077   0.28340   0.00000  Uiso   1.00
C1133  C     0.88078   0.85401   0.28340   0.00000  Uiso   1.00
C1134  C     0.61910   0.64587   0.71655   0.00000  Uiso   1.00
C1135  C     0.85366   0.61960   0.28315   0.00000  Uiso   1.00
C1136  C     0.64634   0.88041   0.71685   0.00000  Uiso   1.00
C1137  C     0.61900   0.64574   0.28351   0.00000  Uiso   1.00
C1138  C     0.88098   0.85424   0.71650   0.00000  Uiso   1.00
C1139  C     0.66028   0.86645   0.26266   0.00000  Uiso   1.00
C1140  C     0.85358   0.61970   0.71688   0.00000  Uiso   1.00
C1141  C     0.52698   0.72947   0.45907   0.00000  Uiso   1.00
C1142  C     0.97095   0.76705   0.54078   0.00000  Uiso   1.00
C1143  C     0.76984   0.97261   0.45917   0.00000  Uiso   1.00
C1144  C     0.73426   0.52977   0.54096   0.00000  Uiso   1.00
C1145  C     0.97040   0.76598   0.45898   0.00000  Uiso   1.00
C1146  C     0.52676   0.72942   0.54088   0.00000  Uiso   1.00
C1147  C     0.73287   0.52893   0.45917   0.00000  Uiso   1.00
C1148  C     0.77123   0.97354   0.54097   0.00000  Uiso   1.00
C1149  C     0.77956   0.98389   0.95922   0.00000  Uiso   1.00
C1150  C     0.72289   0.52047   0.04092   0.00000  Uiso   1.00
C1151  C     0.51850   0.77814   0.95912   0.00000  Uiso   1.00
C1152  C     0.98141   0.72186   0.04087   0.00000  Uiso   1.00
C1153  C     0.72310   0.52050   0.95912   0.00000  Uiso   1.00
C1154  C     0.78013   0.98504   0.04100   0.00000  Uiso   1.00
C1155  C     0.98334   0.72082   0.95908   0.00000  Uiso   1.00
C1156  C     0.51654   0.77921   0.04091   0.00000  Uiso   1.00
C1157  C     0.59811   0.84810   0.24998   0.00000  Uiso   1.00
C1158  C     0.90189   0.65190   0.75002   0.00000  Uiso   1.00
C1159  C     0.65188   0.59808   0.25003   0.00000  Uiso   1.00
C1160  C     0.84812   0.90193   0.74997   0.00000  Uiso   1.00
C1161  C     0.90187   0.65192   0.24997   0.00000  Uiso   1.00
C1162  C     0.59813   0.84808   0.75003   0.00000  Uiso   1.00
C1163  C     0.84812   0.90192   0.25003   0.00000  Uiso   1.00
C1164  C     0.65190   0.59810   0.74999   0.00000  Uiso   1.00
C1165  C     0.59809   0.65188   0.74998   0.00000  Uiso   1.00
C1166  C     0.90192   0.84813   0.25004   0.00000  Uiso   1.00
C1167  C     0.65190   0.90188   0.75003   0.00000  Uiso   1.00
C1168  C     0.84810   0.59812   0.24997   0.00000  Uiso   1.00
C1169  C     0.90192   0.84812   0.74997   0.00000  Uiso   1.00
C1170  C     0.59809   0.65188   0.25003   0.00000  Uiso   1.00
C1171  C     0.84810   0.59812   0.75002   0.00000  Uiso   1.00
C1172  C     0.65190   0.90189   0.24999   0.00000  Uiso   1.00
C1173  C     0.99861   0.74766   0.47950   0.00000  Uiso   1.00
C1174  C     0.99871   0.74795   0.52035   0.00000  Uiso   1.00
C1175  C     0.75193   0.50114   0.47963   0.00000  Uiso   1.00
C1176  C     0.75252   0.50151   0.52047   0.00000  Uiso   1.00
C1177  C     0.75148   0.50249   0.97965   0.00000  Uiso   1.00
C1178  C     0.75158   0.50281   0.02049   0.00000  Uiso   1.00
C1179  C     0.50039   0.74977   0.97958   0.00000  Uiso   1.00
C1180  C     0.99950   0.75025   0.02042   0.00000  Uiso   1.00
O1181  O     0.75000   0.50000   0.25000   0.00000  Uiso   1.00
O1182  O     0.75000   0.50000   0.75000   0.00000  Uiso   1.00
O1183  O     0.50000   0.75000   0.25000   0.00000  Uiso   1.00
O1184  O     0.50000   0.75000   0.75000   0.00000  Uiso   1.00
O1185  O     0.75000   0.96963   0.33755   0.00000  Uiso   1.00
O1186  O     0.75000   0.53036   0.66245   0.00000  Uiso   1.00
O1187  O     0.53036   0.75000   0.33755   0.00000  Uiso   1.00
O1188  O     0.96963   0.75000   0.66245   0.00000  Uiso   1.00
O1189  O     0.75000   0.53036   0.33755   0.00000  Uiso   1.00
O1190  O     0.75000   0.96963   0.66245   0.00000  Uiso   1.00
O1191  O     0.96963   0.75000   0.33755   0.00000  Uiso   1.00
O1192  O     0.53036   0.75000   0.66245   0.00000  Uiso   1.00
O1193  O     0.50000   0.71963   0.83755   0.00000  Uiso   1.00
O1194  O     0.50000   0.78036   0.16245   0.00000  Uiso   1.00
O1195  O     0.78036   0.50000   0.83755   0.00000  Uiso   1.00
O1196  O     0.71963   0.50000   0.16245   0.00000  Uiso   1.00
O1197  O     0.50000   0.78036   0.83755   0.00000  Uiso   1.00
O1198  O     0.50000   0.71963   0.16245   0.00000  Uiso   1.00
O1199  O     0.71963   0.50000   0.83755   0.00000  Uiso   1.00
O1200  O     0.78036   0.50000   0.16245   0.00000  Uiso   1.00
O1201  O     0.70724   0.57307   0.27302   0.00000  Uiso   1.00
O1202  O     0.79275   0.92692   0.72698   0.00000  Uiso   1.00
O1203  O     0.92692   0.70724   0.27302   0.00000  Uiso   1.00
O1204  O     0.57307   0.79275   0.72698   0.00000  Uiso   1.00
O1205  O     0.79275   0.92692   0.27302   0.00000  Uiso   1.00
O1206  O     0.70724   0.57307   0.72698   0.00000  Uiso   1.00
O1207  O     0.57307   0.79275   0.27302   0.00000  Uiso   1.00
O1208  O     0.92692   0.70724   0.72698   0.00000  Uiso   1.00
O1209  O     0.70724   0.92692   0.72698   0.00000  Uiso   1.00
O1210  O     0.79275   0.57307   0.27302   0.00000  Uiso   1.00
O1211  O     0.92692   0.79275   0.72698   0.00000  Uiso   1.00
O1212  O     0.57307   0.70724   0.27302   0.00000  Uiso   1.00
O1213  O     0.79275   0.57307   0.72698   0.00000  Uiso   1.00
O1214  O     0.70724   0.92692   0.27302   0.00000  Uiso   1.00
O1215  O     0.57307   0.70724   0.72698   0.00000  Uiso   1.00
O1216  O     0.92692   0.79275   0.27302   0.00000  Uiso   1.00
O1217  O     0.95724   0.82307   0.77302   0.00000  Uiso   1.00
O1218  O     0.54275   0.67692   0.22698   0.00000  Uiso   1.00
O1219  O     0.67692   0.95724   0.77302   0.00000  Uiso   1.00
O1220  O     0.82307   0.54275   0.22698   0.00000  Uiso   1.00
O1221  O     0.54275   0.67692   0.77302   0.00000  Uiso   1.00
O1222  O     0.95724   0.82307   0.22698   0.00000  Uiso   1.00
O1223  O     0.82307   0.54275   0.77302   0.00000  Uiso   1.00
O1224  O     0.67692   0.95724   0.22698   0.00000  Uiso   1.00
O1225  O     0.95724   0.67692   0.22698   0.00000  Uiso   1.00
O1226  O     0.54275   0.82307   0.77302   0.00000  Uiso   1.00
O1227  O     0.67692   0.54275   0.22698   0.00000  Uiso   1.00
O1228  O     0.82307   0.95724   0.77302   0.00000  Uiso   1.00
O1229  O     0.54275   0.82307   0.22698   0.00000  Uiso   1.00
O1230  O     0.95724   0.67692   0.77302   0.00000  Uiso   1.00
O1231  O     0.82307   0.95724   0.22698   0.00000  Uiso   1.00
O1232  O     0.67692   0.54275   0.77302   0.00000  Uiso   1.00
Zn1233 Zn    0.70659   0.50000   0.21735   0.00000  Uiso   1.00
Zn1234 Zn    0.79340   0.50000   0.78265   0.00000  Uiso   1.00
Zn1235 Zn    0.50000   0.70659   0.21735   0.00000  Uiso   1.00
Zn1236 Zn    0.50000   0.79340   0.78265   0.00000  Uiso   1.00
Zn1237 Zn    0.79340   0.50000   0.21735   0.00000  Uiso   1.00
Zn1238 Zn    0.70659   0.50000   0.78265   0.00000  Uiso   1.00
Zn1239 Zn    0.50000   0.79340   0.21735   0.00000  Uiso   1.00
Zn1240 Zn    0.50000   0.70659   0.78265   0.00000  Uiso   1.00
Zn1241 Zn    0.95659   0.75000   0.71735   0.00000  Uiso   1.00
Zn1242 Zn    0.54340   0.75000   0.28265   0.00000  Uiso   1.00
Zn1243 Zn    0.75000   0.95659   0.71735   0.00000  Uiso   1.00
Zn1244 Zn    0.75000   0.54340   0.28265   0.00000  Uiso   1.00
Zn1245 Zn    0.54340   0.75000   0.71735   0.00000  Uiso   1.00
Zn1246 Zn    0.95659   0.75000   0.28265   0.00000  Uiso   1.00
Zn1247 Zn    0.75000   0.54340   0.71735   0.00000  Uiso   1.00
Zn1248 Zn    0.75000   0.95659   0.28265   0.00000  Uiso   1.00
N1249  N     0.58292   0.69206   0.45930   0.00000  Uiso   1.00
H1250  H     0.60917   0.69857   0.46745   0.00000  Uiso   1.00
C1251  C     0.57709   0.65402   0.44988   0.00000  Uiso   1.00
H1252  H     0.59295   0.63643   0.46996   0.00000  Uiso   1.00
H1253  H     0.58679   0.64880   0.41991   0.00000  Uiso   1.00
H1254  H     0.54772   0.64657   0.45150   0.00000  Uiso   1.00
N1255  N     0.91599   0.80600   0.54049   0.00000  Uiso   1.00
H1256  H     0.88968   0.80302   0.53049   0.00000  Uiso   1.00
C1257  C     0.92578   0.84360   0.54793   0.00000  Uiso   1.00
H1258  H     0.92786   0.85909   0.52034   0.00000  Uiso   1.00
H1259  H     0.95228   0.84513   0.56348   0.00000  Uiso   1.00
H1260  H     0.90456   0.85650   0.56636   0.00000  Uiso   1.00
N1261  N     0.80721   0.91663   0.45931   0.00000  Uiso   1.00
H1262  H     0.80080   0.89045   0.46778   0.00000  Uiso   1.00
C1263  C     0.84509   0.92238   0.44905   0.00000  Uiso   1.00
H1264  H     0.86300   0.90602   0.46836   0.00000  Uiso   1.00
H1265  H     0.85280   0.95166   0.45110   0.00000  Uiso   1.00
H1266  H     0.84957   0.91321   0.41877   0.00000  Uiso   1.00
N1267  N     0.70088   0.58820   0.54091   0.00000  Uiso   1.00
H1268  H     0.67603   0.59720   0.53074   0.00000  Uiso   1.00
C1269  C     0.72607   0.61757   0.54916   0.00000  Uiso   1.00
H1270  H     0.73540   0.63059   0.52182   0.00000  Uiso   1.00
H1271  H     0.75015   0.60718   0.56533   0.00000  Uiso   1.00
H1272  H     0.71228   0.63845   0.56730   0.00000  Uiso   1.00
N1273  N     0.91199   0.79942   0.45892   0.00000  Uiso   1.00
H1274  H     0.90297   0.82423   0.46914   0.00000  Uiso   1.00
C1275  C     0.88262   0.77429   0.45044   0.00000  Uiso   1.00
H1276  H     0.86950   0.76486   0.47768   0.00000  Uiso   1.00
H1277  H     0.89305   0.75027   0.43420   0.00000  Uiso   1.00
H1278  H     0.86181   0.78817   0.43227   0.00000  Uiso   1.00
N1279  N     0.57840   0.68615   0.54103   0.00000  Uiso   1.00
H1280  H     0.60424   0.68407   0.52954   0.00000  Uiso   1.00
C1281  C     0.56359   0.65128   0.55297   0.00000  Uiso   1.00
H1282  H     0.55633   0.63454   0.52732   0.00000  Uiso   1.00
H1283  H     0.53882   0.65510   0.57105   0.00000  Uiso   1.00
H1284  H     0.58420   0.63632   0.57042   0.00000  Uiso   1.00
N1285  N     0.69402   0.58396   0.45938   0.00000  Uiso   1.00
H1286  H     0.69704   0.61030   0.46927   0.00000  Uiso   1.00
C1287  C     0.65640   0.57418   0.45202   0.00000  Uiso   1.00
H1288  H     0.64093   0.57232   0.47963   0.00000  Uiso   1.00
H1289  H     0.65481   0.54757   0.43671   0.00000  Uiso   1.00
H1290  H     0.64353   0.59528   0.43340   0.00000  Uiso   1.00
N1291  N     0.81429   0.92173   0.54086   0.00000  Uiso   1.00
H1292  H     0.81600   0.89577   0.52964   0.00000  Uiso   1.00
C1293  C     0.84944   0.93643   0.55195   0.00000  Uiso   1.00
H1294  H     0.86599   0.94285   0.52592   0.00000  Uiso   1.00
H1295  H     0.86435   0.91608   0.56980   0.00000  Uiso   1.00
H1296  H     0.84610   0.96167   0.56939   0.00000  Uiso   1.00
N1297  N     0.83532   0.94614   0.95953   0.00000  Uiso   1.00
H1298  H     0.86159   0.94969   0.96946   0.00000  Uiso   1.00
C1299  C     0.82624   0.90832   0.95230   0.00000  Uiso   1.00
H1300  H     0.82430   0.89298   0.97999   0.00000  Uiso   1.00
H1301  H     0.84776   0.89568   0.93405   0.00000  Uiso   1.00
H1302  H     0.79983   0.90622   0.93665   0.00000  Uiso   1.00
N1303  N     0.66685   0.55770   0.04072   0.00000  Uiso   1.00
H1304  H     0.64055   0.55147   0.03252   0.00000  Uiso   1.00
C1305  C     0.67307   0.59557   0.05064   0.00000  Uiso   1.00
H1306  H     0.65701   0.61353   0.03112   0.00000  Uiso   1.00
H1307  H     0.70245   0.60289   0.04859   0.00000  Uiso   1.00
H1308  H     0.66389   0.60041   0.08086   0.00000  Uiso   1.00
N1309  N     0.55613   0.83389   0.95939   0.00000  Uiso   1.00
H1310  H     0.55252   0.86020   0.96917   0.00000  Uiso   1.00
C1311  C     0.59399   0.82473   0.95238   0.00000  Uiso   1.00
H1312  H     0.60919   0.82286   0.98015   0.00000  Uiso   1.00
H1313  H     0.60669   0.84618   0.93411   0.00000  Uiso   1.00
H1314  H     0.59616   0.79828   0.93683   0.00000  Uiso   1.00
N1315  N     0.94374   0.66614   0.04061   0.00000  Uiso   1.00
H1316  H     0.94730   0.63984   0.03080   0.00000  Uiso   1.00
C1317  C     0.90591   0.67534   0.04770   0.00000  Uiso   1.00
H1318  H     0.89067   0.67726   0.01995   0.00000  Uiso   1.00
H1319  H     0.90379   0.70178   0.06329   0.00000  Uiso   1.00
H1320  H     0.89320   0.65388   0.06596   0.00000  Uiso   1.00
N1321  N     0.67106   0.56326   0.95893   0.00000  Uiso   1.00
H1322  H     0.64521   0.56512   0.97040   0.00000  Uiso   1.00
C1323  C     0.68562   0.59822   0.94698   0.00000  Uiso   1.00
H1324  H     0.69261   0.61507   0.97262   0.00000  Uiso   1.00
H1325  H     0.66495   0.61296   0.92938   0.00000  Uiso   1.00
H1326  H     0.71049   0.59458   0.92902   0.00000  Uiso   1.00
N1327  N     0.83943   0.95325   0.04107   0.00000  Uiso   1.00
H1328  H     0.84916   0.92870   0.03089   0.00000  Uiso   1.00
C1329  C     0.86802   0.97928   0.04947   0.00000  Uiso   1.00
H1330  H     0.88080   0.98906   0.02218   0.00000  Uiso   1.00
H1331  H     0.88927   0.96606   0.06762   0.00000  Uiso   1.00
H1332  H     0.85689   0.50298   0.06569   0.00000  Uiso   1.00
N1333  N     0.95147   0.66162   0.95916   0.00000  Uiso   1.00
H1334  H     0.92675   0.65210   0.96911   0.00000  Uiso   1.00
C1335  C     0.97751   0.63280   0.95147   0.00000  Uiso   1.00
H1336  H     0.98686   0.62019   0.97902   0.00000  Uiso   1.00
H1337  H     0.50150   0.64367   0.93554   0.00000  Uiso   1.00
H1338  H     0.96449   0.61148   0.93331   0.00000  Uiso   1.00
N1339  N     0.54827   0.83849   0.04082   0.00000  Uiso   1.00
H1340  H     0.57297   0.84806   0.03090   0.00000  Uiso   1.00
C1341  C     0.52214   0.86723   0.04845   0.00000  Uiso   1.00
H1342  H     0.51277   0.87978   0.02087   0.00000  Uiso   1.00
H1343  H     0.53508   0.88862   0.06659   0.00000  Uiso   1.00
H1344  H     0.99817   0.85632   0.06438   0.00000  Uiso   1.00
F1345  F     0.60734   0.94453   0.22578   0.00000  Uiso   1.00
F1346  F     0.86436   0.58373   0.81593   0.00000  Uiso   1.00
F1347  F     0.58496   0.63696   0.18350   0.00000  Uiso   1.00
F1348  F     0.91510   0.86310   0.81647   0.00000  Uiso   1.00
F1349  F     0.86416   0.58397   0.18396   0.00000  Uiso   1.00
F1350  F     0.63585   0.91602   0.81604   0.00000  Uiso   1.00
F1351  F     0.91551   0.86358   0.18373   0.00000  Uiso   1.00
F1352  F     0.58478   0.63672   0.81642   0.00000  Uiso   1.00
F1353  F     0.63679   0.58479   0.81644   0.00000  Uiso   1.00
F1354  F     0.86353   0.91551   0.18371   0.00000  Uiso   1.00
F1355  F     0.58399   0.86408   0.81606   0.00000  Uiso   1.00
F1356  F     0.91602   0.63591   0.18394   0.00000  Uiso   1.00
F1357  F     0.86311   0.91506   0.81649   0.00000  Uiso   1.00
F1358  F     0.63696   0.58500   0.18348   0.00000  Uiso   1.00
F1359  F     0.91625   0.63563   0.81594   0.00000  Uiso   1.00
F1360  F     0.55548   0.89265   0.22575   0.00000  Uiso   1.00
F1361  F     0.88562   0.66629   0.68411   0.00000  Uiso   1.00
F1362  F     0.64267   0.80545   0.27417   0.00000  Uiso   1.00
F1363  F     0.83499   0.88701   0.68344   0.00000  Uiso   1.00
F1364  F     0.66497   0.61295   0.31659   0.00000  Uiso   1.00
F1365  F     0.61421   0.83392   0.68403   0.00000  Uiso   1.00
F1366  F     0.88578   0.66609   0.31597   0.00000  Uiso   1.00
F1367  F     0.66520   0.61324   0.68353   0.00000  Uiso   1.00
F1368  F     0.83459   0.88653   0.31638   0.00000  Uiso   1.00
F1369  F     0.88655   0.83455   0.31637   0.00000  Uiso   1.00
F1370  F     0.61319   0.66519   0.68352   0.00000  Uiso   1.00
F1371  F     0.83390   0.61419   0.31597   0.00000  Uiso   1.00
F1372  F     0.66609   0.88582   0.68403   0.00000  Uiso   1.00
F1373  F     0.61299   0.66494   0.31659   0.00000  Uiso   1.00
F1374  F     0.88696   0.83500   0.68344   0.00000  Uiso   1.00
F1375  F     0.69454   0.85733   0.27418   0.00000  Uiso   1.00
F1376  F     0.83372   0.61441   0.68411   0.00000  Uiso   1.00
F1377  F     0.94716   0.78680   0.39754   0.00000  Uiso   1.00
F1378  F     0.55583   0.71735   0.60212   0.00000  Uiso   1.00
F1379  F     0.71674   0.55533   0.39758   0.00000  Uiso   1.00
F1380  F     0.78448   0.94518   0.60236   0.00000  Uiso   1.00
F1381  F     0.55378   0.71401   0.39742   0.00000  Uiso   1.00
F1382  F     0.94437   0.78294   0.60235   0.00000  Uiso   1.00
F1383  F     0.78403   0.94505   0.39760   0.00000  Uiso   1.00
F1384  F     0.71379   0.55327   0.60239   0.00000  Uiso   1.00
F1385  F     0.69371   0.53194   0.89794   0.00000  Uiso   1.00
F1386  F     0.80367   0.96442   0.10236   0.00000  Uiso   1.00
F1387  F     0.96424   0.69640   0.89757   0.00000  Uiso   1.00
F1388  F     0.53565   0.80365   0.10240   0.00000  Uiso   1.00
F1389  F     0.80628   0.96823   0.89768   0.00000  Uiso   1.00
F1390  F     0.69550   0.53497   0.10253   0.00000  Uiso   1.00
F1391  F     0.53408   0.80488   0.89751   0.00000  Uiso   1.00
F1392  F     0.96592   0.69508   0.10249   0.00000  Uiso   1.00
loop_
_geom_bond_atom_site_label_1
_geom_bond_atom_site_label_2
_geom_bond_distance
_geom_bond_site_symmetry_2
_ccdc_geom_bond_type
C1     C101    1.406   .     A
C1     F333    1.360   .     S
C1     C17     1.395   .     A
C2     F334    1.360   .     S
C2     C102    1.407   .     A
C2     C366    1.396   1_455 S
C3     C19     1.396   .     A
C3     C103    1.407   .     A
C3     F335    1.360   .     S
C4     C104    1.407   .     A
C4     F336    1.360   .     S
C4     C716    1.396   .     S
C5     F337    1.359   .     S
C5     C97     1.408   .     A
C5     C365    1.396   1_455 S
C6     F338    1.360   .     S
C6     C98     1.407   .     A
C6     C18     1.397   .     A
C7     C99     1.407   .     A
C7     F339    1.359   .     S
C7     C715    1.396   .     S
C8     C20     1.396   .     A
C8     F340    1.360   .     S
C8     C100    1.406   .     A
C9     C21     1.396   .     A
C9     C109    1.407   .     A
C9     F341    1.360   .     S
C10    C110    1.406   .     A
C10    F342    1.360   .     S
C10    C718    1.395   .     S
C11    C111    1.406   .     A
C11    F343    1.360   .     S
C11    C371    1.395   .     S
C12    C112    1.406   .     A
C12    F344    1.360   .     S
C12    C372    1.395   1_455 S
C13    F345    1.360   .     S
C13    C105    1.407   .     A
C13    C717    1.397   .     S
C14    C22     1.396   .     A
C14    F346    1.359   .     S
C14    C106    1.408   .     A
C15    C107    1.407   .     A
C15    C23     1.396   .     A
C15    F347    1.360   .     S
C16    F348    1.360   .     S
C16    C24     1.396   .     A
C16    C108    1.407   .     A
C17    C43     1.462   .     S
C17    C353    1.396   .     S
C18    C44     1.464   .     S
C18    C350    1.396   .     S
C19    C703    1.396   1_545 S
C19    C41     1.464   .     S
C20    C42     1.462   .     S
C20    C700    1.396   1_545 S
C21    C709    1.397   1_545 S
C21    C743    1.464   1_545 S
C22    C48     1.462   .     S
C22    C706    1.395   1_545 S
C23    C45     1.462   .     S
C23    C359    1.395   1_455 S
C24    C46     1.462   .     S
C24    C360    1.395   .     S
C25    C97     1.417   .     A
C25    N205    1.427   .     S
C25    C30     1.409   .     A
C26    N211    1.427   .     S
C26    C98     1.417   .     A
C26    C29     1.408   .     A
C27    C99     1.417   .     A
C27    N217    1.426   .     S
C27    C32     1.409   .     A
C28    C31     1.408   .     A
C28    C100    1.416   .     A
C28    N223    1.427   .     S
C29    N229    1.427   .     S
C29    C101    1.416   .     A
C30    N235    1.429   .     S
C30    C102    1.417   .     A
C31    N241    1.427   .     S
C31    C103    1.417   .     A
C32    C104    1.416   .     A
C32    N247    1.429   .     S
C33    C105    1.416   .     A
C33    N253    1.427   .     S
C33    C38     1.408   1_556 S
C34    C106    1.416   .     A
C34    N259    1.426   .     S
C34    C37     1.409   1_554 S
C35    C107    1.416   .     A
C35    N265    1.427   .     S
C35    C40     1.408   1_556 S
C36    C108    1.416   .     A
C36    N271    1.427   .     S
C36    C39     1.408   1_554 S
C37    C109    1.416   .     A
C37    N277    1.429   .     S
C37    C34     1.409   1_556 S
C38    N283    1.427   .     S
C38    C110    1.415   .     A
C38    C33     1.408   1_554 S
C39    C111    1.416   .     A
C39    N289    1.427   .     S
C39    C36     1.408   1_556 S
C40    C112    1.416   .     A
C40    N295    1.427   .     S
C40    C35     1.408   1_554 S
C41    O837    1.281   1_545 A
C41    O145    1.281   .     S
C42    O142    1.280   .     A
C42    O842    1.281   1_545 S
C43    O147    1.280   .     A
C43    O491    1.280   .     S
C44    O144    1.280   .     A
C44    O496    1.281   .     S
C45    O153    1.281   .     A
C45    O149    1.280   .     A
C46    O498    1.280   .     S
C46    O502    1.281   .     S
C47    C717    1.464   .     S
C47    O847    1.280   .     S
C47    O851    1.281   .     S
C48    O156    1.280   .     A
C48    O152    1.281   .     A
C49    C115    1.454   .     S
C49    O183    1.282   .     A
C49    O157    1.282   .     A
C50    O184    1.282   .     A
C50    O158    1.282   .     A
C50    C116    1.454   .     S
C51    O181    1.282   .     A
C51    O159    1.282   .     A
C51    C117    1.456   .     S
C52    O182    1.282   .     A
C52    O160    1.282   .     A
C52    C118    1.456   .     S
C53    C119    1.454   .     S
C53    O187    1.282   .     A
C53    O161    1.282   .     A
C54    O188    1.282   .     A
C54    C120    1.454   .     S
C54    O162    1.282   .     A
C55    O163    1.282   .     A
C55    C113    1.456   .     S
C55    O185    1.282   .     A
C56    O164    1.282   .     A
C56    O186    1.282   .     A
C56    C114    1.456   .     S
C57    C123    1.456   .     S
C57    O165    1.282   .     A
C57    O175    1.282   .     A
C58    O166    1.282   .     A
C58    O176    1.282   .     A
C58    C124    1.456   .     S
C59    O167    1.282   .     A
C59    C125    1.454   .     S
C59    O173    1.282   .     A
C60    O174    1.282   .     A
C60    O168    1.282   .     A
C60    C126    1.454   .     S
C61    C127    1.456   .     S
C61    O179    1.282   .     A
C61    O169    1.282   .     A
C62    O170    1.282   .     A
C62    O180    1.282   .     A
C62    C128    1.456   .     S
C63    O171    1.282   .     A
C63    C121    1.454   .     S
C63    O177    1.282   .     A
C64    O172    1.282   .     A
C64    O178    1.282   .     A
C64    C122    1.454   .     S
C65    F301    1.358   .     S
C65    C128    1.404   .     A
C65    C80     1.386   .     A
C66    C79     1.387   .     A
C66    F302    1.358   .     S
C66    C127    1.404   .     A
C67    F303    1.359   .     S
C67    C126    1.404   .     A
C67    C78     1.386   .     A
C68    C77     1.386   .     A
C68    C125    1.404   .     A
C68    F304    1.359   .     S
C69    C76     1.387   .     A
C69    C124    1.404   .     A
C69    F305    1.359   .     S
C70    F306    1.358   .     S
C70    C75     1.387   .     A
C70    C123    1.404   .     A
C71    C122    1.404   .     A
C71    F307    1.359   .     S
C71    C74     1.386   .     A
C72    C73     1.386   .     A
C72    F308    1.359   .     S
C72    C121    1.404   .     A
C73    F309    1.359   .     S
C73    C120    1.404   .     A
C74    C119    1.404   .     A
C74    F310    1.359   .     S
C75    F311    1.359   .     S
C75    C118    1.404   .     A
C76    F312    1.359   .     S
C76    C117    1.404   .     A
C77    C116    1.404   .     A
C77    F313    1.359   .     S
C78    C115    1.404   .     A
C78    F314    1.359   .     S
C79    F315    1.359   .     S
C79    C114    1.404   .     A
C80    F316    1.358   .     S
C80    C113    1.404   .     A
C81    C114    1.404   .     A
C81    C96     1.387   .     A
C81    F317    1.358   .     S
C82    C95     1.386   .     A
C82    C113    1.404   .     A
C82    F318    1.358   .     S
C83    C94     1.386   .     A
C83    C116    1.404   .     A
C83    F319    1.359   .     S
C84    C93     1.386   .     A
C84    F320    1.359   .     S
C84    C115    1.404   .     A
C85    F321    1.359   .     S
C85    C92     1.387   .     A
C85    C118    1.404   .     A
C86    C117    1.404   .     A
C86    C91     1.387   .     A
C86    F322    1.359   .     S
C87    F323    1.359   .     S
C87    C90     1.386   .     A
C87    C120    1.404   .     A
C88    C119    1.404   .     A
C88    C89     1.386   .     A
C88    F324    1.359   .     S
C89    C122    1.404   .     A
C89    F325    1.359   .     S
C90    F326    1.359   .     S
C90    C121    1.404   .     A
C91    F327    1.358   .     S
C91    C124    1.404   .     A
C92    C123    1.404   .     A
C92    F328    1.358   .     S
C93    C126    1.404   .     A
C93    F329    1.359   .     S
C94    C125    1.404   .     A
C94    F330    1.359   .     S
C95    C128    1.404   .     A
C95    F331    1.358   .     S
C96    C127    1.404   .     A
C96    F332    1.359   .     S
C97    C477    1.422   1_455 S
C98    C130    1.422   .     A
C99    C827    1.422   .     S
C100   C132    1.421   .     A
C101   C129    1.421   .     A
C102   C478    1.421   1_455 S
C103   C131    1.422   .     A
C104   C828    1.421   .     S
C105   C829    1.421   .     S
C106   C134    1.422   .     A
C107   C135    1.422   .     A
C108   C136    1.422   .     A
C109   C133    1.420   .     A
C110   C830    1.421   .     S
C111   C483    1.421   .     S
C112   C484    1.421   1_455 S
C129   C130    1.409   .     A
C129   C445    1.422   .     S
C130   C450    1.421   .     S
C131   C132    1.409   .     A
C131   C795    1.422   1_545 S
C132   C800    1.421   1_545 S
C133   C801    1.421   1_545 S
C133   C134    1.409   1_556 S
C134   C806    1.421   1_545 S
C134   C133    1.409   1_554 S
C135   C459    1.421   1_455 S
C135   C484    1.409   1_456 S
C136   C460    1.421   .     S
C136   C483    1.409   1_554 S
O137   Zn193   1.949   .     S
O137   Zn200   1.950   .     S
O137   Zn189   1.949   .     S
O137   Zn900   1.949   1_545 S
O138   Zn194   1.949   .     S
O138   Zn203   1.949   .     S
O138   Zn190   1.949   .     S
O138   Zn895   1.950   1_545 S
O139   Zn198   1.949   .     S
O139   Zn191   1.950   .     S
O139   Zn195   1.949   .     S
O139   Zn550   1.949   1_455 S
O140   Zn192   1.950   .     S
O140   Zn201   1.949   .     S
O140   Zn196   1.949   .     S
O140   Zn545   1.949   1_455 S
O141   Zn204   1.953   .     S
O141   C737    1.281   .     A
O142   Zn203   1.953   .     S
O143   Zn198   1.953   .     S
O143   C391    1.280   1_455 S
O144   Zn197   1.953   .     S
O145   Zn200   1.953   .     S
O146   Zn199   1.953   .     S
O146   C738    1.281   .     S
O147   Zn202   1.953   .     S
O148   Zn201   1.953   .     S
O148   C392    1.281   1_455 S
O149   Zn196   1.953   .     S
O150   C394    1.280   1_455 S
O150   Zn195   1.953   .     S
O151   Zn190   1.953   .     S
O151   C743    1.280   1_545 S
O152   Zn189   1.953   .     S
O153   Zn192   1.953   .     S
O154   Zn191   1.953   .     S
O154   C394    1.281   1_455 S
O155   Zn194   1.953   .     S
O155   C743    1.281   1_545 S
O156   Zn193   1.953   .     S
O157   Zn200   1.935   .     S
O158   Zn199   1.935   .     S
O159   Zn202   1.937   .     S
O160   Zn201   1.937   .     S
O161   Zn204   1.936   .     S
O162   Zn203   1.936   .     S
O163   Zn198   1.937   .     S
O164   Zn197   1.937   .     S
O165   Zn199   1.937   .     S
O166   Zn200   1.937   .     S
O167   Zn197   1.936   .     S
O168   Zn198   1.936   .     S
O169   Zn203   1.937   .     S
O170   Zn204   1.937   .     S
O171   Zn201   1.935   .     S
O172   Zn202   1.935   .     S
O173   Zn540   1.935   .     S
O174   Zn191   1.935   .     S
O175   Zn890   1.937   .     S
O176   Zn193   1.937   .     S
O177   Zn196   1.936   .     S
O178   Zn543   1.936   .     S
O179   Zn190   1.937   .     S
O180   Zn885   1.937   .     S
O181   Zn539   1.937   .     S
O182   Zn192   1.937   .     S
O183   Zn189   1.936   .     S
O184   Zn886   1.936   .     S
O185   Zn195   1.937   .     S
O186   Zn544   1.937   .     S
O187   Zn889   1.935   .     S
O188   Zn194   1.935   .     S
Zn189  O876    1.937   1_545 S
Zn190  O880    1.936   1_545 S
Zn191  O529    1.937   1_455 S
Zn192  O521    1.935   1_455 S
Zn193  O883    1.935   1_545 S
Zn194  O871    1.937   1_545 S
Zn195  O526    1.936   1_455 S
Zn196  O534    1.937   1_455 S
Zn197  O488    1.949   .     S
Zn199  O834    1.950   .     S
Zn202  O487    1.949   .     S
Zn204  O833    1.949   .     S
N205   C207    1.448   .     S
N205   H206    1.031   .     S
C207   H210    1.112   .     S
C207   H209    1.110   .     S
C207   H208    1.110   .     S
N211   H212    1.030   .     S
N211   C213    1.448   .     S
C213   H215    1.111   .     S
C213   H214    1.110   .     S
C213   H216    1.110   .     S
N217   H218    1.031   .     S
N217   C219    1.448   .     S
C219   H222    1.110   .     S
C219   H220    1.110   .     S
C219   H221    1.112   .     S
N223   C225    1.447   .     S
N223   H224    1.030   .     S
C225   H228    1.110   .     S
C225   H227    1.111   .     S
C225   H226    1.111   .     S
N229   H230    1.030   .     S
N229   C231    1.447   .     S
C231   H234    1.110   .     S
C231   H233    1.111   .     S
C231   H232    1.111   .     S
N235   H236    1.029   .     S
N235   C237    1.449   .     S
C237   H238    1.109   .     S
C237   H240    1.110   .     S
C237   H239    1.110   .     S
N241   H242    1.030   .     S
N241   C243    1.448   .     S
C243   H246    1.110   .     S
C243   H244    1.110   .     S
C243   H245    1.111   .     S
N247   C249    1.449   .     S
N247   H248    1.029   .     S
C249   H250    1.109   .     S
C249   H252    1.111   .     S
C249   H251    1.110   .     S
N253   C255    1.448   .     S
N253   H254    1.030   .     S
C255   H257    1.110   .     S
C255   H258    1.111   .     S
C255   H256    1.110   .     S
N259   C261    1.448   .     S
N259   H260    1.031   .     S
C261   H264    1.110   .     S
C261   H262    1.110   .     S
C261   H263    1.113   .     S
N265   C267    1.448   .     S
N265   H266    1.030   .     S
C267   H269    1.110   .     S
C267   H270    1.111   .     S
C267   H268    1.111   .     S
N271   H272    1.030   .     S
N271   C273    1.448   .     S
C273   H276    1.110   .     S
C273   H274    1.111   .     S
C273   H275    1.111   .     S
N277   C279    1.449   .     S
N277   H278    1.029   .     S
C279   H281    1.110   .     S
C279   H280    1.109   .     S
C279   H282    1.111   .     S
N283   H284    1.030   .     S
N283   C285    1.447   .     S
C285   H287    1.110   .     S
C285   H286    1.111   .     S
C285   H984    1.111   .     S
H288   C981    1.111   1_545 S
N289   H290    1.030   .     S
N289   C291    1.447   .     S
C291   H292    1.111   .     S
C291   H294    1.110   .     S
C291   H641    1.111   .     S
H293   C639    1.111   1_455 S
N295   C297    1.447   .     S
N295   H296    1.030   .     S
C297   H299    1.110   .     S
C297   H298    1.111   .     S
C297   H648    1.111   1_455 S
H300   C645    1.111   .     S
C349   C449    1.406   .     A
C349   F681    1.360   .     S
C349   C365    1.395   .     A
C350   F682    1.360   .     S
C350   C450    1.407   .     A
C351   C367    1.396   .     A
C351   C451    1.407   .     A
C351   F683    1.360   .     S
C352   C452    1.407   .     A
C352   F684    1.360   .     S
C352   C1064   1.396   .     S
C353   F685    1.359   .     S
C353   C445    1.408   .     A
C354   F686    1.360   .     S
C354   C446    1.407   .     A
C354   C366    1.397   .     A
C355   C447    1.407   .     A
C355   F687    1.359   .     S
C355   C1063   1.396   .     S
C356   C368    1.396   .     A
C356   F688    1.360   .     S
C356   C448    1.406   .     A
C357   C369    1.396   .     A
C357   C457    1.407   .     A
C357   F689    1.360   .     S
C358   C458    1.406   .     A
C358   F690    1.360   .     S
C358   C1066   1.395   .     S
C359   C459    1.406   .     A
C359   F691    1.360   .     S
C359   C23     1.395   1_655 S
C360   C460    1.406   .     A
C360   F692    1.360   .     S
C361   F693    1.360   .     S
C361   C453    1.407   .     A
C361   C1065   1.397   .     S
C362   C370    1.396   .     A
C362   F694    1.359   .     S
C362   C454    1.408   .     A
C363   C455    1.407   .     A
C363   C371    1.396   .     A
C363   F695    1.360   .     S
C364   F696    1.360   .     S
C364   C372    1.396   .     A
C364   C456    1.407   .     A
C365   C391    1.462   .     S
C365   C5      1.396   1_655 S
C366   C392    1.464   .     S
C366   C2      1.396   1_655 S
C367   C1051   1.396   1_545 S
C367   C389    1.464   .     S
C368   C390    1.462   .     S
C368   C1048   1.396   1_545 S
C369   C1057   1.397   1_545 S
C369   C1091   1.464   1_545 S
C370   C396    1.462   .     S
C370   C1054   1.395   1_545 S
C371   C393    1.462   .     S
C372   C394    1.462   .     S
C372   C12     1.395   1_655 S
C373   C445    1.417   .     A
C373   N553    1.427   .     S
C373   C378    1.409   .     A
C374   N559    1.427   .     S
C374   C446    1.417   .     A
C374   C377    1.408   .     A
C375   C447    1.417   .     A
C375   N565    1.426   .     S
C375   C380    1.409   .     A
C376   C379    1.408   .     A
C376   C448    1.416   .     A
C376   N571    1.427   .     S
C377   N577    1.427   .     S
C377   C449    1.416   .     A
C378   N583    1.429   .     S
C378   C450    1.417   .     A
C379   N589    1.427   .     S
C379   C451    1.417   .     A
C380   C452    1.416   .     A
C380   N595    1.429   .     S
C381   C453    1.416   .     A
C381   N601    1.427   .     S
C381   C386    1.408   1_556 S
C382   C454    1.416   .     A
C382   N607    1.426   .     S
C382   C385    1.409   1_554 S
C383   C455    1.416   .     A
C383   N613    1.427   .     S
C383   C388    1.408   1_556 S
C384   C456    1.416   .     A
C384   N619    1.427   .     S
C384   C387    1.408   1_554 S
C385   C457    1.416   .     A
C385   N625    1.429   .     S
C385   C382    1.409   1_556 S
C386   N631    1.427   .     S
C386   C458    1.415   .     A
C386   C381    1.408   1_554 S
C387   C459    1.416   .     A
C387   N637    1.427   .     S
C387   C384    1.408   1_556 S
C388   C460    1.416   .     A
C388   N643    1.427   .     S
C388   C383    1.408   1_554 S
C389   O1185   1.281   1_545 A
C389   O493    1.281   .     S
C390   O490    1.280   .     A
C390   O1190   1.281   1_545 S
C391   O495    1.280   .     A
C391   O143    1.280   1_655 S
C392   O492    1.280   .     A
C392   O148    1.281   1_655 S
C393   O501    1.281   .     A
C393   O497    1.280   .     A
C394   O150    1.280   1_655 S
C394   O154    1.281   1_655 S
C395   C1065   1.464   .     S
C395   O1195   1.280   .     S
C395   O1199   1.281   .     S
C396   O504    1.280   .     A
C396   O500    1.281   .     A
C397   C463    1.454   .     S
C397   O531    1.282   .     A
C397   O505    1.282   .     A
C398   O532    1.282   .     A
C398   O506    1.282   .     A
C398   C464    1.454   .     S
C399   O529    1.282   .     A
C399   O507    1.282   .     A
C399   C465    1.456   .     S
C400   O530    1.282   .     A
C400   O508    1.282   .     A
C400   C466    1.456   .     S
C401   C467    1.454   .     S
C401   O535    1.282   .     A
C401   O509    1.282   .     A
C402   O536    1.282   .     A
C402   C468    1.454   .     S
C402   O510    1.282   .     A
C403   O511    1.282   .     A
C403   C461    1.456   .     S
C403   O533    1.282   .     A
C404   O512    1.282   .     A
C404   O534    1.282   .     A
C404   C462    1.456   .     S
C405   C471    1.456   .     S
C405   O513    1.282   .     A
C405   O523    1.282   .     A
C406   O514    1.282   .     A
C406   O524    1.282   .     A
C406   C472    1.456   .     S
C407   O515    1.282   .     A
C407   C473    1.454   .     S
C407   O521    1.282   .     A
C408   O522    1.282   .     A
C408   O516    1.282   .     A
C408   C474    1.454   .     S
C409   C475    1.456   .     S
C409   O527    1.282   .     A
C409   O517    1.282   .     A
C410   O518    1.282   .     A
C410   O528    1.282   .     A
C410   C476    1.456   .     S
C411   O519    1.282   .     A
C411   C469    1.454   .     S
C411   O525    1.282   .     A
C412   O520    1.282   .     A
C412   O526    1.282   .     A
C412   C470    1.454   .     S
C413   F649    1.358   .     S
C413   C476    1.404   .     A
C413   C428    1.386   .     A
C414   C427    1.387   .     A
C414   F650    1.358   .     S
C414   C475    1.404   .     A
C415   F651    1.359   .     S
C415   C474    1.404   .     A
C415   C426    1.386   .     A
C416   C425    1.386   .     A
C416   C473    1.404   .     A
C416   F652    1.359   .     S
C417   C424    1.387   .     A
C417   C472    1.404   .     A
C417   F653    1.359   .     S
C418   F654    1.358   .     S
C418   C423    1.387   .     A
C418   C471    1.404   .     A
C419   C470    1.404   .     A
C419   F655    1.359   .     S
C419   C422    1.386   .     A
C420   C421    1.386   .     A
C420   F656    1.359   .     S
C420   C469    1.404   .     A
C421   F657    1.359   .     S
C421   C468    1.404   .     A
C422   C467    1.404   .     A
C422   F658    1.359   .     S
C423   F659    1.359   .     S
C423   C466    1.404   .     A
C424   F660    1.359   .     S
C424   C465    1.404   .     A
C425   C464    1.404   .     A
C425   F661    1.359   .     S
C426   C463    1.404   .     A
C426   F662    1.359   .     S
C427   F663    1.359   .     S
C427   C462    1.404   .     A
C428   F664    1.358   .     S
C428   C461    1.404   .     A
C429   C462    1.404   .     A
C429   C444    1.387   .     A
C429   F665    1.358   .     S
C430   C443    1.386   .     A
C430   C461    1.404   .     A
C430   F666    1.358   .     S
C431   C442    1.386   .     A
C431   C464    1.404   .     A
C431   F667    1.359   .     S
C432   C441    1.386   .     A
C432   F668    1.359   .     S
C432   C463    1.404   .     A
C433   F669    1.359   .     S
C433   C440    1.387   .     A
C433   C466    1.404   .     A
C434   C465    1.404   .     A
C434   C439    1.387   .     A
C434   F670    1.359   .     S
C435   F671    1.359   .     S
C435   C438    1.386   .     A
C435   C468    1.404   .     A
C436   C467    1.404   .     A
C436   C437    1.386   .     A
C436   F672    1.359   .     S
C437   C470    1.404   .     A
C437   F673    1.359   .     S
C438   F674    1.359   .     S
C438   C469    1.404   .     A
C439   F675    1.358   .     S
C439   C472    1.404   .     A
C440   C471    1.404   .     A
C440   F676    1.358   .     S
C441   C474    1.404   .     A
C441   F677    1.359   .     S
C442   C473    1.404   .     A
C442   F678    1.359   .     S
C443   C476    1.404   .     A
C443   F679    1.358   .     S
C444   C475    1.404   .     A
C444   F680    1.359   .     S
C446   C478    1.422   .     A
C447   C1175   1.422   .     S
C448   C480    1.421   .     A
C449   C477    1.421   .     A
C451   C479    1.422   .     A
C452   C1176   1.421   .     S
C453   C1177   1.421   .     S
C454   C482    1.422   .     A
C455   C483    1.422   .     A
C456   C484    1.422   .     A
C457   C481    1.420   .     A
C458   C1178   1.421   .     S
C459   C135    1.421   1_655 S
C477   C478    1.409   .     A
C477   C97     1.422   1_655 S
C478   C102    1.421   1_655 S
C479   C480    1.409   .     A
C479   C1143   1.422   1_545 S
C480   C1148   1.421   1_545 S
C481   C1149   1.421   1_545 S
C481   C482    1.409   1_556 S
C482   C1154   1.421   1_545 S
C482   C481    1.409   1_554 S
C483   C136    1.409   1_556 S
C484   C112    1.421   1_655 S
C484   C135    1.409   1_654 S
O485   Zn541   1.949   .     S
O485   Zn548   1.950   .     S
O485   Zn537   1.949   .     S
O485   Zn1248  1.949   1_545 S
O486   Zn542   1.949   .     S
O486   Zn551   1.949   .     S
O486   Zn538   1.949   .     S
O486   Zn1243  1.950   1_545 S
O487   Zn546   1.949   .     S
O487   Zn539   1.950   .     S
O487   Zn543   1.949   .     S
O488   Zn540   1.950   .     S
O488   Zn549   1.949   .     S
O488   Zn544   1.949   .     S
O489   Zn552   1.953   .     S
O489   C1085   1.281   .     A
O490   Zn551   1.953   .     S
O491   Zn546   1.953   .     S
O492   Zn545   1.953   .     S
O493   Zn548   1.953   .     S
O494   Zn547   1.953   .     S
O494   C1086   1.281   .     S
O495   Zn550   1.953   .     S
O496   Zn549   1.953   .     S
O497   Zn544   1.953   .     S
O498   Zn543   1.953   .     S
O499   Zn538   1.953   .     S
O499   C1091   1.280   1_545 S
O500   Zn537   1.953   .     S
O501   Zn540   1.953   .     S
O502   Zn539   1.953   .     S
O503   Zn542   1.953   .     S
O503   C1091   1.281   1_545 S
O504   Zn541   1.953   .     S
O505   Zn548   1.935   .     S
O506   Zn547   1.935   .     S
O507   Zn550   1.937   .     S
O508   Zn549   1.937   .     S
O509   Zn552   1.936   .     S
O510   Zn551   1.936   .     S
O511   Zn546   1.937   .     S
O512   Zn545   1.937   .     S
O513   Zn547   1.937   .     S
O514   Zn548   1.937   .     S
O515   Zn545   1.936   .     S
O516   Zn546   1.936   .     S
O517   Zn551   1.937   .     S
O518   Zn552   1.937   .     S
O519   Zn549   1.935   .     S
O520   Zn550   1.935   .     S
O521   Zn192   1.935   1_655 S
O522   Zn539   1.935   .     S
O523   Zn1238  1.937   .     S
O524   Zn541   1.937   .     S
O525   Zn544   1.936   .     S
O526   Zn195   1.936   1_655 S
O527   Zn538   1.937   .     S
O528   Zn1233  1.937   .     S
O529   Zn191   1.937   1_655 S
O530   Zn540   1.937   .     S
O531   Zn537   1.936   .     S
O532   Zn1234  1.936   .     S
O533   Zn543   1.937   .     S
O534   Zn196   1.937   1_655 S
O535   Zn1237  1.935   .     S
O536   Zn542   1.935   .     S
Zn537  O1224   1.937   1_545 S
Zn538  O1228   1.936   1_545 S
Zn541  O1231   1.935   1_545 S
Zn542  O1219   1.937   1_545 S
Zn545  O140    1.949   1_655 S
Zn547  O1182   1.950   .     S
Zn550  O139    1.949   1_655 S
Zn552  O1181   1.949   .     S
N553   C555    1.448   .     S
N553   H554    1.031   .     S
C555   H558    1.112   .     S
C555   H557    1.110   .     S
C555   H556    1.110   .     S
N559   H560    1.030   .     S
N559   C561    1.448   .     S
C561   H563    1.111   .     S
C561   H562    1.110   .     S
C561   H564    1.110   .     S
N565   H566    1.031   .     S
N565   C567    1.448   .     S
C567   H570    1.110   .     S
C567   H568    1.110   .     S
C567   H569    1.112   .     S
N571   C573    1.447   .     S
N571   H572    1.030   .     S
C573   H576    1.110   .     S
C573   H575    1.111   .     S
C573   H574    1.111   .     S
N577   H578    1.030   .     S
N577   C579    1.447   .     S
C579   H582    1.110   .     S
C579   H581    1.111   .     S
C579   H580    1.111   .     S
N583   H584    1.029   .     S
N583   C585    1.449   .     S
C585   H586    1.109   .     S
C585   H588    1.110   .     S
C585   H587    1.110   .     S
N589   H590    1.030   .     S
N589   C591    1.448   .     S
C591   H594    1.110   .     S
C591   H592    1.110   .     S
C591   H593    1.111   .     S
N595   C597    1.449   .     S
N595   H596    1.029   .     S
C597   H598    1.109   .     S
C597   H600    1.111   .     S
C597   H599    1.110   .     S
N601   C603    1.448   .     S
N601   H602    1.030   .     S
C603   H605    1.110   .     S
C603   H606    1.111   .     S
C603   H604    1.110   .     S
N607   C609    1.448   .     S
N607   H608    1.031   .     S
C609   H612    1.110   .     S
C609   H610    1.110   .     S
C609   H611    1.113   .     S
N613   C615    1.448   .     S
N613   H614    1.030   .     S
C615   H617    1.110   .     S
C615   H618    1.111   .     S
C615   H616    1.111   .     S
N619   H620    1.030   .     S
N619   C621    1.448   .     S
C621   H624    1.110   .     S
C621   H622    1.111   .     S
C621   H623    1.111   .     S
N625   C627    1.449   .     S
N625   H626    1.029   .     S
C627   H629    1.110   .     S
C627   H628    1.109   .     S
C627   H630    1.111   .     S
N631   H632    1.030   .     S
N631   C633    1.447   .     S
C633   H635    1.110   .     S
C633   H634    1.111   .     S
C633   H1332   1.111   .     S
H636   C1329   1.111   1_545 S
N637   H638    1.030   .     S
N637   C639    1.447   .     S
C639   H640    1.111   .     S
C639   H642    1.110   .     S
C639   H293    1.111   1_655 S
N643   C645    1.447   .     S
N643   H644    1.030   .     S
C645   H647    1.110   .     S
C645   H646    1.111   .     S
H648   C297    1.111   1_655 S
C697   C797    1.406   .     A
C697   F1029   1.360   .     S
C697   C713    1.395   .     A
C698   F1030   1.360   .     S
C698   C798    1.407   .     A
C698   C1062   1.396   1_455 S
C699   C715    1.396   .     A
C699   C799    1.407   .     A
C699   F1031   1.360   .     S
C700   C800    1.407   .     A
C700   F1032   1.360   .     S
C700   C20     1.396   1_565 S
C701   F1033   1.359   .     S
C701   C793    1.408   .     A
C701   C1061   1.396   1_455 S
C702   F1034   1.360   .     S
C702   C794    1.407   .     A
C702   C714    1.397   .     A
C703   C795    1.407   .     A
C703   F1035   1.359   .     S
C703   C19     1.396   1_565 S
C704   C716    1.396   .     A
C704   F1036   1.360   .     S
C704   C796    1.406   .     A
C705   C717    1.396   .     A
C705   C805    1.407   .     A
C705   F1037   1.360   .     S
C706   C806    1.406   .     A
C706   F1038   1.360   .     S
C706   C22     1.395   1_565 S
C707   C807    1.406   .     A
C707   F1039   1.360   .     S
C707   C1067   1.395   .     S
C708   C808    1.406   .     A
C708   F1040   1.360   .     S
C708   C1068   1.395   1_455 S
C709   F1041   1.360   .     S
C709   C801    1.407   .     A
C709   C21     1.397   1_565 S
C710   C718    1.396   .     A
C710   F1042   1.359   .     S
C710   C802    1.408   .     A
C711   C803    1.407   .     A
C711   C719    1.396   .     A
C711   F1043   1.360   .     S
C712   F1044   1.360   .     S
C712   C720    1.396   .     A
C712   C804    1.407   .     A
C713   C739    1.462   .     S
C713   C1049   1.396   .     S
C714   C740    1.464   .     S
C714   C1046   1.396   .     S
C715   C737    1.464   .     S
C716   C738    1.462   .     S
C718   C744    1.462   .     S
C719   C741    1.462   .     S
C719   C1055   1.395   1_455 S
C720   C742    1.462   .     S
C720   C1056   1.395   .     S
C721   C793    1.417   .     A
C721   N901    1.427   .     S
C721   C726    1.409   .     A
C722   N907    1.427   .     S
C722   C794    1.417   .     A
C722   C725    1.408   .     A
C723   C795    1.417   .     A
C723   N913    1.426   .     S
C723   C728    1.409   .     A
C724   C727    1.408   .     A
C724   C796    1.416   .     A
C724   N919    1.427   .     S
C725   N925    1.427   .     S
C725   C797    1.416   .     A
C726   N931    1.429   .     S
C726   C798    1.417   .     A
C727   N937    1.427   .     S
C727   C799    1.417   .     A
C728   C800    1.416   .     A
C728   N943    1.429   .     S
C729   C801    1.416   .     A
C729   N949    1.427   .     S
C729   C734    1.408   1_556 S
C730   C802    1.416   .     A
C730   N955    1.426   .     S
C730   C733    1.409   1_554 S
C731   C803    1.416   .     A
C731   N961    1.427   .     S
C731   C736    1.408   1_556 S
C732   C804    1.416   .     A
C732   N967    1.427   .     S
C732   C735    1.408   1_554 S
C733   C805    1.416   .     A
C733   N973    1.429   .     S
C733   C730    1.409   1_556 S
C734   N979    1.427   .     S
C734   C806    1.415   .     A
C734   C729    1.408   1_554 S
C735   C807    1.416   .     A
C735   N985    1.427   .     S
C735   C732    1.408   1_556 S
C736   C808    1.416   .     A
C736   N991    1.427   .     S
C736   C731    1.408   1_554 S
C737   O841    1.281   .     S
C738   O838    1.280   .     A
C739   O843    1.280   .     A
C739   O1187   1.280   .     S
C740   O840    1.280   .     A
C740   O1192   1.281   .     S
C741   O849    1.281   .     A
C741   O845    1.280   .     A
C742   O1194   1.280   .     S
C742   O1198   1.281   .     S
C743   C21     1.464   1_565 S
C743   O151    1.280   1_565 S
C743   O155    1.281   1_565 S
C744   O852    1.280   .     A
C744   O848    1.281   .     A
C745   C811    1.454   .     S
C745   O879    1.282   .     A
C745   O853    1.282   .     A
C746   O880    1.282   .     A
C746   O854    1.282   .     A
C746   C812    1.454   .     S
C747   O877    1.282   .     A
C747   O855    1.282   .     A
C747   C813    1.456   .     S
C748   O878    1.282   .     A
C748   O856    1.282   .     A
C748   C814    1.456   .     S
C749   C815    1.454   .     S
C749   O883    1.282   .     A
C749   O857    1.282   .     A
C750   O884    1.282   .     A
C750   C816    1.454   .     S
C750   O858    1.282   .     A
C751   O859    1.282   .     A
C751   C809    1.456   .     S
C751   O881    1.282   .     A
C752   O860    1.282   .     A
C752   O882    1.282   .     A
C752   C810    1.456   .     S
C753   C819    1.456   .     S
C753   O861    1.282   .     A
C753   O871    1.282   .     A
C754   O862    1.282   .     A
C754   O872    1.282   .     A
C754   C820    1.456   .     S
C755   O863    1.282   .     A
C755   C821    1.454   .     S
C755   O869    1.282   .     A
C756   O870    1.282   .     A
C756   O864    1.282   .     A
C756   C822    1.454   .     S
C757   C823    1.456   .     S
C757   O875    1.282   .     A
C757   O865    1.282   .     A
C758   O866    1.282   .     A
C758   O876    1.282   .     A
C758   C824    1.456   .     S
C759   O867    1.282   .     A
C759   C817    1.454   .     S
C759   O873    1.282   .     A
C760   O868    1.282   .     A
C760   O874    1.282   .     A
C760   C818    1.454   .     S
C761   F997    1.358   .     S
C761   C824    1.404   .     A
C761   C776    1.386   .     A
C762   C775    1.387   .     A
C762   F998    1.358   .     S
C762   C823    1.404   .     A
C763   F999    1.359   .     S
C763   C822    1.404   .     A
C763   C774    1.386   .     A
C764   C773    1.386   .     A
C764   C821    1.404   .     A
C764   F1000   1.359   .     S
C765   C772    1.387   .     A
C765   C820    1.404   .     A
C765   F1001   1.359   .     S
C766   F1002   1.358   .     S
C766   C771    1.387   .     A
C766   C819    1.404   .     A
C767   C818    1.404   .     A
C767   F1003   1.359   .     S
C767   C770    1.386   .     A
C768   C769    1.386   .     A
C768   F1004   1.359   .     S
C768   C817    1.404   .     A
C769   F1005   1.359   .     S
C769   C816    1.404   .     A
C770   C815    1.404   .     A
C770   F1006   1.359   .     S
C771   F1007   1.359   .     S
C771   C814    1.404   .     A
C772   F1008   1.359   .     S
C772   C813    1.404   .     A
C773   C812    1.404   .     A
C773   F1009   1.359   .     S
C774   C811    1.404   .     A
C774   F1010   1.359   .     S
C775   F1011   1.359   .     S
C775   C810    1.404   .     A
C776   F1012   1.358   .     S
C776   C809    1.404   .     A
C777   C810    1.404   .     A
C777   C792    1.387   .     A
C777   F1013   1.358   .     S
C778   C791    1.386   .     A
C778   C809    1.404   .     A
C778   F1014   1.358   .     S
C779   C790    1.386   .     A
C779   C812    1.404   .     A
C779   F1015   1.359   .     S
C780   C789    1.386   .     A
C780   F1016   1.359   .     S
C780   C811    1.404   .     A
C781   F1017   1.359   .     S
C781   C788    1.387   .     A
C781   C814    1.404   .     A
C782   C813    1.404   .     A
C782   C787    1.387   .     A
C782   F1018   1.359   .     S
C783   F1019   1.359   .     S
C783   C786    1.386   .     A
C783   C816    1.404   .     A
C784   C815    1.404   .     A
C784   C785    1.386   .     A
C784   F1020   1.359   .     S
C785   C818    1.404   .     A
C785   F1021   1.359   .     S
C786   F1022   1.359   .     S
C786   C817    1.404   .     A
C787   F1023   1.358   .     S
C787   C820    1.404   .     A
C788   C819    1.404   .     A
C788   F1024   1.358   .     S
C789   C822    1.404   .     A
C789   F1025   1.359   .     S
C790   C821    1.404   .     A
C790   F1026   1.359   .     S
C791   C824    1.404   .     A
C791   F1027   1.358   .     S
C792   C823    1.404   .     A
C792   F1028   1.359   .     S
C793   C1173   1.422   1_455 S
C794   C826    1.422   .     A
C795   C131    1.422   1_565 S
C796   C828    1.421   .     A
C797   C825    1.421   .     A
C798   C1174   1.421   1_455 S
C799   C827    1.422   .     A
C800   C132    1.421   1_565 S
C801   C133    1.421   1_565 S
C802   C830    1.422   .     A
C803   C831    1.422   .     A
C804   C832    1.422   .     A
C805   C829    1.420   .     A
C806   C134    1.421   1_565 S
C807   C1179   1.421   .     S
C808   C1180   1.421   1_455 S
C825   C826    1.409   .     A
C825   C1141   1.422   .     S
C826   C1146   1.421   .     S
C827   C828    1.409   .     A
C829   C830    1.409   1_556 S
C830   C829    1.409   1_554 S
C831   C1155   1.421   1_455 S
C831   C1180   1.409   1_456 S
C832   C1156   1.421   .     S
C832   C1179   1.409   1_554 S
O833   Zn889   1.949   .     S
O833   Zn896   1.950   .     S
O833   Zn885   1.949   .     S
O834   Zn890   1.949   .     S
O834   Zn899   1.949   .     S
O834   Zn886   1.949   .     S
O835   Zn894   1.949   .     S
O835   Zn887   1.950   .     S
O835   Zn891   1.949   .     S
O835   Zn1246  1.949   1_455 S
O836   Zn888   1.950   .     S
O836   Zn897   1.949   .     S
O836   Zn892   1.949   .     S
O836   Zn1241  1.949   1_455 S
O837   Zn900   1.953   .     S
O837   C41     1.281   1_565 A
O838   Zn899   1.953   .     S
O839   Zn894   1.953   .     S
O839   C1087   1.280   1_455 S
O840   Zn893   1.953   .     S
O841   Zn896   1.953   .     S
O842   Zn895   1.953   .     S
O842   C42     1.281   1_565 S
O843   Zn898   1.953   .     S
O844   Zn897   1.953   .     S
O844   C1088   1.281   1_455 S
O845   Zn892   1.953   .     S
O846   C1090   1.280   1_455 S
O846   Zn891   1.953   .     S
O847   Zn886   1.953   .     S
O848   Zn885   1.953   .     S
O849   Zn888   1.953   .     S
O850   Zn887   1.953   .     S
O850   C1090   1.281   1_455 S
O851   Zn890   1.953   .     S
O852   Zn889   1.953   .     S
O853   Zn896   1.935   .     S
O854   Zn895   1.935   .     S
O855   Zn898   1.937   .     S
O856   Zn897   1.937   .     S
O857   Zn900   1.936   .     S
O858   Zn899   1.936   .     S
O859   Zn894   1.937   .     S
O860   Zn893   1.937   .     S
O861   Zn895   1.937   .     S
O862   Zn896   1.937   .     S
O863   Zn893   1.936   .     S
O864   Zn894   1.936   .     S
O865   Zn899   1.937   .     S
O866   Zn900   1.937   .     S
O867   Zn897   1.935   .     S
O868   Zn898   1.935   .     S
O869   Zn1236  1.935   .     S
O870   Zn887   1.935   .     S
O871   Zn194   1.937   1_565 S
O872   Zn889   1.937   .     S
O873   Zn892   1.936   .     S
O874   Zn1239  1.936   .     S
O875   Zn886   1.937   .     S
O876   Zn189   1.937   1_565 S
O877   Zn1235  1.937   .     S
O878   Zn888   1.937   .     S
O879   Zn885   1.936   .     S
O880   Zn190   1.936   1_565 S
O881   Zn891   1.937   .     S
O882   Zn1240  1.937   .     S
O883   Zn193   1.935   1_565 S
O884   Zn890   1.935   .     S
Zn887  O1225   1.937   1_455 S
Zn888  O1217   1.935   1_455 S
Zn891  O1222   1.936   1_455 S
Zn892  O1230   1.937   1_455 S
Zn893  O1184   1.949   .     S
Zn895  O138    1.950   1_565 S
Zn898  O1183   1.949   .     S
Zn900  O137    1.949   1_565 S
N901   C903    1.448   .     S
N901   H902    1.031   .     S
C903   H906    1.112   .     S
C903   H905    1.110   .     S
C903   H904    1.110   .     S
N907   H908    1.030   .     S
N907   C909    1.448   .     S
C909   H911    1.111   .     S
C909   H910    1.110   .     S
C909   H912    1.110   .     S
N913   H914    1.031   .     S
N913   C915    1.448   .     S
C915   H918    1.110   .     S
C915   H916    1.110   .     S
C915   H917    1.112   .     S
N919   C921    1.447   .     S
N919   H920    1.030   .     S
C921   H924    1.110   .     S
C921   H923    1.111   .     S
C921   H922    1.111   .     S
N925   H926    1.030   .     S
N925   C927    1.447   .     S
C927   H930    1.110   .     S
C927   H929    1.111   .     S
C927   H928    1.111   .     S
N931   H932    1.029   .     S
N931   C933    1.449   .     S
C933   H934    1.109   .     S
C933   H936    1.110   .     S
C933   H935    1.110   .     S
N937   H938    1.030   .     S
N937   C939    1.448   .     S
C939   H942    1.110   .     S
C939   H940    1.110   .     S
C939   H941    1.111   .     S
N943   C945    1.449   .     S
N943   H944    1.029   .     S
C945   H946    1.109   .     S
C945   H948    1.111   .     S
C945   H947    1.110   .     S
N949   C951    1.448   .     S
N949   H950    1.030   .     S
C951   H953    1.110   .     S
C951   H954    1.111   .     S
C951   H952    1.110   .     S
N955   C957    1.448   .     S
N955   H956    1.031   .     S
C957   H960    1.110   .     S
C957   H958    1.110   .     S
C957   H959    1.113   .     S
N961   C963    1.448   .     S
N961   H962    1.030   .     S
C963   H965    1.110   .     S
C963   H966    1.111   .     S
C963   H964    1.111   .     S
N967   H968    1.030   .     S
N967   C969    1.448   .     S
C969   H972    1.110   .     S
C969   H970    1.111   .     S
C969   H971    1.111   .     S
N973   C975    1.449   .     S
N973   H974    1.029   .     S
C975   H977    1.110   .     S
C975   H976    1.109   .     S
C975   H978    1.111   .     S
N979   H980    1.030   .     S
N979   C981    1.447   .     S
C981   H983    1.110   .     S
C981   H982    1.111   .     S
C981   H288    1.111   1_565 S
N985   H986    1.030   .     S
N985   C987    1.447   .     S
C987   H988    1.111   .     S
C987   H990    1.110   .     S
C987   H1337   1.111   .     S
H989   C1335   1.111   1_455 S
N991   C993    1.447   .     S
N991   H992    1.030   .     S
C993   H995    1.110   .     S
C993   H994    1.111   .     S
C993   H1344   1.111   1_455 S
H996   C1341   1.111   .     S
C1045  C1145   1.406   .     A
C1045  F1377   1.360   .     S
C1045  C1061   1.395   .     A
C1046  F1378   1.360   .     S
C1046  C1146   1.407   .     A
C1047  C1063   1.396   .     A
C1047  C1147   1.407   .     A
C1047  F1379   1.360   .     S
C1048  C1148   1.407   .     A
C1048  F1380   1.360   .     S
C1048  C368    1.396   1_565 S
C1049  F1381   1.359   .     S
C1049  C1141   1.408   .     A
C1050  F1382   1.360   .     S
C1050  C1142   1.407   .     A
C1050  C1062   1.397   .     A
C1051  C1143   1.407   .     A
C1051  F1383   1.359   .     S
C1051  C367    1.396   1_565 S
C1052  C1064   1.396   .     A
C1052  F1384   1.360   .     S
C1052  C1144   1.406   .     A
C1053  C1065   1.396   .     A
C1053  C1153   1.407   .     A
C1053  F1385   1.360   .     S
C1054  C1154   1.406   .     A
C1054  F1386   1.360   .     S
C1054  C370    1.395   1_565 S
C1055  C1155   1.406   .     A
C1055  F1387   1.360   .     S
C1055  C719    1.395   1_655 S
C1056  C1156   1.406   .     A
C1056  F1388   1.360   .     S
C1057  F1389   1.360   .     S
C1057  C1149   1.407   .     A
C1057  C369    1.397   1_565 S
C1058  C1066   1.396   .     A
C1058  F1390   1.359   .     S
C1058  C1150   1.408   .     A
C1059  C1151   1.407   .     A
C1059  C1067   1.396   .     A
C1059  F1391   1.360   .     S
C1060  F1392   1.360   .     S
C1060  C1068   1.396   .     A
C1060  C1152   1.407   .     A
C1061  C1087   1.462   .     S
C1061  C701    1.396   1_655 S
C1062  C1088   1.464   .     S
C1062  C698    1.396   1_655 S
C1063  C1085   1.464   .     S
C1064  C1086   1.462   .     S
C1066  C1092   1.462   .     S
C1067  C1089   1.462   .     S
C1068  C1090   1.462   .     S
C1068  C708    1.395   1_655 S
C1069  C1141   1.417   .     A
C1069  N1249   1.427   .     S
C1069  C1074   1.409   .     A
C1070  N1255   1.427   .     S
C1070  C1142   1.417   .     A
C1070  C1073   1.408   .     A
C1071  C1143   1.417   .     A
C1071  N1261   1.426   .     S
C1071  C1076   1.409   .     A
C1072  C1075   1.408   .     A
C1072  C1144   1.416   .     A
C1072  N1267   1.427   .     S
C1073  N1273   1.427   .     S
C1073  C1145   1.416   .     A
C1074  N1279   1.429   .     S
C1074  C1146   1.417   .     A
C1075  N1285   1.427   .     S
C1075  C1147   1.417   .     A
C1076  C1148   1.416   .     A
C1076  N1291   1.429   .     S
C1077  C1149   1.416   .     A
C1077  N1297   1.427   .     S
C1077  C1082   1.408   1_556 S
C1078  C1150   1.416   .     A
C1078  N1303   1.426   .     S
C1078  C1081   1.409   1_554 S
C1079  C1151   1.416   .     A
C1079  N1309   1.427   .     S
C1079  C1084   1.408   1_556 S
C1080  C1152   1.416   .     A
C1080  N1315   1.427   .     S
C1080  C1083   1.408   1_554 S
C1081  C1153   1.416   .     A
C1081  N1321   1.429   .     S
C1081  C1078   1.409   1_556 S
C1082  N1327   1.427   .     S
C1082  C1154   1.415   .     A
C1082  C1077   1.408   1_554 S
C1083  C1155   1.416   .     A
C1083  N1333   1.427   .     S
C1083  C1080   1.408   1_556 S
C1084  C1156   1.416   .     A
C1084  N1339   1.427   .     S
C1084  C1079   1.408   1_554 S
C1085  O1189   1.281   .     S
C1086  O1186   1.280   .     A
C1087  O1191   1.280   .     A
C1087  O839    1.280   1_655 S
C1088  O1188   1.280   .     A
C1088  O844    1.281   1_655 S
C1089  O1197   1.281   .     A
C1089  O1193   1.280   .     A
C1090  O846    1.280   1_655 S
C1090  O850    1.281   1_655 S
C1091  C369    1.464   1_565 S
C1091  O499    1.280   1_565 S
C1091  O503    1.281   1_565 S
C1092  O1200   1.280   .     A
C1092  O1196   1.281   .     A
C1093  C1159   1.454   .     S
C1093  O1227   1.282   .     A
C1093  O1201   1.282   .     A
C1094  O1228   1.282   .     A
C1094  O1202   1.282   .     A
C1094  C1160   1.454   .     S
C1095  O1225   1.282   .     A
C1095  O1203   1.282   .     A
C1095  C1161   1.456   .     S
C1096  O1226   1.282   .     A
C1096  O1204   1.282   .     A
C1096  C1162   1.456   .     S
C1097  C1163   1.454   .     S
C1097  O1231   1.282   .     A
C1097  O1205   1.282   .     A
C1098  O1232   1.282   .     A
C1098  C1164   1.454   .     S
C1098  O1206   1.282   .     A
C1099  O1207   1.282   .     A
C1099  C1157   1.456   .     S
C1099  O1229   1.282   .     A
C1100  O1208   1.282   .     A
C1100  O1230   1.282   .     A
C1100  C1158   1.456   .     S
C1101  C1167   1.456   .     S
C1101  O1209   1.282   .     A
C1101  O1219   1.282   .     A
C1102  O1210   1.282   .     A
C1102  O1220   1.282   .     A
C1102  C1168   1.456   .     S
C1103  O1211   1.282   .     A
C1103  C1169   1.454   .     S
C1103  O1217   1.282   .     A
C1104  O1218   1.282   .     A
C1104  O1212   1.282   .     A
C1104  C1170   1.454   .     S
C1105  C1171   1.456   .     S
C1105  O1223   1.282   .     A
C1105  O1213   1.282   .     A
C1106  O1214   1.282   .     A
C1106  O1224   1.282   .     A
C1106  C1172   1.456   .     S
C1107  O1215   1.282   .     A
C1107  C1165   1.454   .     S
C1107  O1221   1.282   .     A
C1108  O1216   1.282   .     A
C1108  O1222   1.282   .     A
C1108  C1166   1.454   .     S
C1109  F1345   1.358   .     S
C1109  C1172   1.404   .     A
C1109  C1124   1.386   .     A
C1110  C1123   1.387   .     A
C1110  F1346   1.358   .     S
C1110  C1171   1.404   .     A
C1111  F1347   1.359   .     S
C1111  C1170   1.404   .     A
C1111  C1122   1.386   .     A
C1112  C1121   1.386   .     A
C1112  C1169   1.404   .     A
C1112  F1348   1.359   .     S
C1113  C1120   1.387   .     A
C1113  C1168   1.404   .     A
C1113  F1349   1.359   .     S
C1114  F1350   1.358   .     S
C1114  C1119   1.387   .     A
C1114  C1167   1.404   .     A
C1115  C1166   1.404   .     A
C1115  F1351   1.359   .     S
C1115  C1118   1.386   .     A
C1116  C1117   1.386   .     A
C1116  F1352   1.359   .     S
C1116  C1165   1.404   .     A
C1117  F1353   1.359   .     S
C1117  C1164   1.404   .     A
C1118  C1163   1.404   .     A
C1118  F1354   1.359   .     S
C1119  F1355   1.359   .     S
C1119  C1162   1.404   .     A
C1120  F1356   1.359   .     S
C1120  C1161   1.404   .     A
C1121  C1160   1.404   .     A
C1121  F1357   1.359   .     S
C1122  C1159   1.404   .     A
C1122  F1358   1.359   .     S
C1123  F1359   1.359   .     S
C1123  C1158   1.404   .     A
C1124  F1360   1.358   .     S
C1124  C1157   1.404   .     A
C1125  C1158   1.404   .     A
C1125  C1140   1.387   .     A
C1125  F1361   1.358   .     S
C1126  C1139   1.386   .     A
C1126  C1157   1.404   .     A
C1126  F1362   1.358   .     S
C1127  C1138   1.386   .     A
C1127  C1160   1.404   .     A
C1127  F1363   1.359   .     S
C1128  C1137   1.386   .     A
C1128  F1364   1.359   .     S
C1128  C1159   1.404   .     A
C1129  F1365   1.359   .     S
C1129  C1136   1.387   .     A
C1129  C1162   1.404   .     A
C1130  C1161   1.404   .     A
C1130  C1135   1.387   .     A
C1130  F1366   1.359   .     S
C1131  F1367   1.359   .     S
C1131  C1134   1.386   .     A
C1131  C1164   1.404   .     A
C1132  C1163   1.404   .     A
C1132  C1133   1.386   .     A
C1132  F1368   1.359   .     S
C1133  C1166   1.404   .     A
C1133  F1369   1.359   .     S
C1134  F1370   1.359   .     S
C1134  C1165   1.404   .     A
C1135  F1371   1.358   .     S
C1135  C1168   1.404   .     A
C1136  C1167   1.404   .     A
C1136  F1372   1.358   .     S
C1137  C1170   1.404   .     A
C1137  F1373   1.359   .     S
C1138  C1169   1.404   .     A
C1138  F1374   1.359   .     S
C1139  C1172   1.404   .     A
C1139  F1375   1.358   .     S
C1140  C1171   1.404   .     A
C1140  F1376   1.359   .     S
C1142  C1174   1.422   .     A
C1143  C479    1.422   1_565 S
C1144  C1176   1.421   .     A
C1145  C1173   1.421   .     A
C1147  C1175   1.422   .     A
C1148  C480    1.421   1_565 S
C1149  C481    1.421   1_565 S
C1150  C1178   1.422   .     A
C1151  C1179   1.422   .     A
C1152  C1180   1.422   .     A
C1153  C1177   1.420   .     A
C1154  C482    1.421   1_565 S
C1155  C831    1.421   1_655 S
C1173  C1174   1.409   .     A
C1173  C793    1.422   1_655 S
C1174  C798    1.421   1_655 S
C1175  C1176   1.409   .     A
C1177  C1178   1.409   1_556 S
C1178  C1177   1.409   1_554 S
C1179  C832    1.409   1_556 S
C1180  C808    1.421   1_655 S
C1180  C831    1.409   1_654 S
O1181  Zn1237  1.949   .     S
O1181  Zn1244  1.950   .     S
O1181  Zn1233  1.949   .     S
O1182  Zn1238  1.949   .     S
O1182  Zn1247  1.949   .     S
O1182  Zn1234  1.949   .     S
O1183  Zn1242  1.949   .     S
O1183  Zn1235  1.950   .     S
O1183  Zn1239  1.949   .     S
O1184  Zn1236  1.950   .     S
O1184  Zn1245  1.949   .     S
O1184  Zn1240  1.949   .     S
O1185  Zn1248  1.953   .     S
O1185  C389    1.281   1_565 A
O1186  Zn1247  1.953   .     S
O1187  Zn1242  1.953   .     S
O1188  Zn1241  1.953   .     S
O1189  Zn1244  1.953   .     S
O1190  Zn1243  1.953   .     S
O1190  C390    1.281   1_565 S
O1191  Zn1246  1.953   .     S
O1192  Zn1245  1.953   .     S
O1193  Zn1240  1.953   .     S
O1194  Zn1239  1.953   .     S
O1195  Zn1234  1.953   .     S
O1196  Zn1233  1.953   .     S
O1197  Zn1236  1.953   .     S
O1198  Zn1235  1.953   .     S
O1199  Zn1238  1.953   .     S
O1200  Zn1237  1.953   .     S
O1201  Zn1244  1.935   .     S
O1202  Zn1243  1.935   .     S
O1203  Zn1246  1.937   .     S
O1204  Zn1245  1.937   .     S
O1205  Zn1248  1.936   .     S
O1206  Zn1247  1.936   .     S
O1207  Zn1242  1.937   .     S
O1208  Zn1241  1.937   .     S
O1209  Zn1243  1.937   .     S
O1210  Zn1244  1.937   .     S
O1211  Zn1241  1.936   .     S
O1212  Zn1242  1.936   .     S
O1213  Zn1247  1.937   .     S
O1214  Zn1248  1.937   .     S
O1215  Zn1245  1.935   .     S
O1216  Zn1246  1.935   .     S
O1217  Zn888   1.935   1_655 S
O1218  Zn1235  1.935   .     S
O1219  Zn542   1.937   1_565 S
O1220  Zn1237  1.937   .     S
O1221  Zn1240  1.936   .     S
O1222  Zn891   1.936   1_655 S
O1223  Zn1234  1.937   .     S
O1224  Zn537   1.937   1_565 S
O1225  Zn887   1.937   1_655 S
O1226  Zn1236  1.937   .     S
O1227  Zn1233  1.936   .     S
O1228  Zn538   1.936   1_565 S
O1229  Zn1239  1.937   .     S
O1230  Zn892   1.937   1_655 S
O1231  Zn541   1.935   1_565 S
O1232  Zn1238  1.935   .     S
Zn1241 O836    1.949   1_655 S
Zn1243 O486    1.950   1_565 S
Zn1246 O835    1.949   1_655 S
Zn1248 O485    1.949   1_565 S
N1249  C1251   1.448   .     S
N1249  H1250   1.031   .     S
C1251  H1254   1.112   .     S
C1251  H1253   1.110   .     S
C1251  H1252   1.110   .     S
N1255  H1256   1.030   .     S
N1255  C1257   1.448   .     S
C1257  H1259   1.111   .     S
C1257  H1258   1.110   .     S
C1257  H1260   1.110   .     S
N1261  H1262   1.031   .     S
N1261  C1263   1.448   .     S
C1263  H1266   1.110   .     S
C1263  H1264   1.110   .     S
C1263  H1265   1.112   .     S
N1267  C1269   1.447   .     S
N1267  H1268   1.030   .     S
C1269  H1272   1.110   .     S
C1269  H1271   1.111   .     S
C1269  H1270   1.111   .     S
N1273  H1274   1.030   .     S
N1273  C1275   1.447   .     S
C1275  H1278   1.110   .     S
C1275  H1277   1.111   .     S
C1275  H1276   1.111   .     S
N1279  H1280   1.029   .     S
N1279  C1281   1.449   .     S
C1281  H1282   1.109   .     S
C1281  H1284   1.110   .     S
C1281  H1283   1.110   .     S
N1285  H1286   1.030   .     S
N1285  C1287   1.448   .     S
C1287  H1290   1.110   .     S
C1287  H1288   1.110   .     S
C1287  H1289   1.111   .     S
N1291  C1293   1.449   .     S
N1291  H1292   1.029   .     S
C1293  H1294   1.109   .     S
C1293  H1296   1.111   .     S
C1293  H1295   1.110   .     S
N1297  C1299   1.448   .     S
N1297  H1298   1.030   .     S
C1299  H1301   1.110   .     S
C1299  H1302   1.111   .     S
C1299  H1300   1.110   .     S
N1303  C1305   1.448   .     S
N1303  H1304   1.031   .     S
C1305  H1308   1.110   .     S
C1305  H1306   1.110   .     S
C1305  H1307   1.113   .     S
N1309  C1311   1.448   .     S
N1309  H1310   1.030   .     S
C1311  H1313   1.110   .     S
C1311  H1314   1.111   .     S
C1311  H1312   1.111   .     S
N1315  H1316   1.030   .     S
N1315  C1317   1.448   .     S
C1317  H1320   1.110   .     S
C1317  H1318   1.111   .     S
C1317  H1319   1.111   .     S
N1321  C1323   1.449   .     S
N1321  H1322   1.029   .     S
C1323  H1325   1.110   .     S
C1323  H1324   1.109   .     S
C1323  H1326   1.111   .     S
N1327  H1328   1.030   .     S
N1327  C1329   1.447   .     S
C1329  H1331   1.110   .     S
C1329  H1330   1.111   .     S
C1329  H636    1.111   1_565 S
N1333  H1334   1.030   .     S
N1333  C1335   1.447   .     S
C1335  H1336   1.111   .     S
C1335  H1338   1.110   .     S
C1335  H989    1.111   1_655 S
N1339  C1341   1.447   .     S
N1339  H1340   1.030   .     S
C1341  H1343   1.110   .     S
C1341  H1342   1.111   .     S
H1344  C993    1.111   1_655 S
