data_str_m2_o2_o10_pcu_sym.120
_audit_creation_date              2020-01-03
_audit_creation_method            'Materials Studio'
_symmetry_space_group_name_H-M    'P1'
_symmetry_Int_Tables_number       1
_symmetry_cell_setting            triclinic
loop_
_symmetry_equiv_pos_as_xyz
  x,y,z
_cell_length_a                    26.1866
_cell_length_b                    30.1908
_cell_length_c                    27.9227
_cell_angle_alpha                 88.8636
_cell_angle_beta                  96.8855
_cell_angle_gamma                 92.7523
loop_
_atom_site_label
_atom_site_type_symbol
_atom_site_fract_x
_atom_site_fract_y
_atom_site_fract_z
_atom_site_U_iso_or_equiv
_atom_site_adp_type
_atom_site_occupancy
C1     C     0.16686   0.16512   0.25030   0.00000  Uiso   1.00
C2     C     0.17729   0.29275   0.44490   0.00000  Uiso   1.00
C3     C     0.15977   0.25420   0.02640   0.00000  Uiso   1.00
C4     C     0.16095   0.25546   0.47215   0.00000  Uiso   1.00
C5     C     0.06812   0.24842   0.23807   0.00000  Uiso   1.00
C6     C     0.26519   0.24999   0.26211   0.00000  Uiso   1.00
C7     C     0.01323   0.24236   0.23273   0.00000  Uiso   1.00
C8     C     0.32018   0.25363   0.26843   0.00000  Uiso   1.00
C9     C     0.20028   0.04847   0.28372   0.00000  Uiso   1.00
C10    C     0.17340   0.45393   0.20686   0.00000  Uiso   1.00
C11    C     0.20003   0.09450   0.28441   0.00000  Uiso   1.00
C12    C     0.16652   0.33509   0.24964   0.00000  Uiso   1.00
C13    C     0.17294   0.40784   0.20677   0.00000  Uiso   1.00
C14    C     0.16681   0.11703   0.25039   0.00000  Uiso   1.00
C15    C     0.16651   0.38357   0.24916   0.00000  Uiso   1.00
C16    C     0.13450   0.09352   0.21512   0.00000  Uiso   1.00
C17    C     0.16022   0.40598   0.29149   0.00000  Uiso   1.00
C18    C     0.13440   0.04748   0.21452   0.00000  Uiso   1.00
C19    C     0.16036   0.45200   0.29154   0.00000  Uiso   1.00
C20    C     0.16728   0.02472   0.24900   0.00000  Uiso   1.00
C21    C     0.16706   0.47621   0.24918   0.00000  Uiso   1.00
C22    C     0.20370   0.26897   0.05546   0.00000  Uiso   1.00
C23    C     0.14879   0.21642   0.44722   0.00000  Uiso   1.00
C24    C     0.20514   0.27142   0.10573   0.00000  Uiso   1.00
C25    C     0.14655   0.21476   0.39681   0.00000  Uiso   1.00
C26    C     0.12422   0.23231   0.10158   0.00000  Uiso   1.00
C27    C     0.18238   0.28810   0.39512   0.00000  Uiso   1.00
C28    C     0.11825   0.23617   0.05038   0.00000  Uiso   1.00
Cu29   Cu    0.16667   0.24999   0.29821   0.00000  Uiso   1.00
Cu30   Cu    0.16667   0.25000   0.20178   0.00000  Uiso   1.00
F31    F     0.32326   0.22146   0.19258   0.00000  Uiso   1.00
F32    F     0.01033   0.27133   0.31042   0.00000  Uiso   1.00
F33    F     0.10142   0.02516   0.18117   0.00000  Uiso   1.00
F34    F     0.15282   0.47280   0.33262   0.00000  Uiso   1.00
H35    H     0.22644   0.03137   0.31002   0.00000  Uiso   1.00
H36    H     0.19715   0.31622   0.37571   0.00000  Uiso   1.00
H37    H     0.28873   0.34455   0.19417   0.00000  Uiso   1.00
H38    H     0.06495   0.14351   0.30877   0.00000  Uiso   1.00
H39    H     0.01490   0.23598   0.44984   0.00000  Uiso   1.00
H40    H     0.16682   0.38079   0.03078   0.00000  Uiso   1.00
H41    H     0.17908   0.47226   0.17402   0.00000  Uiso   1.00
H42    H     0.22618   0.11254   0.31096   0.00000  Uiso   1.00
H43    H     0.17797   0.39132   0.17369   0.00000  Uiso   1.00
H44    H     0.10880   0.11082   0.18857   0.00000  Uiso   1.00
H45    H     0.15476   0.38796   0.32455   0.00000  Uiso   1.00
H46    H     0.23660   0.28151   0.03841   0.00000  Uiso   1.00
H47    H     0.13876   0.18700   0.46744   0.00000  Uiso   1.00
H48    H     0.09324   0.21690   0.11920   0.00000  Uiso   1.00
N49    N     0.16667   0.25001   0.12934   0.00000  Uiso   1.00
N50    N     0.16667   0.24999   0.37065   0.00000  Uiso   1.00
O51    O     0.16667   0.18572   0.29071   0.00000  Uiso   1.00
O52    O     0.25760   0.34814   0.09820   0.00000  Uiso   1.00
O53    O     0.25570   0.32726   0.18675   0.00000  Uiso   1.00
O54    O     0.15324   0.13221   0.36609   0.00000  Uiso   1.00
O55    O     0.07945   0.14614   0.40762   0.00000  Uiso   1.00
O56    O     0.07640   0.17362   0.32023   0.00000  Uiso   1.00
O57    O     0.05553   0.17216   0.00841   0.00000  Uiso   1.00
O58    O     0.01581   0.22955   0.05003   0.00000  Uiso   1.00
O59    O     0.04660   0.25003   0.46717   0.00000  Uiso   1.00
O60    O     0.24502   0.35303   0.48717   0.00000  Uiso   1.00
O61    O     0.17389   0.38070   0.43161   0.00000  Uiso   1.00
O62    O     0.16666   0.31427   0.20928   0.00000  Uiso   1.00
O63    O     0.15390   0.35225   0.01595   0.00000  Uiso   1.00
O64    O     0.16667   0.18573   0.20928   0.00000  Uiso   1.00
O65    O     0.16666   0.31427   0.29072   0.00000  Uiso   1.00
O66    O     0.09161   0.24999   0.28132   0.00000  Uiso   1.00
O67    O     0.24172   0.25000   0.21868   0.00000  Uiso   1.00
O68    O     0.09161   0.25000   0.19988   0.00000  Uiso   1.00
O69    O     0.24172   0.25000   0.30011   0.00000  Uiso   1.00
O70    O     0.30626   0.28543   0.12919   0.00000  Uiso   1.00
S71    S     0.25676   0.30809   0.13103   0.00000  Uiso   1.00
S72    S     0.11391   0.16552   0.37242   0.00000  Uiso   1.00
S73    S     0.05731   0.22084   0.01906   0.00000  Uiso   1.00
S74    S     0.18867   0.34629   0.46978   0.00000  Uiso   1.00
C75    C     0.50019   0.16512   0.25030   0.00000  Uiso   1.00
C76    C     0.51062   0.29275   0.44490   0.00000  Uiso   1.00
C77    C     0.49310   0.25420   0.02640   0.00000  Uiso   1.00
C78    C     0.49428   0.25546   0.47215   0.00000  Uiso   1.00
C79    C     0.40145   0.24842   0.23807   0.00000  Uiso   1.00
C80    C     0.59852   0.24999   0.26211   0.00000  Uiso   1.00
C81    C     0.34656   0.24236   0.23273   0.00000  Uiso   1.00
C82    C     0.65351   0.25363   0.26843   0.00000  Uiso   1.00
C83    C     0.53361   0.04847   0.28372   0.00000  Uiso   1.00
C84    C     0.50674   0.45393   0.20686   0.00000  Uiso   1.00
C85    C     0.53336   0.09450   0.28441   0.00000  Uiso   1.00
C86    C     0.49985   0.33509   0.24964   0.00000  Uiso   1.00
C87    C     0.50628   0.40784   0.20677   0.00000  Uiso   1.00
C88    C     0.50015   0.11703   0.25039   0.00000  Uiso   1.00
C89    C     0.49985   0.38357   0.24916   0.00000  Uiso   1.00
C90    C     0.46783   0.09352   0.21512   0.00000  Uiso   1.00
C91    C     0.49356   0.40598   0.29149   0.00000  Uiso   1.00
C92    C     0.46773   0.04748   0.21452   0.00000  Uiso   1.00
C93    C     0.49369   0.45200   0.29154   0.00000  Uiso   1.00
C94    C     0.50061   0.02472   0.24900   0.00000  Uiso   1.00
C95    C     0.50039   0.47621   0.24918   0.00000  Uiso   1.00
C96    C     0.53703   0.26897   0.05546   0.00000  Uiso   1.00
C97    C     0.48212   0.21642   0.44722   0.00000  Uiso   1.00
C98    C     0.53847   0.27142   0.10573   0.00000  Uiso   1.00
C99    C     0.47988   0.21476   0.39681   0.00000  Uiso   1.00
C100   C     0.45756   0.23231   0.10158   0.00000  Uiso   1.00
C101   C     0.51572   0.28810   0.39512   0.00000  Uiso   1.00
C102   C     0.45158   0.23617   0.05038   0.00000  Uiso   1.00
Cu103  Cu    0.50000   0.24999   0.29821   0.00000  Uiso   1.00
Cu104  Cu    0.50000   0.25000   0.20178   0.00000  Uiso   1.00
F105   F     0.65660   0.22146   0.19258   0.00000  Uiso   1.00
F106   F     0.34366   0.27133   0.31042   0.00000  Uiso   1.00
F107   F     0.43475   0.02516   0.18117   0.00000  Uiso   1.00
F108   F     0.48615   0.47280   0.33262   0.00000  Uiso   1.00
H109   H     0.55978   0.03137   0.31002   0.00000  Uiso   1.00
H110   H     0.53049   0.31622   0.37571   0.00000  Uiso   1.00
H111   H     0.62206   0.34455   0.19417   0.00000  Uiso   1.00
H112   H     0.39828   0.14351   0.30877   0.00000  Uiso   1.00
H113   H     0.34823   0.23598   0.44984   0.00000  Uiso   1.00
H114   H     0.50015   0.38079   0.03078   0.00000  Uiso   1.00
H115   H     0.51241   0.47226   0.17402   0.00000  Uiso   1.00
H116   H     0.55951   0.11254   0.31096   0.00000  Uiso   1.00
H117   H     0.51130   0.39132   0.17369   0.00000  Uiso   1.00
H118   H     0.44213   0.11082   0.18857   0.00000  Uiso   1.00
H119   H     0.48810   0.38796   0.32455   0.00000  Uiso   1.00
H120   H     0.56993   0.28151   0.03841   0.00000  Uiso   1.00
H121   H     0.47210   0.18700   0.46744   0.00000  Uiso   1.00
H122   H     0.42657   0.21690   0.11920   0.00000  Uiso   1.00
N123   N     0.50000   0.25001   0.12934   0.00000  Uiso   1.00
N124   N     0.50000   0.24999   0.37065   0.00000  Uiso   1.00
O125   O     0.50000   0.18572   0.29071   0.00000  Uiso   1.00
O126   O     0.59093   0.34814   0.09820   0.00000  Uiso   1.00
O127   O     0.58904   0.32726   0.18675   0.00000  Uiso   1.00
O128   O     0.48657   0.13221   0.36609   0.00000  Uiso   1.00
O129   O     0.41278   0.14614   0.40762   0.00000  Uiso   1.00
O130   O     0.40973   0.17362   0.32023   0.00000  Uiso   1.00
O131   O     0.38887   0.17216   0.00841   0.00000  Uiso   1.00
O132   O     0.34914   0.22955   0.05003   0.00000  Uiso   1.00
O133   O     0.37994   0.25003   0.46717   0.00000  Uiso   1.00
O134   O     0.57835   0.35303   0.48717   0.00000  Uiso   1.00
O135   O     0.50723   0.38070   0.43161   0.00000  Uiso   1.00
O136   O     0.50000   0.31427   0.20928   0.00000  Uiso   1.00
O137   O     0.48723   0.35225   0.01595   0.00000  Uiso   1.00
O138   O     0.50000   0.18573   0.20928   0.00000  Uiso   1.00
O139   O     0.50000   0.31427   0.29072   0.00000  Uiso   1.00
O140   O     0.42495   0.24999   0.28132   0.00000  Uiso   1.00
O141   O     0.57505   0.25000   0.21868   0.00000  Uiso   1.00
O142   O     0.42495   0.25000   0.19988   0.00000  Uiso   1.00
O143   O     0.57505   0.25000   0.30011   0.00000  Uiso   1.00
O144   O     0.63959   0.28543   0.12919   0.00000  Uiso   1.00
S145   S     0.59009   0.30809   0.13103   0.00000  Uiso   1.00
S146   S     0.44725   0.16552   0.37242   0.00000  Uiso   1.00
S147   S     0.39064   0.22084   0.01906   0.00000  Uiso   1.00
S148   S     0.52200   0.34629   0.46978   0.00000  Uiso   1.00
C149   C     0.83352   0.16512   0.25030   0.00000  Uiso   1.00
C150   C     0.84396   0.29275   0.44490   0.00000  Uiso   1.00
C151   C     0.82644   0.25420   0.02640   0.00000  Uiso   1.00
C152   C     0.82762   0.25546   0.47215   0.00000  Uiso   1.00
C153   C     0.73479   0.24842   0.23807   0.00000  Uiso   1.00
C154   C     0.93185   0.24999   0.26211   0.00000  Uiso   1.00
C155   C     0.67990   0.24236   0.23273   0.00000  Uiso   1.00
C156   C     0.98684   0.25363   0.26843   0.00000  Uiso   1.00
C157   C     0.86695   0.04847   0.28372   0.00000  Uiso   1.00
C158   C     0.84007   0.45393   0.20686   0.00000  Uiso   1.00
C159   C     0.86670   0.09450   0.28441   0.00000  Uiso   1.00
C160   C     0.83318   0.33509   0.24964   0.00000  Uiso   1.00
C161   C     0.83961   0.40784   0.20677   0.00000  Uiso   1.00
C162   C     0.83348   0.11703   0.25039   0.00000  Uiso   1.00
C163   C     0.83318   0.38357   0.24916   0.00000  Uiso   1.00
C164   C     0.80116   0.09352   0.21512   0.00000  Uiso   1.00
C165   C     0.82689   0.40598   0.29149   0.00000  Uiso   1.00
C166   C     0.80107   0.04748   0.21452   0.00000  Uiso   1.00
C167   C     0.82703   0.45200   0.29154   0.00000  Uiso   1.00
C168   C     0.83394   0.02472   0.24900   0.00000  Uiso   1.00
C169   C     0.83372   0.47621   0.24918   0.00000  Uiso   1.00
C170   C     0.87037   0.26897   0.05546   0.00000  Uiso   1.00
C171   C     0.81546   0.21642   0.44722   0.00000  Uiso   1.00
C172   C     0.87181   0.27142   0.10573   0.00000  Uiso   1.00
C173   C     0.81322   0.21476   0.39681   0.00000  Uiso   1.00
C174   C     0.79089   0.23231   0.10158   0.00000  Uiso   1.00
C175   C     0.84905   0.28810   0.39512   0.00000  Uiso   1.00
C176   C     0.78492   0.23617   0.05038   0.00000  Uiso   1.00
Cu177  Cu    0.83333   0.24999   0.29821   0.00000  Uiso   1.00
Cu178  Cu    0.83333   0.25000   0.20178   0.00000  Uiso   1.00
F179   F     0.98993   0.22146   0.19258   0.00000  Uiso   1.00
F180   F     0.67699   0.27133   0.31042   0.00000  Uiso   1.00
F181   F     0.76808   0.02516   0.18117   0.00000  Uiso   1.00
F182   F     0.81949   0.47280   0.33262   0.00000  Uiso   1.00
H183   H     0.89311   0.03137   0.31002   0.00000  Uiso   1.00
H184   H     0.86382   0.31622   0.37571   0.00000  Uiso   1.00
H185   H     0.95540   0.34455   0.19417   0.00000  Uiso   1.00
H186   H     0.73161   0.14351   0.30877   0.00000  Uiso   1.00
H187   H     0.68157   0.23598   0.44984   0.00000  Uiso   1.00
H188   H     0.83348   0.38079   0.03078   0.00000  Uiso   1.00
H189   H     0.84574   0.47226   0.17402   0.00000  Uiso   1.00
H190   H     0.89284   0.11254   0.31096   0.00000  Uiso   1.00
H191   H     0.84463   0.39132   0.17369   0.00000  Uiso   1.00
H192   H     0.77546   0.11082   0.18857   0.00000  Uiso   1.00
H193   H     0.82143   0.38796   0.32455   0.00000  Uiso   1.00
H194   H     0.90326   0.28151   0.03841   0.00000  Uiso   1.00
H195   H     0.80543   0.18700   0.46744   0.00000  Uiso   1.00
H196   H     0.75990   0.21690   0.11920   0.00000  Uiso   1.00
N197   N     0.83333   0.25001   0.12934   0.00000  Uiso   1.00
N198   N     0.83333   0.24999   0.37065   0.00000  Uiso   1.00
O199   O     0.83334   0.18572   0.29071   0.00000  Uiso   1.00
O200   O     0.92427   0.34814   0.09820   0.00000  Uiso   1.00
O201   O     0.92237   0.32726   0.18675   0.00000  Uiso   1.00
O202   O     0.81990   0.13221   0.36609   0.00000  Uiso   1.00
O203   O     0.74611   0.14614   0.40762   0.00000  Uiso   1.00
O204   O     0.74307   0.17362   0.32023   0.00000  Uiso   1.00
O205   O     0.72220   0.17216   0.00841   0.00000  Uiso   1.00
O206   O     0.68247   0.22955   0.05003   0.00000  Uiso   1.00
O207   O     0.71327   0.25003   0.46717   0.00000  Uiso   1.00
O208   O     0.91169   0.35303   0.48717   0.00000  Uiso   1.00
O209   O     0.84056   0.38070   0.43161   0.00000  Uiso   1.00
O210   O     0.83333   0.31427   0.20928   0.00000  Uiso   1.00
O211   O     0.82056   0.35225   0.01595   0.00000  Uiso   1.00
O212   O     0.83334   0.18573   0.20928   0.00000  Uiso   1.00
O213   O     0.83333   0.31427   0.29072   0.00000  Uiso   1.00
O214   O     0.75828   0.24999   0.28132   0.00000  Uiso   1.00
O215   O     0.90839   0.25000   0.21868   0.00000  Uiso   1.00
O216   O     0.75828   0.25000   0.19988   0.00000  Uiso   1.00
O217   O     0.90839   0.25000   0.30011   0.00000  Uiso   1.00
O218   O     0.97292   0.28543   0.12919   0.00000  Uiso   1.00
S219   S     0.92342   0.30809   0.13103   0.00000  Uiso   1.00
S220   S     0.78058   0.16552   0.37242   0.00000  Uiso   1.00
S221   S     0.72398   0.22084   0.01906   0.00000  Uiso   1.00
S222   S     0.85533   0.34629   0.46978   0.00000  Uiso   1.00
C223   C     0.16686   0.66512   0.25030   0.00000  Uiso   1.00
C224   C     0.17729   0.79275   0.44490   0.00000  Uiso   1.00
C225   C     0.15977   0.75420   0.02640   0.00000  Uiso   1.00
C226   C     0.16095   0.75546   0.47215   0.00000  Uiso   1.00
C227   C     0.06812   0.74842   0.23807   0.00000  Uiso   1.00
C228   C     0.26519   0.74999   0.26211   0.00000  Uiso   1.00
C229   C     0.01323   0.74236   0.23273   0.00000  Uiso   1.00
C230   C     0.32018   0.75363   0.26843   0.00000  Uiso   1.00
C231   C     0.20028   0.54847   0.28372   0.00000  Uiso   1.00
C232   C     0.17340   0.95393   0.20686   0.00000  Uiso   1.00
C233   C     0.20003   0.59450   0.28441   0.00000  Uiso   1.00
C234   C     0.16652   0.83509   0.24964   0.00000  Uiso   1.00
C235   C     0.17294   0.90784   0.20677   0.00000  Uiso   1.00
C236   C     0.16681   0.61703   0.25039   0.00000  Uiso   1.00
C237   C     0.16651   0.88357   0.24916   0.00000  Uiso   1.00
C238   C     0.13450   0.59352   0.21512   0.00000  Uiso   1.00
C239   C     0.16022   0.90598   0.29149   0.00000  Uiso   1.00
C240   C     0.13440   0.54748   0.21452   0.00000  Uiso   1.00
C241   C     0.16036   0.95200   0.29154   0.00000  Uiso   1.00
C242   C     0.16728   0.52472   0.24900   0.00000  Uiso   1.00
C243   C     0.16706   0.97621   0.24918   0.00000  Uiso   1.00
C244   C     0.20370   0.76897   0.05546   0.00000  Uiso   1.00
C245   C     0.14879   0.71642   0.44722   0.00000  Uiso   1.00
C246   C     0.20514   0.77142   0.10573   0.00000  Uiso   1.00
C247   C     0.14655   0.71476   0.39681   0.00000  Uiso   1.00
C248   C     0.12422   0.73231   0.10158   0.00000  Uiso   1.00
C249   C     0.18238   0.78810   0.39512   0.00000  Uiso   1.00
C250   C     0.11825   0.73617   0.05038   0.00000  Uiso   1.00
Cu251  Cu    0.16667   0.74999   0.29821   0.00000  Uiso   1.00
Cu252  Cu    0.16667   0.75000   0.20178   0.00000  Uiso   1.00
F253   F     0.32326   0.72146   0.19258   0.00000  Uiso   1.00
F254   F     0.01033   0.77133   0.31042   0.00000  Uiso   1.00
F255   F     0.10142   0.52516   0.18117   0.00000  Uiso   1.00
F256   F     0.15282   0.97280   0.33262   0.00000  Uiso   1.00
H257   H     0.22644   0.53137   0.31002   0.00000  Uiso   1.00
H258   H     0.19715   0.81622   0.37571   0.00000  Uiso   1.00
H259   H     0.28873   0.84455   0.19417   0.00000  Uiso   1.00
H260   H     0.06495   0.64351   0.30877   0.00000  Uiso   1.00
H261   H     0.01490   0.73598   0.44984   0.00000  Uiso   1.00
H262   H     0.16682   0.88079   0.03078   0.00000  Uiso   1.00
H263   H     0.17908   0.97226   0.17402   0.00000  Uiso   1.00
H264   H     0.22618   0.61254   0.31096   0.00000  Uiso   1.00
H265   H     0.17797   0.89132   0.17369   0.00000  Uiso   1.00
H266   H     0.10880   0.61082   0.18857   0.00000  Uiso   1.00
H267   H     0.15476   0.88796   0.32455   0.00000  Uiso   1.00
H268   H     0.23660   0.78151   0.03841   0.00000  Uiso   1.00
H269   H     0.13876   0.68700   0.46744   0.00000  Uiso   1.00
H270   H     0.09324   0.71690   0.11920   0.00000  Uiso   1.00
N271   N     0.16667   0.75001   0.12934   0.00000  Uiso   1.00
N272   N     0.16667   0.74999   0.37065   0.00000  Uiso   1.00
O273   O     0.16667   0.68572   0.29071   0.00000  Uiso   1.00
O274   O     0.25760   0.84814   0.09820   0.00000  Uiso   1.00
O275   O     0.25570   0.82726   0.18675   0.00000  Uiso   1.00
O276   O     0.15324   0.63221   0.36609   0.00000  Uiso   1.00
O277   O     0.07945   0.64614   0.40762   0.00000  Uiso   1.00
O278   O     0.07640   0.67362   0.32023   0.00000  Uiso   1.00
O279   O     0.05553   0.67216   0.00841   0.00000  Uiso   1.00
O280   O     0.01581   0.72955   0.05003   0.00000  Uiso   1.00
O281   O     0.04660   0.75003   0.46717   0.00000  Uiso   1.00
O282   O     0.24502   0.85303   0.48717   0.00000  Uiso   1.00
O283   O     0.17389   0.88070   0.43161   0.00000  Uiso   1.00
O284   O     0.16666   0.81427   0.20928   0.00000  Uiso   1.00
O285   O     0.15390   0.85225   0.01595   0.00000  Uiso   1.00
O286   O     0.16667   0.68573   0.20928   0.00000  Uiso   1.00
O287   O     0.16666   0.81427   0.29072   0.00000  Uiso   1.00
O288   O     0.09161   0.74999   0.28132   0.00000  Uiso   1.00
O289   O     0.24172   0.75000   0.21868   0.00000  Uiso   1.00
O290   O     0.09161   0.75000   0.19988   0.00000  Uiso   1.00
O291   O     0.24172   0.75000   0.30011   0.00000  Uiso   1.00
O292   O     0.30626   0.78543   0.12919   0.00000  Uiso   1.00
S293   S     0.25676   0.80809   0.13103   0.00000  Uiso   1.00
S294   S     0.11391   0.66552   0.37242   0.00000  Uiso   1.00
S295   S     0.05731   0.72084   0.01906   0.00000  Uiso   1.00
S296   S     0.18867   0.84629   0.46978   0.00000  Uiso   1.00
C297   C     0.50019   0.66512   0.25030   0.00000  Uiso   1.00
C298   C     0.51062   0.79275   0.44490   0.00000  Uiso   1.00
C299   C     0.49310   0.75420   0.02640   0.00000  Uiso   1.00
C300   C     0.49428   0.75546   0.47215   0.00000  Uiso   1.00
C301   C     0.40145   0.74842   0.23807   0.00000  Uiso   1.00
C302   C     0.59852   0.74999   0.26211   0.00000  Uiso   1.00
C303   C     0.34656   0.74236   0.23273   0.00000  Uiso   1.00
C304   C     0.65351   0.75363   0.26843   0.00000  Uiso   1.00
C305   C     0.53361   0.54847   0.28372   0.00000  Uiso   1.00
C306   C     0.50674   0.95393   0.20686   0.00000  Uiso   1.00
C307   C     0.53336   0.59450   0.28441   0.00000  Uiso   1.00
C308   C     0.49985   0.83509   0.24964   0.00000  Uiso   1.00
C309   C     0.50628   0.90784   0.20677   0.00000  Uiso   1.00
C310   C     0.50015   0.61703   0.25039   0.00000  Uiso   1.00
C311   C     0.49985   0.88357   0.24916   0.00000  Uiso   1.00
C312   C     0.46783   0.59352   0.21512   0.00000  Uiso   1.00
C313   C     0.49356   0.90598   0.29149   0.00000  Uiso   1.00
C314   C     0.46773   0.54748   0.21452   0.00000  Uiso   1.00
C315   C     0.49369   0.95200   0.29154   0.00000  Uiso   1.00
C316   C     0.50061   0.52472   0.24900   0.00000  Uiso   1.00
C317   C     0.50039   0.97621   0.24918   0.00000  Uiso   1.00
C318   C     0.53703   0.76897   0.05546   0.00000  Uiso   1.00
C319   C     0.48212   0.71642   0.44722   0.00000  Uiso   1.00
C320   C     0.53847   0.77142   0.10573   0.00000  Uiso   1.00
C321   C     0.47988   0.71476   0.39681   0.00000  Uiso   1.00
C322   C     0.45756   0.73231   0.10158   0.00000  Uiso   1.00
C323   C     0.51572   0.78810   0.39512   0.00000  Uiso   1.00
C324   C     0.45158   0.73617   0.05038   0.00000  Uiso   1.00
Cu325  Cu    0.50000   0.74999   0.29821   0.00000  Uiso   1.00
Cu326  Cu    0.50000   0.75000   0.20178   0.00000  Uiso   1.00
F327   F     0.65660   0.72146   0.19258   0.00000  Uiso   1.00
F328   F     0.34366   0.77133   0.31042   0.00000  Uiso   1.00
F329   F     0.43475   0.52516   0.18117   0.00000  Uiso   1.00
F330   F     0.48615   0.97280   0.33262   0.00000  Uiso   1.00
H331   H     0.55978   0.53137   0.31002   0.00000  Uiso   1.00
H332   H     0.53049   0.81622   0.37571   0.00000  Uiso   1.00
H333   H     0.62206   0.84455   0.19417   0.00000  Uiso   1.00
H334   H     0.39828   0.64351   0.30877   0.00000  Uiso   1.00
H335   H     0.34823   0.73598   0.44984   0.00000  Uiso   1.00
H336   H     0.50015   0.88079   0.03078   0.00000  Uiso   1.00
H337   H     0.51241   0.97226   0.17402   0.00000  Uiso   1.00
H338   H     0.55951   0.61254   0.31096   0.00000  Uiso   1.00
H339   H     0.51130   0.89132   0.17369   0.00000  Uiso   1.00
H340   H     0.44213   0.61082   0.18857   0.00000  Uiso   1.00
H341   H     0.48810   0.88796   0.32455   0.00000  Uiso   1.00
H342   H     0.56993   0.78151   0.03841   0.00000  Uiso   1.00
H343   H     0.47210   0.68700   0.46744   0.00000  Uiso   1.00
H344   H     0.42657   0.71690   0.11920   0.00000  Uiso   1.00
N345   N     0.50000   0.75001   0.12934   0.00000  Uiso   1.00
N346   N     0.50000   0.74999   0.37065   0.00000  Uiso   1.00
O347   O     0.50000   0.68572   0.29071   0.00000  Uiso   1.00
O348   O     0.59093   0.84814   0.09820   0.00000  Uiso   1.00
O349   O     0.58904   0.82726   0.18675   0.00000  Uiso   1.00
O350   O     0.48657   0.63221   0.36609   0.00000  Uiso   1.00
O351   O     0.41278   0.64614   0.40762   0.00000  Uiso   1.00
O352   O     0.40973   0.67362   0.32023   0.00000  Uiso   1.00
O353   O     0.38887   0.67216   0.00841   0.00000  Uiso   1.00
O354   O     0.34914   0.72955   0.05003   0.00000  Uiso   1.00
O355   O     0.37994   0.75003   0.46717   0.00000  Uiso   1.00
O356   O     0.57835   0.85303   0.48717   0.00000  Uiso   1.00
O357   O     0.50723   0.88070   0.43161   0.00000  Uiso   1.00
O358   O     0.50000   0.81427   0.20928   0.00000  Uiso   1.00
O359   O     0.48723   0.85225   0.01595   0.00000  Uiso   1.00
O360   O     0.50000   0.68573   0.20928   0.00000  Uiso   1.00
O361   O     0.50000   0.81427   0.29072   0.00000  Uiso   1.00
O362   O     0.42495   0.74999   0.28132   0.00000  Uiso   1.00
O363   O     0.57505   0.75000   0.21868   0.00000  Uiso   1.00
O364   O     0.42495   0.75000   0.19988   0.00000  Uiso   1.00
O365   O     0.57505   0.75000   0.30011   0.00000  Uiso   1.00
O366   O     0.63959   0.78543   0.12919   0.00000  Uiso   1.00
S367   S     0.59009   0.80809   0.13103   0.00000  Uiso   1.00
S368   S     0.44725   0.66552   0.37242   0.00000  Uiso   1.00
S369   S     0.39064   0.72084   0.01906   0.00000  Uiso   1.00
S370   S     0.52200   0.84629   0.46978   0.00000  Uiso   1.00
C371   C     0.83352   0.66512   0.25030   0.00000  Uiso   1.00
C372   C     0.84396   0.79275   0.44490   0.00000  Uiso   1.00
C373   C     0.82644   0.75420   0.02640   0.00000  Uiso   1.00
C374   C     0.82762   0.75546   0.47215   0.00000  Uiso   1.00
C375   C     0.73479   0.74842   0.23807   0.00000  Uiso   1.00
C376   C     0.93185   0.74999   0.26211   0.00000  Uiso   1.00
C377   C     0.67990   0.74236   0.23273   0.00000  Uiso   1.00
C378   C     0.98684   0.75363   0.26843   0.00000  Uiso   1.00
C379   C     0.86695   0.54847   0.28372   0.00000  Uiso   1.00
C380   C     0.84007   0.95393   0.20686   0.00000  Uiso   1.00
C381   C     0.86670   0.59450   0.28441   0.00000  Uiso   1.00
C382   C     0.83318   0.83509   0.24964   0.00000  Uiso   1.00
C383   C     0.83961   0.90784   0.20677   0.00000  Uiso   1.00
C384   C     0.83348   0.61703   0.25039   0.00000  Uiso   1.00
C385   C     0.83318   0.88357   0.24916   0.00000  Uiso   1.00
C386   C     0.80116   0.59352   0.21512   0.00000  Uiso   1.00
C387   C     0.82689   0.90598   0.29149   0.00000  Uiso   1.00
C388   C     0.80107   0.54748   0.21452   0.00000  Uiso   1.00
C389   C     0.82703   0.95200   0.29154   0.00000  Uiso   1.00
C390   C     0.83394   0.52472   0.24900   0.00000  Uiso   1.00
C391   C     0.83372   0.97621   0.24918   0.00000  Uiso   1.00
C392   C     0.87037   0.76897   0.05546   0.00000  Uiso   1.00
C393   C     0.81546   0.71642   0.44722   0.00000  Uiso   1.00
C394   C     0.87181   0.77142   0.10573   0.00000  Uiso   1.00
C395   C     0.81322   0.71476   0.39681   0.00000  Uiso   1.00
C396   C     0.79089   0.73231   0.10158   0.00000  Uiso   1.00
C397   C     0.84905   0.78810   0.39512   0.00000  Uiso   1.00
C398   C     0.78492   0.73617   0.05038   0.00000  Uiso   1.00
Cu399  Cu    0.83333   0.74999   0.29821   0.00000  Uiso   1.00
Cu400  Cu    0.83333   0.75000   0.20178   0.00000  Uiso   1.00
F401   F     0.98993   0.72146   0.19258   0.00000  Uiso   1.00
F402   F     0.67699   0.77133   0.31042   0.00000  Uiso   1.00
F403   F     0.76808   0.52516   0.18117   0.00000  Uiso   1.00
F404   F     0.81949   0.97280   0.33262   0.00000  Uiso   1.00
H405   H     0.89311   0.53137   0.31002   0.00000  Uiso   1.00
H406   H     0.86382   0.81622   0.37571   0.00000  Uiso   1.00
H407   H     0.95540   0.84455   0.19417   0.00000  Uiso   1.00
H408   H     0.73161   0.64351   0.30877   0.00000  Uiso   1.00
H409   H     0.68157   0.73598   0.44984   0.00000  Uiso   1.00
H410   H     0.83348   0.88079   0.03078   0.00000  Uiso   1.00
H411   H     0.84574   0.97226   0.17402   0.00000  Uiso   1.00
H412   H     0.89284   0.61254   0.31096   0.00000  Uiso   1.00
H413   H     0.84463   0.89132   0.17369   0.00000  Uiso   1.00
H414   H     0.77546   0.61082   0.18857   0.00000  Uiso   1.00
H415   H     0.82143   0.88796   0.32455   0.00000  Uiso   1.00
H416   H     0.90326   0.78151   0.03841   0.00000  Uiso   1.00
H417   H     0.80543   0.68700   0.46744   0.00000  Uiso   1.00
H418   H     0.75990   0.71690   0.11920   0.00000  Uiso   1.00
N419   N     0.83333   0.75001   0.12934   0.00000  Uiso   1.00
N420   N     0.83333   0.74999   0.37065   0.00000  Uiso   1.00
O421   O     0.83334   0.68572   0.29071   0.00000  Uiso   1.00
O422   O     0.92427   0.84814   0.09820   0.00000  Uiso   1.00
O423   O     0.92237   0.82726   0.18675   0.00000  Uiso   1.00
O424   O     0.81990   0.63221   0.36609   0.00000  Uiso   1.00
O425   O     0.74611   0.64614   0.40762   0.00000  Uiso   1.00
O426   O     0.74307   0.67362   0.32023   0.00000  Uiso   1.00
O427   O     0.72220   0.67216   0.00841   0.00000  Uiso   1.00
O428   O     0.68247   0.72955   0.05003   0.00000  Uiso   1.00
O429   O     0.71327   0.75003   0.46717   0.00000  Uiso   1.00
O430   O     0.91169   0.85303   0.48717   0.00000  Uiso   1.00
O431   O     0.84056   0.88070   0.43161   0.00000  Uiso   1.00
O432   O     0.83333   0.81427   0.20928   0.00000  Uiso   1.00
O433   O     0.82056   0.85225   0.01595   0.00000  Uiso   1.00
O434   O     0.83334   0.68573   0.20928   0.00000  Uiso   1.00
O435   O     0.83333   0.81427   0.29072   0.00000  Uiso   1.00
O436   O     0.75828   0.74999   0.28132   0.00000  Uiso   1.00
O437   O     0.90839   0.75000   0.21868   0.00000  Uiso   1.00
O438   O     0.75828   0.75000   0.19988   0.00000  Uiso   1.00
O439   O     0.90839   0.75000   0.30011   0.00000  Uiso   1.00
O440   O     0.97292   0.78543   0.12919   0.00000  Uiso   1.00
S441   S     0.92342   0.80809   0.13103   0.00000  Uiso   1.00
S442   S     0.78058   0.66552   0.37242   0.00000  Uiso   1.00
S443   S     0.72398   0.72084   0.01906   0.00000  Uiso   1.00
S444   S     0.85533   0.84629   0.46978   0.00000  Uiso   1.00
C445   C     0.16686   0.16512   0.75030   0.00000  Uiso   1.00
C446   C     0.17729   0.29275   0.94490   0.00000  Uiso   1.00
C447   C     0.15977   0.25420   0.52640   0.00000  Uiso   1.00
C448   C     0.16095   0.25546   0.97215   0.00000  Uiso   1.00
C449   C     0.06812   0.24842   0.73807   0.00000  Uiso   1.00
C450   C     0.26519   0.24999   0.76211   0.00000  Uiso   1.00
C451   C     0.01323   0.24236   0.73273   0.00000  Uiso   1.00
C452   C     0.32018   0.25363   0.76843   0.00000  Uiso   1.00
C453   C     0.20028   0.04847   0.78372   0.00000  Uiso   1.00
C454   C     0.17340   0.45393   0.70686   0.00000  Uiso   1.00
C455   C     0.20003   0.09450   0.78441   0.00000  Uiso   1.00
C456   C     0.16652   0.33509   0.74964   0.00000  Uiso   1.00
C457   C     0.17294   0.40784   0.70677   0.00000  Uiso   1.00
C458   C     0.16681   0.11703   0.75039   0.00000  Uiso   1.00
C459   C     0.16651   0.38357   0.74916   0.00000  Uiso   1.00
C460   C     0.13450   0.09352   0.71512   0.00000  Uiso   1.00
C461   C     0.16022   0.40598   0.79149   0.00000  Uiso   1.00
C462   C     0.13440   0.04748   0.71452   0.00000  Uiso   1.00
C463   C     0.16036   0.45200   0.79154   0.00000  Uiso   1.00
C464   C     0.16728   0.02472   0.74900   0.00000  Uiso   1.00
C465   C     0.16706   0.47621   0.74918   0.00000  Uiso   1.00
C466   C     0.20370   0.26897   0.55546   0.00000  Uiso   1.00
C467   C     0.14879   0.21642   0.94722   0.00000  Uiso   1.00
C468   C     0.20514   0.27142   0.60573   0.00000  Uiso   1.00
C469   C     0.14655   0.21476   0.89681   0.00000  Uiso   1.00
C470   C     0.12422   0.23231   0.60158   0.00000  Uiso   1.00
C471   C     0.18238   0.28810   0.89512   0.00000  Uiso   1.00
C472   C     0.11825   0.23617   0.55038   0.00000  Uiso   1.00
Cu473  Cu    0.16667   0.24999   0.79821   0.00000  Uiso   1.00
Cu474  Cu    0.16667   0.25000   0.70178   0.00000  Uiso   1.00
F475   F     0.32326   0.22146   0.69258   0.00000  Uiso   1.00
F476   F     0.01033   0.27133   0.81042   0.00000  Uiso   1.00
F477   F     0.10142   0.02516   0.68117   0.00000  Uiso   1.00
F478   F     0.15282   0.47280   0.83262   0.00000  Uiso   1.00
H479   H     0.22644   0.03137   0.81002   0.00000  Uiso   1.00
H480   H     0.19715   0.31622   0.87571   0.00000  Uiso   1.00
H481   H     0.28873   0.34455   0.69417   0.00000  Uiso   1.00
H482   H     0.06495   0.14351   0.80877   0.00000  Uiso   1.00
H483   H     0.01490   0.23598   0.94984   0.00000  Uiso   1.00
H484   H     0.16682   0.38079   0.53078   0.00000  Uiso   1.00
H485   H     0.17908   0.47226   0.67402   0.00000  Uiso   1.00
H486   H     0.22618   0.11254   0.81096   0.00000  Uiso   1.00
H487   H     0.17797   0.39132   0.67369   0.00000  Uiso   1.00
H488   H     0.10880   0.11082   0.68857   0.00000  Uiso   1.00
H489   H     0.15476   0.38796   0.82455   0.00000  Uiso   1.00
H490   H     0.23660   0.28151   0.53841   0.00000  Uiso   1.00
H491   H     0.13876   0.18700   0.96744   0.00000  Uiso   1.00
H492   H     0.09324   0.21690   0.61920   0.00000  Uiso   1.00
N493   N     0.16667   0.25001   0.62934   0.00000  Uiso   1.00
N494   N     0.16667   0.24999   0.87065   0.00000  Uiso   1.00
O495   O     0.16667   0.18572   0.79071   0.00000  Uiso   1.00
O496   O     0.25760   0.34814   0.59820   0.00000  Uiso   1.00
O497   O     0.25570   0.32726   0.68675   0.00000  Uiso   1.00
O498   O     0.15324   0.13221   0.86609   0.00000  Uiso   1.00
O499   O     0.07945   0.14614   0.90762   0.00000  Uiso   1.00
O500   O     0.07640   0.17362   0.82023   0.00000  Uiso   1.00
O501   O     0.05553   0.17216   0.50841   0.00000  Uiso   1.00
O502   O     0.01581   0.22955   0.55003   0.00000  Uiso   1.00
O503   O     0.04660   0.25003   0.96717   0.00000  Uiso   1.00
O504   O     0.24502   0.35303   0.98717   0.00000  Uiso   1.00
O505   O     0.17389   0.38070   0.93161   0.00000  Uiso   1.00
O506   O     0.16666   0.31427   0.70928   0.00000  Uiso   1.00
O507   O     0.15390   0.35225   0.51595   0.00000  Uiso   1.00
O508   O     0.16667   0.18573   0.70928   0.00000  Uiso   1.00
O509   O     0.16666   0.31427   0.79072   0.00000  Uiso   1.00
O510   O     0.09161   0.24999   0.78132   0.00000  Uiso   1.00
O511   O     0.24172   0.25000   0.71868   0.00000  Uiso   1.00
O512   O     0.09161   0.25000   0.69988   0.00000  Uiso   1.00
O513   O     0.24172   0.25000   0.80011   0.00000  Uiso   1.00
O514   O     0.30626   0.28543   0.62919   0.00000  Uiso   1.00
S515   S     0.25676   0.30809   0.63103   0.00000  Uiso   1.00
S516   S     0.11391   0.16552   0.87242   0.00000  Uiso   1.00
S517   S     0.05731   0.22084   0.51906   0.00000  Uiso   1.00
S518   S     0.18867   0.34629   0.96978   0.00000  Uiso   1.00
C519   C     0.50019   0.16512   0.75030   0.00000  Uiso   1.00
C520   C     0.51062   0.29275   0.94490   0.00000  Uiso   1.00
C521   C     0.49310   0.25420   0.52640   0.00000  Uiso   1.00
C522   C     0.49428   0.25546   0.97215   0.00000  Uiso   1.00
C523   C     0.40145   0.24842   0.73807   0.00000  Uiso   1.00
C524   C     0.59852   0.24999   0.76211   0.00000  Uiso   1.00
C525   C     0.34656   0.24236   0.73273   0.00000  Uiso   1.00
C526   C     0.65351   0.25363   0.76843   0.00000  Uiso   1.00
C527   C     0.53361   0.04847   0.78372   0.00000  Uiso   1.00
C528   C     0.50674   0.45393   0.70686   0.00000  Uiso   1.00
C529   C     0.53336   0.09450   0.78441   0.00000  Uiso   1.00
C530   C     0.49985   0.33509   0.74964   0.00000  Uiso   1.00
C531   C     0.50628   0.40784   0.70677   0.00000  Uiso   1.00
C532   C     0.50015   0.11703   0.75039   0.00000  Uiso   1.00
C533   C     0.49985   0.38357   0.74916   0.00000  Uiso   1.00
C534   C     0.46783   0.09352   0.71512   0.00000  Uiso   1.00
C535   C     0.49356   0.40598   0.79149   0.00000  Uiso   1.00
C536   C     0.46773   0.04748   0.71452   0.00000  Uiso   1.00
C537   C     0.49369   0.45200   0.79154   0.00000  Uiso   1.00
C538   C     0.50061   0.02472   0.74900   0.00000  Uiso   1.00
C539   C     0.50039   0.47621   0.74918   0.00000  Uiso   1.00
C540   C     0.53703   0.26897   0.55546   0.00000  Uiso   1.00
C541   C     0.48212   0.21642   0.94722   0.00000  Uiso   1.00
C542   C     0.53847   0.27142   0.60573   0.00000  Uiso   1.00
C543   C     0.47988   0.21476   0.89681   0.00000  Uiso   1.00
C544   C     0.45756   0.23231   0.60158   0.00000  Uiso   1.00
C545   C     0.51572   0.28810   0.89512   0.00000  Uiso   1.00
C546   C     0.45158   0.23617   0.55038   0.00000  Uiso   1.00
Cu547  Cu    0.50000   0.24999   0.79821   0.00000  Uiso   1.00
Cu548  Cu    0.50000   0.25000   0.70178   0.00000  Uiso   1.00
F549   F     0.65660   0.22146   0.69258   0.00000  Uiso   1.00
F550   F     0.34366   0.27133   0.81042   0.00000  Uiso   1.00
F551   F     0.43475   0.02516   0.68117   0.00000  Uiso   1.00
F552   F     0.48615   0.47280   0.83262   0.00000  Uiso   1.00
H553   H     0.55978   0.03137   0.81002   0.00000  Uiso   1.00
H554   H     0.53049   0.31622   0.87571   0.00000  Uiso   1.00
H555   H     0.62206   0.34455   0.69417   0.00000  Uiso   1.00
H556   H     0.39828   0.14351   0.80877   0.00000  Uiso   1.00
H557   H     0.34823   0.23598   0.94984   0.00000  Uiso   1.00
H558   H     0.50015   0.38079   0.53078   0.00000  Uiso   1.00
H559   H     0.51241   0.47226   0.67402   0.00000  Uiso   1.00
H560   H     0.55951   0.11254   0.81096   0.00000  Uiso   1.00
H561   H     0.51130   0.39132   0.67369   0.00000  Uiso   1.00
H562   H     0.44213   0.11082   0.68857   0.00000  Uiso   1.00
H563   H     0.48810   0.38796   0.82455   0.00000  Uiso   1.00
H564   H     0.56993   0.28151   0.53841   0.00000  Uiso   1.00
H565   H     0.47210   0.18700   0.96744   0.00000  Uiso   1.00
H566   H     0.42657   0.21690   0.61920   0.00000  Uiso   1.00
N567   N     0.50000   0.25001   0.62934   0.00000  Uiso   1.00
N568   N     0.50000   0.24999   0.87065   0.00000  Uiso   1.00
O569   O     0.50000   0.18572   0.79071   0.00000  Uiso   1.00
O570   O     0.59093   0.34814   0.59820   0.00000  Uiso   1.00
O571   O     0.58904   0.32726   0.68675   0.00000  Uiso   1.00
O572   O     0.48657   0.13221   0.86609   0.00000  Uiso   1.00
O573   O     0.41278   0.14614   0.90762   0.00000  Uiso   1.00
O574   O     0.40973   0.17362   0.82023   0.00000  Uiso   1.00
O575   O     0.38887   0.17216   0.50841   0.00000  Uiso   1.00
O576   O     0.34914   0.22955   0.55003   0.00000  Uiso   1.00
O577   O     0.37994   0.25003   0.96717   0.00000  Uiso   1.00
O578   O     0.57835   0.35303   0.98717   0.00000  Uiso   1.00
O579   O     0.50723   0.38070   0.93161   0.00000  Uiso   1.00
O580   O     0.50000   0.31427   0.70928   0.00000  Uiso   1.00
O581   O     0.48723   0.35225   0.51595   0.00000  Uiso   1.00
O582   O     0.50000   0.18573   0.70928   0.00000  Uiso   1.00
O583   O     0.50000   0.31427   0.79072   0.00000  Uiso   1.00
O584   O     0.42495   0.24999   0.78132   0.00000  Uiso   1.00
O585   O     0.57505   0.25000   0.71868   0.00000  Uiso   1.00
O586   O     0.42495   0.25000   0.69988   0.00000  Uiso   1.00
O587   O     0.57505   0.25000   0.80011   0.00000  Uiso   1.00
O588   O     0.63959   0.28543   0.62919   0.00000  Uiso   1.00
S589   S     0.59009   0.30809   0.63103   0.00000  Uiso   1.00
S590   S     0.44725   0.16552   0.87242   0.00000  Uiso   1.00
S591   S     0.39064   0.22084   0.51906   0.00000  Uiso   1.00
S592   S     0.52200   0.34629   0.96978   0.00000  Uiso   1.00
C593   C     0.83352   0.16512   0.75030   0.00000  Uiso   1.00
C594   C     0.84396   0.29275   0.94490   0.00000  Uiso   1.00
C595   C     0.82644   0.25420   0.52640   0.00000  Uiso   1.00
C596   C     0.82762   0.25546   0.97215   0.00000  Uiso   1.00
C597   C     0.73479   0.24842   0.73807   0.00000  Uiso   1.00
C598   C     0.93185   0.24999   0.76211   0.00000  Uiso   1.00
C599   C     0.67990   0.24236   0.73273   0.00000  Uiso   1.00
C600   C     0.98684   0.25363   0.76843   0.00000  Uiso   1.00
C601   C     0.86695   0.04847   0.78372   0.00000  Uiso   1.00
C602   C     0.84007   0.45393   0.70686   0.00000  Uiso   1.00
C603   C     0.86670   0.09450   0.78441   0.00000  Uiso   1.00
C604   C     0.83318   0.33509   0.74964   0.00000  Uiso   1.00
C605   C     0.83961   0.40784   0.70677   0.00000  Uiso   1.00
C606   C     0.83348   0.11703   0.75039   0.00000  Uiso   1.00
C607   C     0.83318   0.38357   0.74916   0.00000  Uiso   1.00
C608   C     0.80116   0.09352   0.71512   0.00000  Uiso   1.00
C609   C     0.82689   0.40598   0.79149   0.00000  Uiso   1.00
C610   C     0.80107   0.04748   0.71452   0.00000  Uiso   1.00
C611   C     0.82703   0.45200   0.79154   0.00000  Uiso   1.00
C612   C     0.83394   0.02472   0.74900   0.00000  Uiso   1.00
C613   C     0.83372   0.47621   0.74918   0.00000  Uiso   1.00
C614   C     0.87037   0.26897   0.55546   0.00000  Uiso   1.00
C615   C     0.81546   0.21642   0.94722   0.00000  Uiso   1.00
C616   C     0.87181   0.27142   0.60573   0.00000  Uiso   1.00
C617   C     0.81322   0.21476   0.89681   0.00000  Uiso   1.00
C618   C     0.79089   0.23231   0.60158   0.00000  Uiso   1.00
C619   C     0.84905   0.28810   0.89512   0.00000  Uiso   1.00
C620   C     0.78492   0.23617   0.55038   0.00000  Uiso   1.00
Cu621  Cu    0.83333   0.24999   0.79821   0.00000  Uiso   1.00
Cu622  Cu    0.83333   0.25000   0.70178   0.00000  Uiso   1.00
F623   F     0.98993   0.22146   0.69258   0.00000  Uiso   1.00
F624   F     0.67699   0.27133   0.81042   0.00000  Uiso   1.00
F625   F     0.76808   0.02516   0.68117   0.00000  Uiso   1.00
F626   F     0.81949   0.47280   0.83262   0.00000  Uiso   1.00
H627   H     0.89311   0.03137   0.81002   0.00000  Uiso   1.00
H628   H     0.86382   0.31622   0.87571   0.00000  Uiso   1.00
H629   H     0.95540   0.34455   0.69417   0.00000  Uiso   1.00
H630   H     0.73161   0.14351   0.80877   0.00000  Uiso   1.00
H631   H     0.68157   0.23598   0.94984   0.00000  Uiso   1.00
H632   H     0.83348   0.38079   0.53078   0.00000  Uiso   1.00
H633   H     0.84574   0.47226   0.67402   0.00000  Uiso   1.00
H634   H     0.89284   0.11254   0.81096   0.00000  Uiso   1.00
H635   H     0.84463   0.39132   0.67369   0.00000  Uiso   1.00
H636   H     0.77546   0.11082   0.68857   0.00000  Uiso   1.00
H637   H     0.82143   0.38796   0.82455   0.00000  Uiso   1.00
H638   H     0.90326   0.28151   0.53841   0.00000  Uiso   1.00
H639   H     0.80543   0.18700   0.96744   0.00000  Uiso   1.00
H640   H     0.75990   0.21690   0.61920   0.00000  Uiso   1.00
N641   N     0.83333   0.25001   0.62934   0.00000  Uiso   1.00
N642   N     0.83333   0.24999   0.87065   0.00000  Uiso   1.00
O643   O     0.83334   0.18572   0.79071   0.00000  Uiso   1.00
O644   O     0.92427   0.34814   0.59820   0.00000  Uiso   1.00
O645   O     0.92237   0.32726   0.68675   0.00000  Uiso   1.00
O646   O     0.81990   0.13221   0.86609   0.00000  Uiso   1.00
O647   O     0.74611   0.14614   0.90762   0.00000  Uiso   1.00
O648   O     0.74307   0.17362   0.82023   0.00000  Uiso   1.00
O649   O     0.72220   0.17216   0.50841   0.00000  Uiso   1.00
O650   O     0.68247   0.22955   0.55003   0.00000  Uiso   1.00
O651   O     0.71327   0.25003   0.96717   0.00000  Uiso   1.00
O652   O     0.91169   0.35303   0.98717   0.00000  Uiso   1.00
O653   O     0.84056   0.38070   0.93161   0.00000  Uiso   1.00
O654   O     0.83333   0.31427   0.70928   0.00000  Uiso   1.00
O655   O     0.82056   0.35225   0.51595   0.00000  Uiso   1.00
O656   O     0.83334   0.18573   0.70928   0.00000  Uiso   1.00
O657   O     0.83333   0.31427   0.79072   0.00000  Uiso   1.00
O658   O     0.75828   0.24999   0.78132   0.00000  Uiso   1.00
O659   O     0.90839   0.25000   0.71868   0.00000  Uiso   1.00
O660   O     0.75828   0.25000   0.69988   0.00000  Uiso   1.00
O661   O     0.90839   0.25000   0.80011   0.00000  Uiso   1.00
O662   O     0.97292   0.28543   0.62919   0.00000  Uiso   1.00
S663   S     0.92342   0.30809   0.63103   0.00000  Uiso   1.00
S664   S     0.78058   0.16552   0.87242   0.00000  Uiso   1.00
S665   S     0.72398   0.22084   0.51906   0.00000  Uiso   1.00
S666   S     0.85533   0.34629   0.96978   0.00000  Uiso   1.00
C667   C     0.16686   0.66512   0.75030   0.00000  Uiso   1.00
C668   C     0.17729   0.79275   0.94490   0.00000  Uiso   1.00
C669   C     0.15977   0.75420   0.52640   0.00000  Uiso   1.00
C670   C     0.16095   0.75546   0.97215   0.00000  Uiso   1.00
C671   C     0.06812   0.74842   0.73807   0.00000  Uiso   1.00
C672   C     0.26519   0.74999   0.76211   0.00000  Uiso   1.00
C673   C     0.01323   0.74236   0.73273   0.00000  Uiso   1.00
C674   C     0.32018   0.75363   0.76843   0.00000  Uiso   1.00
C675   C     0.20028   0.54847   0.78372   0.00000  Uiso   1.00
C676   C     0.17340   0.95393   0.70686   0.00000  Uiso   1.00
C677   C     0.20003   0.59450   0.78441   0.00000  Uiso   1.00
C678   C     0.16652   0.83509   0.74964   0.00000  Uiso   1.00
C679   C     0.17294   0.90784   0.70677   0.00000  Uiso   1.00
C680   C     0.16681   0.61703   0.75039   0.00000  Uiso   1.00
C681   C     0.16651   0.88357   0.74916   0.00000  Uiso   1.00
C682   C     0.13450   0.59352   0.71512   0.00000  Uiso   1.00
C683   C     0.16022   0.90598   0.79149   0.00000  Uiso   1.00
C684   C     0.13440   0.54748   0.71452   0.00000  Uiso   1.00
C685   C     0.16036   0.95200   0.79154   0.00000  Uiso   1.00
C686   C     0.16728   0.52472   0.74900   0.00000  Uiso   1.00
C687   C     0.16706   0.97621   0.74918   0.00000  Uiso   1.00
C688   C     0.20370   0.76897   0.55546   0.00000  Uiso   1.00
C689   C     0.14879   0.71642   0.94722   0.00000  Uiso   1.00
C690   C     0.20514   0.77142   0.60573   0.00000  Uiso   1.00
C691   C     0.14655   0.71476   0.89681   0.00000  Uiso   1.00
C692   C     0.12422   0.73231   0.60158   0.00000  Uiso   1.00
C693   C     0.18238   0.78810   0.89512   0.00000  Uiso   1.00
C694   C     0.11825   0.73617   0.55038   0.00000  Uiso   1.00
Cu695  Cu    0.16667   0.74999   0.79821   0.00000  Uiso   1.00
Cu696  Cu    0.16667   0.75000   0.70178   0.00000  Uiso   1.00
F697   F     0.32326   0.72146   0.69258   0.00000  Uiso   1.00
F698   F     0.01033   0.77133   0.81042   0.00000  Uiso   1.00
F699   F     0.10142   0.52516   0.68117   0.00000  Uiso   1.00
F700   F     0.15282   0.97280   0.83262   0.00000  Uiso   1.00
H701   H     0.22644   0.53137   0.81002   0.00000  Uiso   1.00
H702   H     0.19715   0.81622   0.87571   0.00000  Uiso   1.00
H703   H     0.28873   0.84455   0.69417   0.00000  Uiso   1.00
H704   H     0.06495   0.64351   0.80877   0.00000  Uiso   1.00
H705   H     0.01490   0.73598   0.94984   0.00000  Uiso   1.00
H706   H     0.16682   0.88079   0.53078   0.00000  Uiso   1.00
H707   H     0.17908   0.97226   0.67402   0.00000  Uiso   1.00
H708   H     0.22618   0.61254   0.81096   0.00000  Uiso   1.00
H709   H     0.17797   0.89132   0.67369   0.00000  Uiso   1.00
H710   H     0.10880   0.61082   0.68857   0.00000  Uiso   1.00
H711   H     0.15476   0.88796   0.82455   0.00000  Uiso   1.00
H712   H     0.23660   0.78151   0.53841   0.00000  Uiso   1.00
H713   H     0.13876   0.68700   0.96744   0.00000  Uiso   1.00
H714   H     0.09324   0.71690   0.61920   0.00000  Uiso   1.00
N715   N     0.16667   0.75001   0.62934   0.00000  Uiso   1.00
N716   N     0.16667   0.74999   0.87065   0.00000  Uiso   1.00
O717   O     0.16667   0.68572   0.79071   0.00000  Uiso   1.00
O718   O     0.25760   0.84814   0.59820   0.00000  Uiso   1.00
O719   O     0.25570   0.82726   0.68675   0.00000  Uiso   1.00
O720   O     0.15324   0.63221   0.86609   0.00000  Uiso   1.00
O721   O     0.07945   0.64614   0.90762   0.00000  Uiso   1.00
O722   O     0.07640   0.67362   0.82023   0.00000  Uiso   1.00
O723   O     0.05553   0.67216   0.50841   0.00000  Uiso   1.00
O724   O     0.01581   0.72955   0.55003   0.00000  Uiso   1.00
O725   O     0.04660   0.75003   0.96717   0.00000  Uiso   1.00
O726   O     0.24502   0.85303   0.98717   0.00000  Uiso   1.00
O727   O     0.17389   0.88070   0.93161   0.00000  Uiso   1.00
O728   O     0.16666   0.81427   0.70928   0.00000  Uiso   1.00
O729   O     0.15390   0.85225   0.51595   0.00000  Uiso   1.00
O730   O     0.16667   0.68573   0.70928   0.00000  Uiso   1.00
O731   O     0.16666   0.81427   0.79072   0.00000  Uiso   1.00
O732   O     0.09161   0.74999   0.78132   0.00000  Uiso   1.00
O733   O     0.24172   0.75000   0.71868   0.00000  Uiso   1.00
O734   O     0.09161   0.75000   0.69988   0.00000  Uiso   1.00
O735   O     0.24172   0.75000   0.80011   0.00000  Uiso   1.00
O736   O     0.30626   0.78543   0.62919   0.00000  Uiso   1.00
S737   S     0.25676   0.80809   0.63103   0.00000  Uiso   1.00
S738   S     0.11391   0.66552   0.87242   0.00000  Uiso   1.00
S739   S     0.05731   0.72084   0.51906   0.00000  Uiso   1.00
S740   S     0.18867   0.84629   0.96978   0.00000  Uiso   1.00
C741   C     0.50019   0.66512   0.75030   0.00000  Uiso   1.00
C742   C     0.51062   0.79275   0.94490   0.00000  Uiso   1.00
C743   C     0.49310   0.75420   0.52640   0.00000  Uiso   1.00
C744   C     0.49428   0.75546   0.97215   0.00000  Uiso   1.00
C745   C     0.40145   0.74842   0.73807   0.00000  Uiso   1.00
C746   C     0.59852   0.74999   0.76211   0.00000  Uiso   1.00
C747   C     0.34656   0.74236   0.73273   0.00000  Uiso   1.00
C748   C     0.65351   0.75363   0.76843   0.00000  Uiso   1.00
C749   C     0.53361   0.54847   0.78372   0.00000  Uiso   1.00
C750   C     0.50674   0.95393   0.70686   0.00000  Uiso   1.00
C751   C     0.53336   0.59450   0.78441   0.00000  Uiso   1.00
C752   C     0.49985   0.83509   0.74964   0.00000  Uiso   1.00
C753   C     0.50628   0.90784   0.70677   0.00000  Uiso   1.00
C754   C     0.50015   0.61703   0.75039   0.00000  Uiso   1.00
C755   C     0.49985   0.88357   0.74916   0.00000  Uiso   1.00
C756   C     0.46783   0.59352   0.71512   0.00000  Uiso   1.00
C757   C     0.49356   0.90598   0.79149   0.00000  Uiso   1.00
C758   C     0.46773   0.54748   0.71452   0.00000  Uiso   1.00
C759   C     0.49369   0.95200   0.79154   0.00000  Uiso   1.00
C760   C     0.50061   0.52472   0.74900   0.00000  Uiso   1.00
C761   C     0.50039   0.97621   0.74918   0.00000  Uiso   1.00
C762   C     0.53703   0.76897   0.55546   0.00000  Uiso   1.00
C763   C     0.48212   0.71642   0.94722   0.00000  Uiso   1.00
C764   C     0.53847   0.77142   0.60573   0.00000  Uiso   1.00
C765   C     0.47988   0.71476   0.89681   0.00000  Uiso   1.00
C766   C     0.45756   0.73231   0.60158   0.00000  Uiso   1.00
C767   C     0.51572   0.78810   0.89512   0.00000  Uiso   1.00
C768   C     0.45158   0.73617   0.55038   0.00000  Uiso   1.00
Cu769  Cu    0.50000   0.74999   0.79821   0.00000  Uiso   1.00
Cu770  Cu    0.50000   0.75000   0.70178   0.00000  Uiso   1.00
F771   F     0.65660   0.72146   0.69258   0.00000  Uiso   1.00
F772   F     0.34366   0.77133   0.81042   0.00000  Uiso   1.00
F773   F     0.43475   0.52516   0.68117   0.00000  Uiso   1.00
F774   F     0.48615   0.97280   0.83262   0.00000  Uiso   1.00
H775   H     0.55978   0.53137   0.81002   0.00000  Uiso   1.00
H776   H     0.53049   0.81622   0.87571   0.00000  Uiso   1.00
H777   H     0.62206   0.84455   0.69417   0.00000  Uiso   1.00
H778   H     0.39828   0.64351   0.80877   0.00000  Uiso   1.00
H779   H     0.34823   0.73598   0.94984   0.00000  Uiso   1.00
H780   H     0.50015   0.88079   0.53078   0.00000  Uiso   1.00
H781   H     0.51241   0.97226   0.67402   0.00000  Uiso   1.00
H782   H     0.55951   0.61254   0.81096   0.00000  Uiso   1.00
H783   H     0.51130   0.89132   0.67369   0.00000  Uiso   1.00
H784   H     0.44213   0.61082   0.68857   0.00000  Uiso   1.00
H785   H     0.48810   0.88796   0.82455   0.00000  Uiso   1.00
H786   H     0.56993   0.78151   0.53841   0.00000  Uiso   1.00
H787   H     0.47210   0.68700   0.96744   0.00000  Uiso   1.00
H788   H     0.42657   0.71690   0.61920   0.00000  Uiso   1.00
N789   N     0.50000   0.75001   0.62934   0.00000  Uiso   1.00
N790   N     0.50000   0.74999   0.87065   0.00000  Uiso   1.00
O791   O     0.50000   0.68572   0.79071   0.00000  Uiso   1.00
O792   O     0.59093   0.84814   0.59820   0.00000  Uiso   1.00
O793   O     0.58904   0.82726   0.68675   0.00000  Uiso   1.00
O794   O     0.48657   0.63221   0.86609   0.00000  Uiso   1.00
O795   O     0.41278   0.64614   0.90762   0.00000  Uiso   1.00
O796   O     0.40973   0.67362   0.82023   0.00000  Uiso   1.00
O797   O     0.38887   0.67216   0.50841   0.00000  Uiso   1.00
O798   O     0.34914   0.72955   0.55003   0.00000  Uiso   1.00
O799   O     0.37994   0.75003   0.96717   0.00000  Uiso   1.00
O800   O     0.57835   0.85303   0.98717   0.00000  Uiso   1.00
O801   O     0.50723   0.88070   0.93161   0.00000  Uiso   1.00
O802   O     0.50000   0.81427   0.70928   0.00000  Uiso   1.00
O803   O     0.48723   0.85225   0.51595   0.00000  Uiso   1.00
O804   O     0.50000   0.68573   0.70928   0.00000  Uiso   1.00
O805   O     0.50000   0.81427   0.79072   0.00000  Uiso   1.00
O806   O     0.42495   0.74999   0.78132   0.00000  Uiso   1.00
O807   O     0.57505   0.75000   0.71868   0.00000  Uiso   1.00
O808   O     0.42495   0.75000   0.69988   0.00000  Uiso   1.00
O809   O     0.57505   0.75000   0.80011   0.00000  Uiso   1.00
O810   O     0.63959   0.78543   0.62919   0.00000  Uiso   1.00
S811   S     0.59009   0.80809   0.63103   0.00000  Uiso   1.00
S812   S     0.44725   0.66552   0.87242   0.00000  Uiso   1.00
S813   S     0.39064   0.72084   0.51906   0.00000  Uiso   1.00
S814   S     0.52200   0.84629   0.96978   0.00000  Uiso   1.00
C815   C     0.83352   0.66512   0.75030   0.00000  Uiso   1.00
C816   C     0.84396   0.79275   0.94490   0.00000  Uiso   1.00
C817   C     0.82644   0.75420   0.52640   0.00000  Uiso   1.00
C818   C     0.82762   0.75546   0.97215   0.00000  Uiso   1.00
C819   C     0.73479   0.74842   0.73807   0.00000  Uiso   1.00
C820   C     0.93185   0.74999   0.76211   0.00000  Uiso   1.00
C821   C     0.67990   0.74236   0.73273   0.00000  Uiso   1.00
C822   C     0.98684   0.75363   0.76843   0.00000  Uiso   1.00
C823   C     0.86695   0.54847   0.78372   0.00000  Uiso   1.00
C824   C     0.84007   0.95393   0.70686   0.00000  Uiso   1.00
C825   C     0.86670   0.59450   0.78441   0.00000  Uiso   1.00
C826   C     0.83318   0.83509   0.74964   0.00000  Uiso   1.00
C827   C     0.83961   0.90784   0.70677   0.00000  Uiso   1.00
C828   C     0.83348   0.61703   0.75039   0.00000  Uiso   1.00
C829   C     0.83318   0.88357   0.74916   0.00000  Uiso   1.00
C830   C     0.80116   0.59352   0.71512   0.00000  Uiso   1.00
C831   C     0.82689   0.90598   0.79149   0.00000  Uiso   1.00
C832   C     0.80107   0.54748   0.71452   0.00000  Uiso   1.00
C833   C     0.82703   0.95200   0.79154   0.00000  Uiso   1.00
C834   C     0.83394   0.52472   0.74900   0.00000  Uiso   1.00
C835   C     0.83372   0.97621   0.74918   0.00000  Uiso   1.00
C836   C     0.87037   0.76897   0.55546   0.00000  Uiso   1.00
C837   C     0.81546   0.71642   0.94722   0.00000  Uiso   1.00
C838   C     0.87181   0.77142   0.60573   0.00000  Uiso   1.00
C839   C     0.81322   0.71476   0.89681   0.00000  Uiso   1.00
C840   C     0.79089   0.73231   0.60158   0.00000  Uiso   1.00
C841   C     0.84905   0.78810   0.89512   0.00000  Uiso   1.00
C842   C     0.78492   0.73617   0.55038   0.00000  Uiso   1.00
Cu843  Cu    0.83333   0.74999   0.79821   0.00000  Uiso   1.00
Cu844  Cu    0.83333   0.75000   0.70178   0.00000  Uiso   1.00
F845   F     0.98993   0.72146   0.69258   0.00000  Uiso   1.00
F846   F     0.67699   0.77133   0.81042   0.00000  Uiso   1.00
F847   F     0.76808   0.52516   0.68117   0.00000  Uiso   1.00
F848   F     0.81949   0.97280   0.83262   0.00000  Uiso   1.00
H849   H     0.89311   0.53137   0.81002   0.00000  Uiso   1.00
H850   H     0.86382   0.81622   0.87571   0.00000  Uiso   1.00
H851   H     0.95540   0.84455   0.69417   0.00000  Uiso   1.00
H852   H     0.73161   0.64351   0.80877   0.00000  Uiso   1.00
H853   H     0.68157   0.73598   0.94984   0.00000  Uiso   1.00
H854   H     0.83348   0.88079   0.53078   0.00000  Uiso   1.00
H855   H     0.84574   0.97226   0.67402   0.00000  Uiso   1.00
H856   H     0.89284   0.61254   0.81096   0.00000  Uiso   1.00
H857   H     0.84463   0.89132   0.67369   0.00000  Uiso   1.00
H858   H     0.77546   0.61082   0.68857   0.00000  Uiso   1.00
H859   H     0.82143   0.88796   0.82455   0.00000  Uiso   1.00
H860   H     0.90326   0.78151   0.53841   0.00000  Uiso   1.00
H861   H     0.80543   0.68700   0.96744   0.00000  Uiso   1.00
H862   H     0.75990   0.71690   0.61920   0.00000  Uiso   1.00
N863   N     0.83333   0.75001   0.62934   0.00000  Uiso   1.00
N864   N     0.83333   0.74999   0.87065   0.00000  Uiso   1.00
O865   O     0.83334   0.68572   0.79071   0.00000  Uiso   1.00
O866   O     0.92427   0.84814   0.59820   0.00000  Uiso   1.00
O867   O     0.92237   0.82726   0.68675   0.00000  Uiso   1.00
O868   O     0.81990   0.63221   0.86609   0.00000  Uiso   1.00
O869   O     0.74611   0.64614   0.90762   0.00000  Uiso   1.00
O870   O     0.74307   0.67362   0.82023   0.00000  Uiso   1.00
O871   O     0.72220   0.67216   0.50841   0.00000  Uiso   1.00
O872   O     0.68247   0.72955   0.55003   0.00000  Uiso   1.00
O873   O     0.71327   0.75003   0.96717   0.00000  Uiso   1.00
O874   O     0.91169   0.85303   0.98717   0.00000  Uiso   1.00
O875   O     0.84056   0.88070   0.93161   0.00000  Uiso   1.00
O876   O     0.83333   0.81427   0.70928   0.00000  Uiso   1.00
O877   O     0.82056   0.85225   0.51595   0.00000  Uiso   1.00
O878   O     0.83334   0.68573   0.70928   0.00000  Uiso   1.00
O879   O     0.83333   0.81427   0.79072   0.00000  Uiso   1.00
O880   O     0.75828   0.74999   0.78132   0.00000  Uiso   1.00
O881   O     0.90839   0.75000   0.71868   0.00000  Uiso   1.00
O882   O     0.75828   0.75000   0.69988   0.00000  Uiso   1.00
O883   O     0.90839   0.75000   0.80011   0.00000  Uiso   1.00
O884   O     0.97292   0.78543   0.62919   0.00000  Uiso   1.00
S885   S     0.92342   0.80809   0.63103   0.00000  Uiso   1.00
S886   S     0.78058   0.66552   0.87242   0.00000  Uiso   1.00
S887   S     0.72398   0.72084   0.51906   0.00000  Uiso   1.00
S888   S     0.85533   0.84629   0.96978   0.00000  Uiso   1.00
loop_
_geom_bond_atom_site_label_1
_geom_bond_atom_site_label_2
_geom_bond_distance
_geom_bond_site_symmetry_2
_ccdc_geom_bond_type
C1     O51     1.300   .     A
C1     O64     1.292   .     A
C1     C14     1.452   .     S
C2     C4      1.424   .     A
C2     C27     1.423   .     A
C2     S74     1.770   .     S
C3     C28     1.425   .     A
C3     C22     1.386   .     A
C3     C448    1.519   1_554 S
C4     C23     1.385   .     A
C4     C447    1.519   .     S
C5     O68     1.292   .     A
C5     C7      1.431   .     S
C5     O66     1.288   .     A
C6     O69     1.288   .     A
C6     O67     1.292   .     A
C6     C8      1.429   .     S
C7     C156    1.337   1_455 S
C7     F179    1.362   1_455 S
C8     C81     1.337   .     S
C8     F106    1.364   .     S
C9     C20     1.403   .     A
C9     C11     1.390   .     A
C9     H35     1.083   .     S
C10    H41     1.083   .     S
C10    C21     1.402   .     A
C10    C13     1.391   .     A
C11    C14     1.398   .     A
C11    H42     1.083   .     S
C12    O62     1.301   .     A
C12    O65     1.297   .     A
C12    C15     1.464   .     S
C13    C15     1.403   .     A
C13    H43     1.083   .     S
C14    C16     1.400   .     A
C15    C17     1.404   .     A
C16    C18     1.390   .     A
C16    H44     1.084   .     S
C17    H45     1.083   .     S
C17    C19     1.389   .     A
C18    F33     1.358   .     S
C18    C20     1.404   .     A
C19    C21     1.403   .     A
C19    F34     1.358   .     S
C20    C243    1.464   1_545 S
C21    C242    1.464   .     S
C22    H46     1.083   .     S
C22    C24     1.403   .     A
C23    C25     1.404   .     A
C23    H47     1.082   .     S
C24    S71     1.792   .     S
C24    N49     1.395   .     A
C25    S72     1.784   .     S
C25    N50     1.396   .     A
C26    C28     1.423   .     A
C26    H48     1.081   .     S
C26    N49     1.369   .     A
C27    N50     1.371   .     A
C27    H36     1.079   .     S
C28    S73     1.771   .     S
Cu29   Cu30    2.693   .     S
Cu29   O65     1.948   .     S
Cu29   O69     1.960   .     S
Cu29   N50     2.023   .     S
Cu29   O51     1.956   .     S
Cu29   O66     1.965   .     S
Cu30   O64     1.948   .     S
Cu30   N49     2.023   .     S
Cu30   O62     1.956   .     S
Cu30   O68     1.960   .     S
Cu30   O67     1.965   .     S
F31    C81     1.362   .     S
F32    C156    1.364   1_455 S
H37    O53     0.991   .     S
H38    O56     0.991   .     S
H39    O59     0.991   .     S
H40    O63     0.990   .     S
O52    S71     1.504   .     D
O53    S71     1.674   .     S
O54    S72     1.501   .     D
O55    S72     1.504   .     D
O56    S72     1.678   .     S
O57    S73     1.503   .     D
O58    S73     1.503   .     D
O59    S517    1.682   .     S
O60    S74     1.503   .     D
O61    S74     1.503   .     D
O63    S518    1.682   1_554 S
O70    S71     1.501   .     D
S73    O503    1.682   1_554 S
S74    O507    1.682   .     S
C75    O125    1.300   .     A
C75    O138    1.292   .     A
C75    C88     1.452   .     S
C76    C78     1.424   .     A
C76    C101    1.423   .     A
C76    S148    1.770   .     S
C77    C102    1.425   .     A
C77    C96     1.386   .     A
C77    C522    1.519   1_554 S
C78    C97     1.385   .     A
C78    C521    1.519   .     S
C79    O142    1.292   .     A
C79    C81     1.431   .     S
C79    O140    1.288   .     A
C80    O143    1.288   .     A
C80    O141    1.292   .     A
C80    C82     1.429   .     S
C82    C155    1.337   .     S
C82    F180    1.364   .     S
C83    C94     1.403   .     A
C83    C85     1.390   .     A
C83    H109    1.083   .     S
C84    H115    1.083   .     S
C84    C95     1.402   .     A
C84    C87     1.391   .     A
C85    C88     1.398   .     A
C85    H116    1.083   .     S
C86    O136    1.301   .     A
C86    O139    1.297   .     A
C86    C89     1.464   .     S
C87    C89     1.403   .     A
C87    H117    1.083   .     S
C88    C90     1.400   .     A
C89    C91     1.404   .     A
C90    C92     1.390   .     A
C90    H118    1.084   .     S
C91    H119    1.083   .     S
C91    C93     1.389   .     A
C92    F107    1.358   .     S
C92    C94     1.404   .     A
C93    C95     1.403   .     A
C93    F108    1.358   .     S
C94    C317    1.464   1_545 S
C95    C316    1.464   .     S
C96    H120    1.083   .     S
C96    C98     1.403   .     A
C97    C99     1.404   .     A
C97    H121    1.082   .     S
C98    S145    1.792   .     S
C98    N123    1.395   .     A
C99    S146    1.784   .     S
C99    N124    1.396   .     A
C100   C102    1.423   .     A
C100   H122    1.081   .     S
C100   N123    1.369   .     A
C101   N124    1.371   .     A
C101   H110    1.079   .     S
C102   S147    1.771   .     S
Cu103  Cu104   2.693   .     S
Cu103  O139    1.948   .     S
Cu103  O143    1.960   .     S
Cu103  N124    2.023   .     S
Cu103  O125    1.956   .     S
Cu103  O140    1.965   .     S
Cu104  O138    1.948   .     S
Cu104  N123    2.023   .     S
Cu104  O136    1.956   .     S
Cu104  O142    1.960   .     S
Cu104  O141    1.965   .     S
F105   C155    1.362   .     S
H111   O127    0.991   .     S
H112   O130    0.991   .     S
H113   O133    0.991   .     S
H114   O137    0.990   .     S
O126   S145    1.504   .     D
O127   S145    1.674   .     S
O128   S146    1.501   .     D
O129   S146    1.504   .     D
O130   S146    1.678   .     S
O131   S147    1.503   .     D
O132   S147    1.503   .     D
O133   S591    1.682   .     S
O134   S148    1.503   .     D
O135   S148    1.503   .     D
O137   S592    1.682   1_554 S
O144   S145    1.501   .     D
S147   O577    1.682   1_554 S
S148   O581    1.682   .     S
C149   O199    1.300   .     A
C149   O212    1.292   .     A
C149   C162    1.452   .     S
C150   C152    1.424   .     A
C150   C175    1.423   .     A
C150   S222    1.770   .     S
C151   C176    1.425   .     A
C151   C170    1.386   .     A
C151   C596    1.519   1_554 S
C152   C171    1.385   .     A
C152   C595    1.519   .     S
C153   O216    1.292   .     A
C153   C155    1.431   .     S
C153   O214    1.288   .     A
C154   O217    1.288   .     A
C154   O215    1.292   .     A
C154   C156    1.429   .     S
C156   C7      1.337   1_655 S
C156   F32     1.364   1_655 S
C157   C168    1.403   .     A
C157   C159    1.390   .     A
C157   H183    1.083   .     S
C158   H189    1.083   .     S
C158   C169    1.402   .     A
C158   C161    1.391   .     A
C159   C162    1.398   .     A
C159   H190    1.083   .     S
C160   O210    1.301   .     A
C160   O213    1.297   .     A
C160   C163    1.464   .     S
C161   C163    1.403   .     A
C161   H191    1.083   .     S
C162   C164    1.400   .     A
C163   C165    1.404   .     A
C164   C166    1.390   .     A
C164   H192    1.084   .     S
C165   H193    1.083   .     S
C165   C167    1.389   .     A
C166   F181    1.358   .     S
C166   C168    1.404   .     A
C167   C169    1.403   .     A
C167   F182    1.358   .     S
C168   C391    1.464   1_545 S
C169   C390    1.464   .     S
C170   H194    1.083   .     S
C170   C172    1.403   .     A
C171   C173    1.404   .     A
C171   H195    1.082   .     S
C172   S219    1.792   .     S
C172   N197    1.395   .     A
C173   S220    1.784   .     S
C173   N198    1.396   .     A
C174   C176    1.423   .     A
C174   H196    1.081   .     S
C174   N197    1.369   .     A
C175   N198    1.371   .     A
C175   H184    1.079   .     S
C176   S221    1.771   .     S
Cu177  Cu178   2.693   .     S
Cu177  O213    1.948   .     S
Cu177  O217    1.960   .     S
Cu177  N198    2.023   .     S
Cu177  O199    1.956   .     S
Cu177  O214    1.965   .     S
Cu178  O212    1.948   .     S
Cu178  N197    2.023   .     S
Cu178  O210    1.956   .     S
Cu178  O216    1.960   .     S
Cu178  O215    1.965   .     S
F179   C7      1.362   1_655 S
H185   O201    0.991   .     S
H186   O204    0.991   .     S
H187   O207    0.991   .     S
H188   O211    0.990   .     S
O200   S219    1.504   .     D
O201   S219    1.674   .     S
O202   S220    1.501   .     D
O203   S220    1.504   .     D
O204   S220    1.678   .     S
O205   S221    1.503   .     D
O206   S221    1.503   .     D
O207   S665    1.682   .     S
O208   S222    1.503   .     D
O209   S222    1.503   .     D
O211   S666    1.682   1_554 S
O218   S219    1.501   .     D
S221   O651    1.682   1_554 S
S222   O655    1.682   .     S
C223   O273    1.300   .     A
C223   O286    1.292   .     A
C223   C236    1.452   .     S
C224   C226    1.424   .     A
C224   C249    1.423   .     A
C224   S296    1.770   .     S
C225   C250    1.425   .     A
C225   C244    1.386   .     A
C225   C670    1.519   1_554 S
C226   C245    1.385   .     A
C226   C669    1.519   .     S
C227   O290    1.292   .     A
C227   C229    1.431   .     S
C227   O288    1.288   .     A
C228   O291    1.288   .     A
C228   O289    1.292   .     A
C228   C230    1.429   .     S
C229   C378    1.337   1_455 S
C229   F401    1.362   1_455 S
C230   C303    1.337   .     S
C230   F328    1.364   .     S
C231   C242    1.403   .     A
C231   C233    1.390   .     A
C231   H257    1.083   .     S
C232   H263    1.083   .     S
C232   C243    1.402   .     A
C232   C235    1.391   .     A
C233   C236    1.398   .     A
C233   H264    1.083   .     S
C234   O284    1.301   .     A
C234   O287    1.297   .     A
C234   C237    1.464   .     S
C235   C237    1.403   .     A
C235   H265    1.083   .     S
C236   C238    1.400   .     A
C237   C239    1.404   .     A
C238   C240    1.390   .     A
C238   H266    1.084   .     S
C239   H267    1.083   .     S
C239   C241    1.389   .     A
C240   F255    1.358   .     S
C240   C242    1.404   .     A
C241   C243    1.403   .     A
C241   F256    1.358   .     S
C243   C20     1.464   1_565 S
C244   H268    1.083   .     S
C244   C246    1.403   .     A
C245   C247    1.404   .     A
C245   H269    1.082   .     S
C246   S293    1.792   .     S
C246   N271    1.395   .     A
C247   S294    1.784   .     S
C247   N272    1.396   .     A
C248   C250    1.423   .     A
C248   H270    1.081   .     S
C248   N271    1.369   .     A
C249   N272    1.371   .     A
C249   H258    1.079   .     S
C250   S295    1.771   .     S
Cu251  Cu252   2.693   .     S
Cu251  O287    1.948   .     S
Cu251  O291    1.960   .     S
Cu251  N272    2.023   .     S
Cu251  O273    1.956   .     S
Cu251  O288    1.965   .     S
Cu252  O286    1.948   .     S
Cu252  N271    2.023   .     S
Cu252  O284    1.956   .     S
Cu252  O290    1.960   .     S
Cu252  O289    1.965   .     S
F253   C303    1.362   .     S
F254   C378    1.364   1_455 S
H259   O275    0.991   .     S
H260   O278    0.991   .     S
H261   O281    0.991   .     S
H262   O285    0.990   .     S
O274   S293    1.504   .     D
O275   S293    1.674   .     S
O276   S294    1.501   .     D
O277   S294    1.504   .     D
O278   S294    1.678   .     S
O279   S295    1.503   .     D
O280   S295    1.503   .     D
O281   S739    1.682   .     S
O282   S296    1.503   .     D
O283   S296    1.503   .     D
O285   S740    1.682   1_554 S
O292   S293    1.501   .     D
S295   O725    1.682   1_554 S
S296   O729    1.682   .     S
C297   O347    1.300   .     A
C297   O360    1.292   .     A
C297   C310    1.452   .     S
C298   C300    1.424   .     A
C298   C323    1.423   .     A
C298   S370    1.770   .     S
C299   C324    1.425   .     A
C299   C318    1.386   .     A
C299   C744    1.519   1_554 S
C300   C319    1.385   .     A
C300   C743    1.519   .     S
C301   O364    1.292   .     A
C301   C303    1.431   .     S
C301   O362    1.288   .     A
C302   O365    1.288   .     A
C302   O363    1.292   .     A
C302   C304    1.429   .     S
C304   C377    1.337   .     S
C304   F402    1.364   .     S
C305   C316    1.403   .     A
C305   C307    1.390   .     A
C305   H331    1.083   .     S
C306   H337    1.083   .     S
C306   C317    1.402   .     A
C306   C309    1.391   .     A
C307   C310    1.398   .     A
C307   H338    1.083   .     S
C308   O358    1.301   .     A
C308   O361    1.297   .     A
C308   C311    1.464   .     S
C309   C311    1.403   .     A
C309   H339    1.083   .     S
C310   C312    1.400   .     A
C311   C313    1.404   .     A
C312   C314    1.390   .     A
C312   H340    1.084   .     S
C313   H341    1.083   .     S
C313   C315    1.389   .     A
C314   F329    1.358   .     S
C314   C316    1.404   .     A
C315   C317    1.403   .     A
C315   F330    1.358   .     S
C317   C94     1.464   1_565 S
C318   H342    1.083   .     S
C318   C320    1.403   .     A
C319   C321    1.404   .     A
C319   H343    1.082   .     S
C320   S367    1.792   .     S
C320   N345    1.395   .     A
C321   S368    1.784   .     S
C321   N346    1.396   .     A
C322   C324    1.423   .     A
C322   H344    1.081   .     S
C322   N345    1.369   .     A
C323   N346    1.371   .     A
C323   H332    1.079   .     S
C324   S369    1.771   .     S
Cu325  Cu326   2.693   .     S
Cu325  O361    1.948   .     S
Cu325  O365    1.960   .     S
Cu325  N346    2.023   .     S
Cu325  O347    1.956   .     S
Cu325  O362    1.965   .     S
Cu326  O360    1.948   .     S
Cu326  N345    2.023   .     S
Cu326  O358    1.956   .     S
Cu326  O364    1.960   .     S
Cu326  O363    1.965   .     S
F327   C377    1.362   .     S
H333   O349    0.991   .     S
H334   O352    0.991   .     S
H335   O355    0.991   .     S
H336   O359    0.990   .     S
O348   S367    1.504   .     D
O349   S367    1.674   .     S
O350   S368    1.501   .     D
O351   S368    1.504   .     D
O352   S368    1.678   .     S
O353   S369    1.503   .     D
O354   S369    1.503   .     D
O355   S813    1.682   .     S
O356   S370    1.503   .     D
O357   S370    1.503   .     D
O359   S814    1.682   1_554 S
O366   S367    1.501   .     D
S369   O799    1.682   1_554 S
S370   O803    1.682   .     S
C371   O421    1.300   .     A
C371   O434    1.292   .     A
C371   C384    1.452   .     S
C372   C374    1.424   .     A
C372   C397    1.423   .     A
C372   S444    1.770   .     S
C373   C398    1.425   .     A
C373   C392    1.386   .     A
C373   C818    1.519   1_554 S
C374   C393    1.385   .     A
C374   C817    1.519   .     S
C375   O438    1.292   .     A
C375   C377    1.431   .     S
C375   O436    1.288   .     A
C376   O439    1.288   .     A
C376   O437    1.292   .     A
C376   C378    1.429   .     S
C378   C229    1.337   1_655 S
C378   F254    1.364   1_655 S
C379   C390    1.403   .     A
C379   C381    1.390   .     A
C379   H405    1.083   .     S
C380   H411    1.083   .     S
C380   C391    1.402   .     A
C380   C383    1.391   .     A
C381   C384    1.398   .     A
C381   H412    1.083   .     S
C382   O432    1.301   .     A
C382   O435    1.297   .     A
C382   C385    1.464   .     S
C383   C385    1.403   .     A
C383   H413    1.083   .     S
C384   C386    1.400   .     A
C385   C387    1.404   .     A
C386   C388    1.390   .     A
C386   H414    1.084   .     S
C387   H415    1.083   .     S
C387   C389    1.389   .     A
C388   F403    1.358   .     S
C388   C390    1.404   .     A
C389   C391    1.403   .     A
C389   F404    1.358   .     S
C391   C168    1.464   1_565 S
C392   H416    1.083   .     S
C392   C394    1.403   .     A
C393   C395    1.404   .     A
C393   H417    1.082   .     S
C394   S441    1.792   .     S
C394   N419    1.395   .     A
C395   S442    1.784   .     S
C395   N420    1.396   .     A
C396   C398    1.423   .     A
C396   H418    1.081   .     S
C396   N419    1.369   .     A
C397   N420    1.371   .     A
C397   H406    1.079   .     S
C398   S443    1.771   .     S
Cu399  Cu400   2.693   .     S
Cu399  O435    1.948   .     S
Cu399  O439    1.960   .     S
Cu399  N420    2.023   .     S
Cu399  O421    1.956   .     S
Cu399  O436    1.965   .     S
Cu400  O434    1.948   .     S
Cu400  N419    2.023   .     S
Cu400  O432    1.956   .     S
Cu400  O438    1.960   .     S
Cu400  O437    1.965   .     S
F401   C229    1.362   1_655 S
H407   O423    0.991   .     S
H408   O426    0.991   .     S
H409   O429    0.991   .     S
H410   O433    0.990   .     S
O422   S441    1.504   .     D
O423   S441    1.674   .     S
O424   S442    1.501   .     D
O425   S442    1.504   .     D
O426   S442    1.678   .     S
O427   S443    1.503   .     D
O428   S443    1.503   .     D
O429   S887    1.682   .     S
O430   S444    1.503   .     D
O431   S444    1.503   .     D
O433   S888    1.682   1_554 S
O440   S441    1.501   .     D
S443   O873    1.682   1_554 S
S444   O877    1.682   .     S
C445   O495    1.300   .     A
C445   O508    1.292   .     A
C445   C458    1.452   .     S
C446   C448    1.424   .     A
C446   C471    1.423   .     A
C446   S518    1.770   .     S
C447   C472    1.425   .     A
C447   C466    1.386   .     A
C448   C467    1.385   .     A
C448   C3      1.519   1_556 S
C449   O512    1.292   .     A
C449   C451    1.431   .     S
C449   O510    1.288   .     A
C450   O513    1.288   .     A
C450   O511    1.292   .     A
C450   C452    1.429   .     S
C451   C600    1.337   1_455 S
C451   F623    1.362   1_455 S
C452   C525    1.337   .     S
C452   F550    1.364   .     S
C453   C464    1.403   .     A
C453   C455    1.390   .     A
C453   H479    1.083   .     S
C454   H485    1.083   .     S
C454   C465    1.402   .     A
C454   C457    1.391   .     A
C455   C458    1.398   .     A
C455   H486    1.083   .     S
C456   O506    1.301   .     A
C456   O509    1.297   .     A
C456   C459    1.464   .     S
C457   C459    1.403   .     A
C457   H487    1.083   .     S
C458   C460    1.400   .     A
C459   C461    1.404   .     A
C460   C462    1.390   .     A
C460   H488    1.084   .     S
C461   H489    1.083   .     S
C461   C463    1.389   .     A
C462   F477    1.358   .     S
C462   C464    1.404   .     A
C463   C465    1.403   .     A
C463   F478    1.358   .     S
C464   C687    1.464   1_545 S
C465   C686    1.464   .     S
C466   H490    1.083   .     S
C466   C468    1.403   .     A
C467   C469    1.404   .     A
C467   H491    1.082   .     S
C468   S515    1.792   .     S
C468   N493    1.395   .     A
C469   S516    1.784   .     S
C469   N494    1.396   .     A
C470   C472    1.423   .     A
C470   H492    1.081   .     S
C470   N493    1.369   .     A
C471   N494    1.371   .     A
C471   H480    1.079   .     S
C472   S517    1.771   .     S
Cu473  Cu474   2.693   .     S
Cu473  O509    1.948   .     S
Cu473  O513    1.960   .     S
Cu473  N494    2.023   .     S
Cu473  O495    1.956   .     S
Cu473  O510    1.965   .     S
Cu474  O508    1.948   .     S
Cu474  N493    2.023   .     S
Cu474  O506    1.956   .     S
Cu474  O512    1.960   .     S
Cu474  O511    1.965   .     S
F475   C525    1.362   .     S
F476   C600    1.364   1_455 S
H481   O497    0.991   .     S
H482   O500    0.991   .     S
H483   O503    0.991   .     S
H484   O507    0.990   .     S
O496   S515    1.504   .     D
O497   S515    1.674   .     S
O498   S516    1.501   .     D
O499   S516    1.504   .     D
O500   S516    1.678   .     S
O501   S517    1.503   .     D
O502   S517    1.503   .     D
O503   S73     1.682   1_556 S
O504   S518    1.503   .     D
O505   S518    1.503   .     D
O514   S515    1.501   .     D
S518   O63     1.682   1_556 S
C519   O569    1.300   .     A
C519   O582    1.292   .     A
C519   C532    1.452   .     S
C520   C522    1.424   .     A
C520   C545    1.423   .     A
C520   S592    1.770   .     S
C521   C546    1.425   .     A
C521   C540    1.386   .     A
C522   C541    1.385   .     A
C522   C77     1.519   1_556 S
C523   O586    1.292   .     A
C523   C525    1.431   .     S
C523   O584    1.288   .     A
C524   O587    1.288   .     A
C524   O585    1.292   .     A
C524   C526    1.429   .     S
C526   C599    1.337   .     S
C526   F624    1.364   .     S
C527   C538    1.403   .     A
C527   C529    1.390   .     A
C527   H553    1.083   .     S
C528   H559    1.083   .     S
C528   C539    1.402   .     A
C528   C531    1.391   .     A
C529   C532    1.398   .     A
C529   H560    1.083   .     S
C530   O580    1.301   .     A
C530   O583    1.297   .     A
C530   C533    1.464   .     S
C531   C533    1.403   .     A
C531   H561    1.083   .     S
C532   C534    1.400   .     A
C533   C535    1.404   .     A
C534   C536    1.390   .     A
C534   H562    1.084   .     S
C535   H563    1.083   .     S
C535   C537    1.389   .     A
C536   F551    1.358   .     S
C536   C538    1.404   .     A
C537   C539    1.403   .     A
C537   F552    1.358   .     S
C538   C761    1.464   1_545 S
C539   C760    1.464   .     S
C540   H564    1.083   .     S
C540   C542    1.403   .     A
C541   C543    1.404   .     A
C541   H565    1.082   .     S
C542   S589    1.792   .     S
C542   N567    1.395   .     A
C543   S590    1.784   .     S
C543   N568    1.396   .     A
C544   C546    1.423   .     A
C544   H566    1.081   .     S
C544   N567    1.369   .     A
C545   N568    1.371   .     A
C545   H554    1.079   .     S
C546   S591    1.771   .     S
Cu547  Cu548   2.693   .     S
Cu547  O583    1.948   .     S
Cu547  O587    1.960   .     S
Cu547  N568    2.023   .     S
Cu547  O569    1.956   .     S
Cu547  O584    1.965   .     S
Cu548  O582    1.948   .     S
Cu548  N567    2.023   .     S
Cu548  O580    1.956   .     S
Cu548  O586    1.960   .     S
Cu548  O585    1.965   .     S
F549   C599    1.362   .     S
H555   O571    0.991   .     S
H556   O574    0.991   .     S
H557   O577    0.991   .     S
H558   O581    0.990   .     S
O570   S589    1.504   .     D
O571   S589    1.674   .     S
O572   S590    1.501   .     D
O573   S590    1.504   .     D
O574   S590    1.678   .     S
O575   S591    1.503   .     D
O576   S591    1.503   .     D
O577   S147    1.682   1_556 S
O578   S592    1.503   .     D
O579   S592    1.503   .     D
O588   S589    1.501   .     D
S592   O137    1.682   1_556 S
C593   O643    1.300   .     A
C593   O656    1.292   .     A
C593   C606    1.452   .     S
C594   C596    1.424   .     A
C594   C619    1.423   .     A
C594   S666    1.770   .     S
C595   C620    1.425   .     A
C595   C614    1.386   .     A
C596   C615    1.385   .     A
C596   C151    1.519   1_556 S
C597   O660    1.292   .     A
C597   C599    1.431   .     S
C597   O658    1.288   .     A
C598   O661    1.288   .     A
C598   O659    1.292   .     A
C598   C600    1.429   .     S
C600   C451    1.337   1_655 S
C600   F476    1.364   1_655 S
C601   C612    1.403   .     A
C601   C603    1.390   .     A
C601   H627    1.083   .     S
C602   H633    1.083   .     S
C602   C613    1.402   .     A
C602   C605    1.391   .     A
C603   C606    1.398   .     A
C603   H634    1.083   .     S
C604   O654    1.301   .     A
C604   O657    1.297   .     A
C604   C607    1.464   .     S
C605   C607    1.403   .     A
C605   H635    1.083   .     S
C606   C608    1.400   .     A
C607   C609    1.404   .     A
C608   C610    1.390   .     A
C608   H636    1.084   .     S
C609   H637    1.083   .     S
C609   C611    1.389   .     A
C610   F625    1.358   .     S
C610   C612    1.404   .     A
C611   C613    1.403   .     A
C611   F626    1.358   .     S
C612   C835    1.464   1_545 S
C613   C834    1.464   .     S
C614   H638    1.083   .     S
C614   C616    1.403   .     A
C615   C617    1.404   .     A
C615   H639    1.082   .     S
C616   S663    1.792   .     S
C616   N641    1.395   .     A
C617   S664    1.784   .     S
C617   N642    1.396   .     A
C618   C620    1.423   .     A
C618   H640    1.081   .     S
C618   N641    1.369   .     A
C619   N642    1.371   .     A
C619   H628    1.079   .     S
C620   S665    1.771   .     S
Cu621  Cu622   2.693   .     S
Cu621  O657    1.948   .     S
Cu621  O661    1.960   .     S
Cu621  N642    2.023   .     S
Cu621  O643    1.956   .     S
Cu621  O658    1.965   .     S
Cu622  O656    1.948   .     S
Cu622  N641    2.023   .     S
Cu622  O654    1.956   .     S
Cu622  O660    1.960   .     S
Cu622  O659    1.965   .     S
F623   C451    1.362   1_655 S
H629   O645    0.991   .     S
H630   O648    0.991   .     S
H631   O651    0.991   .     S
H632   O655    0.990   .     S
O644   S663    1.504   .     D
O645   S663    1.674   .     S
O646   S664    1.501   .     D
O647   S664    1.504   .     D
O648   S664    1.678   .     S
O649   S665    1.503   .     D
O650   S665    1.503   .     D
O651   S221    1.682   1_556 S
O652   S666    1.503   .     D
O653   S666    1.503   .     D
O662   S663    1.501   .     D
S666   O211    1.682   1_556 S
C667   O717    1.300   .     A
C667   O730    1.292   .     A
C667   C680    1.452   .     S
C668   C670    1.424   .     A
C668   C693    1.423   .     A
C668   S740    1.770   .     S
C669   C694    1.425   .     A
C669   C688    1.386   .     A
C670   C689    1.385   .     A
C670   C225    1.519   1_556 S
C671   O734    1.292   .     A
C671   C673    1.431   .     S
C671   O732    1.288   .     A
C672   O735    1.288   .     A
C672   O733    1.292   .     A
C672   C674    1.429   .     S
C673   C822    1.337   1_455 S
C673   F845    1.362   1_455 S
C674   C747    1.337   .     S
C674   F772    1.364   .     S
C675   C686    1.403   .     A
C675   C677    1.390   .     A
C675   H701    1.083   .     S
C676   H707    1.083   .     S
C676   C687    1.402   .     A
C676   C679    1.391   .     A
C677   C680    1.398   .     A
C677   H708    1.083   .     S
C678   O728    1.301   .     A
C678   O731    1.297   .     A
C678   C681    1.464   .     S
C679   C681    1.403   .     A
C679   H709    1.083   .     S
C680   C682    1.400   .     A
C681   C683    1.404   .     A
C682   C684    1.390   .     A
C682   H710    1.084   .     S
C683   H711    1.083   .     S
C683   C685    1.389   .     A
C684   F699    1.358   .     S
C684   C686    1.404   .     A
C685   C687    1.403   .     A
C685   F700    1.358   .     S
C687   C464    1.464   1_565 S
C688   H712    1.083   .     S
C688   C690    1.403   .     A
C689   C691    1.404   .     A
C689   H713    1.082   .     S
C690   S737    1.792   .     S
C690   N715    1.395   .     A
C691   S738    1.784   .     S
C691   N716    1.396   .     A
C692   C694    1.423   .     A
C692   H714    1.081   .     S
C692   N715    1.369   .     A
C693   N716    1.371   .     A
C693   H702    1.079   .     S
C694   S739    1.771   .     S
Cu695  Cu696   2.693   .     S
Cu695  O731    1.948   .     S
Cu695  O735    1.960   .     S
Cu695  N716    2.023   .     S
Cu695  O717    1.956   .     S
Cu695  O732    1.965   .     S
Cu696  O730    1.948   .     S
Cu696  N715    2.023   .     S
Cu696  O728    1.956   .     S
Cu696  O734    1.960   .     S
Cu696  O733    1.965   .     S
F697   C747    1.362   .     S
F698   C822    1.364   1_455 S
H703   O719    0.991   .     S
H704   O722    0.991   .     S
H705   O725    0.991   .     S
H706   O729    0.990   .     S
O718   S737    1.504   .     D
O719   S737    1.674   .     S
O720   S738    1.501   .     D
O721   S738    1.504   .     D
O722   S738    1.678   .     S
O723   S739    1.503   .     D
O724   S739    1.503   .     D
O725   S295    1.682   1_556 S
O726   S740    1.503   .     D
O727   S740    1.503   .     D
O736   S737    1.501   .     D
S740   O285    1.682   1_556 S
C741   O791    1.300   .     A
C741   O804    1.292   .     A
C741   C754    1.452   .     S
C742   C744    1.424   .     A
C742   C767    1.423   .     A
C742   S814    1.770   .     S
C743   C768    1.425   .     A
C743   C762    1.386   .     A
C744   C763    1.385   .     A
C744   C299    1.519   1_556 S
C745   O808    1.292   .     A
C745   C747    1.431   .     S
C745   O806    1.288   .     A
C746   O809    1.288   .     A
C746   O807    1.292   .     A
C746   C748    1.429   .     S
C748   C821    1.337   .     S
C748   F846    1.364   .     S
C749   C760    1.403   .     A
C749   C751    1.390   .     A
C749   H775    1.083   .     S
C750   H781    1.083   .     S
C750   C761    1.402   .     A
C750   C753    1.391   .     A
C751   C754    1.398   .     A
C751   H782    1.083   .     S
C752   O802    1.301   .     A
C752   O805    1.297   .     A
C752   C755    1.464   .     S
C753   C755    1.403   .     A
C753   H783    1.083   .     S
C754   C756    1.400   .     A
C755   C757    1.404   .     A
C756   C758    1.390   .     A
C756   H784    1.084   .     S
C757   H785    1.083   .     S
C757   C759    1.389   .     A
C758   F773    1.358   .     S
C758   C760    1.404   .     A
C759   C761    1.403   .     A
C759   F774    1.358   .     S
C761   C538    1.464   1_565 S
C762   H786    1.083   .     S
C762   C764    1.403   .     A
C763   C765    1.404   .     A
C763   H787    1.082   .     S
C764   S811    1.792   .     S
C764   N789    1.395   .     A
C765   S812    1.784   .     S
C765   N790    1.396   .     A
C766   C768    1.423   .     A
C766   H788    1.081   .     S
C766   N789    1.369   .     A
C767   N790    1.371   .     A
C767   H776    1.079   .     S
C768   S813    1.771   .     S
Cu769  Cu770   2.693   .     S
Cu769  O805    1.948   .     S
Cu769  O809    1.960   .     S
Cu769  N790    2.023   .     S
Cu769  O791    1.956   .     S
Cu769  O806    1.965   .     S
Cu770  O804    1.948   .     S
Cu770  N789    2.023   .     S
Cu770  O802    1.956   .     S
Cu770  O808    1.960   .     S
Cu770  O807    1.965   .     S
F771   C821    1.362   .     S
H777   O793    0.991   .     S
H778   O796    0.991   .     S
H779   O799    0.991   .     S
H780   O803    0.990   .     S
O792   S811    1.504   .     D
O793   S811    1.674   .     S
O794   S812    1.501   .     D
O795   S812    1.504   .     D
O796   S812    1.678   .     S
O797   S813    1.503   .     D
O798   S813    1.503   .     D
O799   S369    1.682   1_556 S
O800   S814    1.503   .     D
O801   S814    1.503   .     D
O810   S811    1.501   .     D
S814   O359    1.682   1_556 S
C815   O865    1.300   .     A
C815   O878    1.292   .     A
C815   C828    1.452   .     S
C816   C818    1.424   .     A
C816   C841    1.423   .     A
C816   S888    1.770   .     S
C817   C842    1.425   .     A
C817   C836    1.386   .     A
C818   C837    1.385   .     A
C818   C373    1.519   1_556 S
C819   O882    1.292   .     A
C819   C821    1.431   .     S
C819   O880    1.288   .     A
C820   O883    1.288   .     A
C820   O881    1.292   .     A
C820   C822    1.429   .     S
C822   C673    1.337   1_655 S
C822   F698    1.364   1_655 S
C823   C834    1.403   .     A
C823   C825    1.390   .     A
C823   H849    1.083   .     S
C824   H855    1.083   .     S
C824   C835    1.402   .     A
C824   C827    1.391   .     A
C825   C828    1.398   .     A
C825   H856    1.083   .     S
C826   O876    1.301   .     A
C826   O879    1.297   .     A
C826   C829    1.464   .     S
C827   C829    1.403   .     A
C827   H857    1.083   .     S
C828   C830    1.400   .     A
C829   C831    1.404   .     A
C830   C832    1.390   .     A
C830   H858    1.084   .     S
C831   H859    1.083   .     S
C831   C833    1.389   .     A
C832   F847    1.358   .     S
C832   C834    1.404   .     A
C833   C835    1.403   .     A
C833   F848    1.358   .     S
C835   C612    1.464   1_565 S
C836   H860    1.083   .     S
C836   C838    1.403   .     A
C837   C839    1.404   .     A
C837   H861    1.082   .     S
C838   S885    1.792   .     S
C838   N863    1.395   .     A
C839   S886    1.784   .     S
C839   N864    1.396   .     A
C840   C842    1.423   .     A
C840   H862    1.081   .     S
C840   N863    1.369   .     A
C841   N864    1.371   .     A
C841   H850    1.079   .     S
C842   S887    1.771   .     S
Cu843  Cu844   2.693   .     S
Cu843  O879    1.948   .     S
Cu843  O883    1.960   .     S
Cu843  N864    2.023   .     S
Cu843  O865    1.956   .     S
Cu843  O880    1.965   .     S
Cu844  O878    1.948   .     S
Cu844  N863    2.023   .     S
Cu844  O876    1.956   .     S
Cu844  O882    1.960   .     S
Cu844  O881    1.965   .     S
F845   C673    1.362   1_655 S
H851   O867    0.991   .     S
H852   O870    0.991   .     S
H853   O873    0.991   .     S
H854   O877    0.990   .     S
O866   S885    1.504   .     D
O867   S885    1.674   .     S
O868   S886    1.501   .     D
O869   S886    1.504   .     D
O870   S886    1.678   .     S
O871   S887    1.503   .     D
O872   S887    1.503   .     D
O873   S443    1.682   1_556 S
O874   S888    1.503   .     D
O875   S888    1.503   .     D
O884   S885    1.501   .     D
S888   O433    1.682   1_556 S
