data_str_m2_o2_o10_pcu_sym.252
_audit_creation_date              2020-01-03
_audit_creation_method            'Materials Studio'
_symmetry_space_group_name_H-M    'P1'
_symmetry_Int_Tables_number       1
_symmetry_cell_setting            triclinic
loop_
_symmetry_equiv_pos_as_xyz
  x,y,z
_cell_length_a                    26.3015
_cell_length_b                    30.1855
_cell_length_c                    27.7590
_cell_angle_alpha                 90.1282
_cell_angle_beta                  96.9225
_cell_angle_gamma                 89.8955
loop_
_atom_site_label
_atom_site_type_symbol
_atom_site_fract_x
_atom_site_fract_y
_atom_site_fract_z
_atom_site_U_iso_or_equiv
_atom_site_adp_type
_atom_site_occupancy
C1     C     0.16795   0.16482   0.25005   0.00000  Uiso   1.00
C2     C     0.16667   0.33484   0.25007   0.00000  Uiso   1.00
C3     C     0.18215   0.28890   0.05597   0.00000  Uiso   1.00
C4     C     0.11987   0.24355   0.44082   0.00000  Uiso   1.00
C5     C     0.18207   0.28701   0.10692   0.00000  Uiso   1.00
C6     C     0.12192   0.24399   0.39010   0.00000  Uiso   1.00
C7     C     0.15209   0.21337   0.10237   0.00000  Uiso   1.00
C8     C     0.21092   0.25616   0.40112   0.00000  Uiso   1.00
C9     C     0.15289   0.21298   0.05184   0.00000  Uiso   1.00
C10    C     0.21115   0.25605   0.45182   0.00000  Uiso   1.00
C11    C     0.16691   0.25099   0.02740   0.00000  Uiso   1.00
C12    C     0.16560   0.25011   0.47278   0.00000  Uiso   1.00
C13    C     0.06812   0.25045   0.23801   0.00000  Uiso   1.00
C14    C     0.26514   0.24915   0.26182   0.00000  Uiso   1.00
C15    C     0.01385   0.25721   0.23263   0.00000  Uiso   1.00
C16    C     0.31911   0.24127   0.26631   0.00000  Uiso   1.00
C17    C     0.15207   0.04769   0.29101   0.00000  Uiso   1.00
C18    C     0.21702   0.45040   0.25660   0.00000  Uiso   1.00
C19    C     0.15112   0.09374   0.28890   0.00000  Uiso   1.00
C20    C     0.21483   0.40433   0.25469   0.00000  Uiso   1.00
C21    C     0.16982   0.11622   0.25045   0.00000  Uiso   1.00
C22    C     0.16751   0.38276   0.25052   0.00000  Uiso   1.00
C23    C     0.19055   0.09172   0.21396   0.00000  Uiso   1.00
C24    C     0.12183   0.40712   0.24816   0.00000  Uiso   1.00
C25    C     0.19072   0.04565   0.21587   0.00000  Uiso   1.00
C26    C     0.12389   0.45315   0.24937   0.00000  Uiso   1.00
C27    C     0.17171   0.02348   0.25410   0.00000  Uiso   1.00
C28    C     0.17121   0.47499   0.25386   0.00000  Uiso   1.00
Cu29   Cu    0.16667   0.25000   0.29822   0.00000  Uiso   1.00
Cu30   Cu    0.16667   0.25001   0.20179   0.00000  Uiso   1.00
H31    H     0.13546   0.11198   0.31740   0.00000  Uiso   1.00
H32    H     0.25002   0.38527   0.25700   0.00000  Uiso   1.00
H33    H     0.20596   0.02692   0.18747   0.00000  Uiso   1.00
H34    H     0.08857   0.47203   0.24685   0.00000  Uiso   1.00
H35    H     0.19407   0.31579   0.12850   0.00000  Uiso   1.00
H36    H     0.08690   0.24000   0.36636   0.00000  Uiso   1.00
H37    H     0.13978   0.18399   0.11980   0.00000  Uiso   1.00
H38    H     0.24669   0.26142   0.38663   0.00000  Uiso   1.00
H39    H     0.14244   0.18292   0.03189   0.00000  Uiso   1.00
H40    H     0.24703   0.26071   0.47470   0.00000  Uiso   1.00
N41    N     0.16667   0.25001   0.12935   0.00000  Uiso   1.00
N42    N     0.16667   0.24999   0.37066   0.00000  Uiso   1.00
O43    O     0.16667   0.18573   0.29072   0.00000  Uiso   1.00
O44    O     0.16666   0.31427   0.20929   0.00000  Uiso   1.00
O45    O     0.16667   0.18573   0.20928   0.00000  Uiso   1.00
O46    O     0.16666   0.31427   0.29072   0.00000  Uiso   1.00
O47    O     0.09161   0.24999   0.28132   0.00000  Uiso   1.00
O48    O     0.24172   0.25001   0.21868   0.00000  Uiso   1.00
O49    O     0.09161   0.25000   0.19989   0.00000  Uiso   1.00
O50    O     0.24172   0.25000   0.30012   0.00000  Uiso   1.00
Cl51   Cl    0.32275   0.29305   0.18460   0.00000  Uiso   1.00
Cl52   Cl    0.00872   0.20128   0.31021   0.00000  Uiso   1.00
Cl53   Cl    0.12951   0.02155   0.34099   0.00000  Uiso   1.00
Cl54   Cl    0.27762   0.47601   0.26398   0.00000  Uiso   1.00
Cl55   Cl    0.21924   0.11654   0.16654   0.00000  Uiso   1.00
Cl56   Cl    0.06168   0.38101   0.24396   0.00000  Uiso   1.00
C57    C     0.19676   0.33222   0.03397   0.00000  Uiso   1.00
C58    C     0.25418   0.34161   0.04649   0.00000  Uiso   1.00
C59    C     0.26981   0.38336   0.02115   0.00000  Uiso   1.00
H60    H     0.26245   0.37929   0.48113   0.00000  Uiso   1.00
H61    H     0.24803   0.41242   0.03233   0.00000  Uiso   1.00
H62    H     0.31133   0.38954   0.03129   0.00000  Uiso   1.00
H63    H     0.26351   0.34608   0.08632   0.00000  Uiso   1.00
H64    H     0.27700   0.31323   0.03523   0.00000  Uiso   1.00
H65    H     0.18665   0.33243   0.49401   0.00000  Uiso   1.00
H66    H     0.17430   0.35947   0.04828   0.00000  Uiso   1.00
C67    C     0.06809   0.23746   0.45854   0.00000  Uiso   1.00
C68    C     0.04958   0.18942   0.45109   0.00000  Uiso   1.00
C69    C     0.32956   0.18341   0.46625   0.00000  Uiso   1.00
H70    H     0.32883   0.19398   0.00453   0.00000  Uiso   1.00
H71    H     0.30142   0.20312   0.44220   0.00000  Uiso   1.00
H72    H     0.31842   0.14797   0.46284   0.00000  Uiso   1.00
H73    H     0.04841   0.17984   0.41233   0.00000  Uiso   1.00
H74    H     0.07643   0.16661   0.47268   0.00000  Uiso   1.00
H75    H     0.06899   0.24664   0.49735   0.00000  Uiso   1.00
H76    H     0.04011   0.26024   0.43801   0.00000  Uiso   1.00
C77    C     0.50128   0.16482   0.25005   0.00000  Uiso   1.00
C78    C     0.50000   0.33484   0.25007   0.00000  Uiso   1.00
C79    C     0.51548   0.28890   0.05597   0.00000  Uiso   1.00
C80    C     0.45321   0.24355   0.44082   0.00000  Uiso   1.00
C81    C     0.51540   0.28701   0.10692   0.00000  Uiso   1.00
C82    C     0.45525   0.24399   0.39010   0.00000  Uiso   1.00
C83    C     0.48542   0.21337   0.10237   0.00000  Uiso   1.00
C84    C     0.54425   0.25616   0.40112   0.00000  Uiso   1.00
C85    C     0.48623   0.21298   0.05184   0.00000  Uiso   1.00
C86    C     0.54448   0.25605   0.45182   0.00000  Uiso   1.00
C87    C     0.50025   0.25099   0.02740   0.00000  Uiso   1.00
C88    C     0.49893   0.25011   0.47278   0.00000  Uiso   1.00
C89    C     0.40146   0.25045   0.23801   0.00000  Uiso   1.00
C90    C     0.59848   0.24915   0.26182   0.00000  Uiso   1.00
C91    C     0.34718   0.25721   0.23263   0.00000  Uiso   1.00
C92    C     0.65245   0.24127   0.26631   0.00000  Uiso   1.00
C93    C     0.48540   0.04769   0.29101   0.00000  Uiso   1.00
C94    C     0.55036   0.45040   0.25660   0.00000  Uiso   1.00
C95    C     0.48446   0.09374   0.28890   0.00000  Uiso   1.00
C96    C     0.54817   0.40433   0.25469   0.00000  Uiso   1.00
C97    C     0.50316   0.11622   0.25045   0.00000  Uiso   1.00
C98    C     0.50085   0.38276   0.25052   0.00000  Uiso   1.00
C99    C     0.52389   0.09172   0.21396   0.00000  Uiso   1.00
C100   C     0.45517   0.40712   0.24816   0.00000  Uiso   1.00
C101   C     0.52405   0.04565   0.21587   0.00000  Uiso   1.00
C102   C     0.45722   0.45315   0.24937   0.00000  Uiso   1.00
C103   C     0.50504   0.02348   0.25410   0.00000  Uiso   1.00
C104   C     0.50455   0.47499   0.25386   0.00000  Uiso   1.00
Cu105  Cu    0.50000   0.25000   0.29822   0.00000  Uiso   1.00
Cu106  Cu    0.50000   0.25001   0.20179   0.00000  Uiso   1.00
H107   H     0.46879   0.11198   0.31740   0.00000  Uiso   1.00
H108   H     0.58335   0.38527   0.25700   0.00000  Uiso   1.00
H109   H     0.53929   0.02692   0.18747   0.00000  Uiso   1.00
H110   H     0.42190   0.47203   0.24685   0.00000  Uiso   1.00
H111   H     0.52740   0.31579   0.12850   0.00000  Uiso   1.00
H112   H     0.42024   0.24000   0.36636   0.00000  Uiso   1.00
H113   H     0.47312   0.18399   0.11980   0.00000  Uiso   1.00
H114   H     0.58002   0.26142   0.38663   0.00000  Uiso   1.00
H115   H     0.47577   0.18292   0.03189   0.00000  Uiso   1.00
H116   H     0.58036   0.26071   0.47470   0.00000  Uiso   1.00
N117   N     0.50000   0.25001   0.12935   0.00000  Uiso   1.00
N118   N     0.50000   0.24999   0.37066   0.00000  Uiso   1.00
O119   O     0.50000   0.18573   0.29072   0.00000  Uiso   1.00
O120   O     0.50000   0.31427   0.20929   0.00000  Uiso   1.00
O121   O     0.50000   0.18573   0.20928   0.00000  Uiso   1.00
O122   O     0.50000   0.31427   0.29072   0.00000  Uiso   1.00
O123   O     0.42495   0.24999   0.28132   0.00000  Uiso   1.00
O124   O     0.57505   0.25001   0.21868   0.00000  Uiso   1.00
O125   O     0.42495   0.25000   0.19989   0.00000  Uiso   1.00
O126   O     0.57505   0.25000   0.30012   0.00000  Uiso   1.00
Cl127  Cl    0.65608   0.29305   0.18460   0.00000  Uiso   1.00
Cl128  Cl    0.34205   0.20128   0.31021   0.00000  Uiso   1.00
Cl129  Cl    0.46285   0.02155   0.34099   0.00000  Uiso   1.00
Cl130  Cl    0.61096   0.47601   0.26398   0.00000  Uiso   1.00
Cl131  Cl    0.55257   0.11654   0.16654   0.00000  Uiso   1.00
Cl132  Cl    0.39501   0.38101   0.24396   0.00000  Uiso   1.00
C133   C     0.53009   0.33222   0.03397   0.00000  Uiso   1.00
C134   C     0.58752   0.34161   0.04649   0.00000  Uiso   1.00
C135   C     0.60314   0.38336   0.02115   0.00000  Uiso   1.00
H136   H     0.59578   0.37929   0.48113   0.00000  Uiso   1.00
H137   H     0.58136   0.41242   0.03233   0.00000  Uiso   1.00
H138   H     0.64467   0.38954   0.03129   0.00000  Uiso   1.00
H139   H     0.59684   0.34608   0.08632   0.00000  Uiso   1.00
H140   H     0.61034   0.31323   0.03523   0.00000  Uiso   1.00
H141   H     0.51999   0.33243   0.49401   0.00000  Uiso   1.00
H142   H     0.50763   0.35947   0.04828   0.00000  Uiso   1.00
C143   C     0.40142   0.23746   0.45854   0.00000  Uiso   1.00
C144   C     0.38291   0.18942   0.45109   0.00000  Uiso   1.00
C145   C     0.66289   0.18341   0.46625   0.00000  Uiso   1.00
H146   H     0.66217   0.19398   0.00453   0.00000  Uiso   1.00
H147   H     0.63475   0.20312   0.44220   0.00000  Uiso   1.00
H148   H     0.65176   0.14797   0.46284   0.00000  Uiso   1.00
H149   H     0.38174   0.17984   0.41233   0.00000  Uiso   1.00
H150   H     0.40976   0.16661   0.47268   0.00000  Uiso   1.00
H151   H     0.40232   0.24664   0.49735   0.00000  Uiso   1.00
H152   H     0.37345   0.26024   0.43801   0.00000  Uiso   1.00
C153   C     0.83461   0.16482   0.25005   0.00000  Uiso   1.00
C154   C     0.83334   0.33484   0.25007   0.00000  Uiso   1.00
C155   C     0.84882   0.28890   0.05597   0.00000  Uiso   1.00
C156   C     0.78654   0.24355   0.44082   0.00000  Uiso   1.00
C157   C     0.84874   0.28701   0.10692   0.00000  Uiso   1.00
C158   C     0.78858   0.24399   0.39010   0.00000  Uiso   1.00
C159   C     0.81876   0.21337   0.10237   0.00000  Uiso   1.00
C160   C     0.87758   0.25616   0.40112   0.00000  Uiso   1.00
C161   C     0.81956   0.21298   0.05184   0.00000  Uiso   1.00
C162   C     0.87781   0.25605   0.45182   0.00000  Uiso   1.00
C163   C     0.83358   0.25099   0.02740   0.00000  Uiso   1.00
C164   C     0.83226   0.25011   0.47278   0.00000  Uiso   1.00
C165   C     0.73479   0.25045   0.23801   0.00000  Uiso   1.00
C166   C     0.93181   0.24915   0.26182   0.00000  Uiso   1.00
C167   C     0.68051   0.25721   0.23263   0.00000  Uiso   1.00
C168   C     0.98578   0.24127   0.26631   0.00000  Uiso   1.00
C169   C     0.81874   0.04769   0.29101   0.00000  Uiso   1.00
C170   C     0.88369   0.45040   0.25660   0.00000  Uiso   1.00
C171   C     0.81779   0.09374   0.28890   0.00000  Uiso   1.00
C172   C     0.88150   0.40433   0.25469   0.00000  Uiso   1.00
C173   C     0.83649   0.11622   0.25045   0.00000  Uiso   1.00
C174   C     0.83418   0.38276   0.25052   0.00000  Uiso   1.00
C175   C     0.85722   0.09172   0.21396   0.00000  Uiso   1.00
C176   C     0.78850   0.40712   0.24816   0.00000  Uiso   1.00
C177   C     0.85739   0.04565   0.21587   0.00000  Uiso   1.00
C178   C     0.79055   0.45315   0.24937   0.00000  Uiso   1.00
C179   C     0.83838   0.02348   0.25410   0.00000  Uiso   1.00
C180   C     0.83788   0.47499   0.25386   0.00000  Uiso   1.00
Cu181  Cu    0.83333   0.25000   0.29822   0.00000  Uiso   1.00
Cu182  Cu    0.83333   0.25001   0.20179   0.00000  Uiso   1.00
H183   H     0.80212   0.11198   0.31740   0.00000  Uiso   1.00
H184   H     0.91669   0.38527   0.25700   0.00000  Uiso   1.00
H185   H     0.87262   0.02692   0.18747   0.00000  Uiso   1.00
H186   H     0.75523   0.47203   0.24685   0.00000  Uiso   1.00
H187   H     0.86074   0.31579   0.12850   0.00000  Uiso   1.00
H188   H     0.75357   0.24000   0.36636   0.00000  Uiso   1.00
H189   H     0.80645   0.18399   0.11980   0.00000  Uiso   1.00
H190   H     0.91335   0.26142   0.38663   0.00000  Uiso   1.00
H191   H     0.80911   0.18292   0.03189   0.00000  Uiso   1.00
H192   H     0.91369   0.26071   0.47470   0.00000  Uiso   1.00
N193   N     0.83333   0.25001   0.12935   0.00000  Uiso   1.00
N194   N     0.83333   0.24999   0.37066   0.00000  Uiso   1.00
O195   O     0.83334   0.18573   0.29072   0.00000  Uiso   1.00
O196   O     0.83333   0.31427   0.20929   0.00000  Uiso   1.00
O197   O     0.83334   0.18573   0.20928   0.00000  Uiso   1.00
O198   O     0.83333   0.31427   0.29072   0.00000  Uiso   1.00
O199   O     0.75828   0.24999   0.28132   0.00000  Uiso   1.00
O200   O     0.90839   0.25001   0.21868   0.00000  Uiso   1.00
O201   O     0.75828   0.25000   0.19989   0.00000  Uiso   1.00
O202   O     0.90839   0.25000   0.30012   0.00000  Uiso   1.00
Cl203  Cl    0.98941   0.29305   0.18460   0.00000  Uiso   1.00
Cl204  Cl    0.67539   0.20128   0.31021   0.00000  Uiso   1.00
Cl205  Cl    0.79618   0.02155   0.34099   0.00000  Uiso   1.00
Cl206  Cl    0.94429   0.47601   0.26398   0.00000  Uiso   1.00
Cl207  Cl    0.88590   0.11654   0.16654   0.00000  Uiso   1.00
Cl208  Cl    0.72834   0.38101   0.24396   0.00000  Uiso   1.00
C209   C     0.86343   0.33222   0.03397   0.00000  Uiso   1.00
C210   C     0.92085   0.34161   0.04649   0.00000  Uiso   1.00
C211   C     0.93648   0.38336   0.02115   0.00000  Uiso   1.00
H212   H     0.92911   0.37929   0.48113   0.00000  Uiso   1.00
H213   H     0.91469   0.41242   0.03233   0.00000  Uiso   1.00
H214   H     0.97800   0.38954   0.03129   0.00000  Uiso   1.00
H215   H     0.93018   0.34608   0.08632   0.00000  Uiso   1.00
H216   H     0.94367   0.31323   0.03523   0.00000  Uiso   1.00
H217   H     0.85332   0.33243   0.49401   0.00000  Uiso   1.00
H218   H     0.84096   0.35947   0.04828   0.00000  Uiso   1.00
C219   C     0.73476   0.23746   0.45854   0.00000  Uiso   1.00
C220   C     0.71625   0.18942   0.45109   0.00000  Uiso   1.00
C221   C     0.99622   0.18341   0.46625   0.00000  Uiso   1.00
H222   H     0.99550   0.19398   0.00453   0.00000  Uiso   1.00
H223   H     0.96808   0.20312   0.44220   0.00000  Uiso   1.00
H224   H     0.98509   0.14797   0.46284   0.00000  Uiso   1.00
H225   H     0.71508   0.17984   0.41233   0.00000  Uiso   1.00
H226   H     0.74309   0.16661   0.47268   0.00000  Uiso   1.00
H227   H     0.73566   0.24664   0.49735   0.00000  Uiso   1.00
H228   H     0.70678   0.26024   0.43801   0.00000  Uiso   1.00
C229   C     0.16795   0.66482   0.25005   0.00000  Uiso   1.00
C230   C     0.16667   0.83484   0.25007   0.00000  Uiso   1.00
C231   C     0.18215   0.78890   0.05597   0.00000  Uiso   1.00
C232   C     0.11987   0.74355   0.44082   0.00000  Uiso   1.00
C233   C     0.18207   0.78701   0.10692   0.00000  Uiso   1.00
C234   C     0.12192   0.74399   0.39010   0.00000  Uiso   1.00
C235   C     0.15209   0.71337   0.10237   0.00000  Uiso   1.00
C236   C     0.21092   0.75616   0.40112   0.00000  Uiso   1.00
C237   C     0.15289   0.71298   0.05184   0.00000  Uiso   1.00
C238   C     0.21115   0.75605   0.45182   0.00000  Uiso   1.00
C239   C     0.16691   0.75099   0.02740   0.00000  Uiso   1.00
C240   C     0.16560   0.75011   0.47278   0.00000  Uiso   1.00
C241   C     0.06812   0.75045   0.23801   0.00000  Uiso   1.00
C242   C     0.26514   0.74915   0.26182   0.00000  Uiso   1.00
C243   C     0.01385   0.75721   0.23263   0.00000  Uiso   1.00
C244   C     0.31911   0.74127   0.26631   0.00000  Uiso   1.00
C245   C     0.15207   0.54769   0.29101   0.00000  Uiso   1.00
C246   C     0.21702   0.95040   0.25660   0.00000  Uiso   1.00
C247   C     0.15112   0.59374   0.28890   0.00000  Uiso   1.00
C248   C     0.21483   0.90433   0.25469   0.00000  Uiso   1.00
C249   C     0.16982   0.61622   0.25045   0.00000  Uiso   1.00
C250   C     0.16751   0.88276   0.25052   0.00000  Uiso   1.00
C251   C     0.19055   0.59172   0.21396   0.00000  Uiso   1.00
C252   C     0.12183   0.90712   0.24816   0.00000  Uiso   1.00
C253   C     0.19072   0.54565   0.21587   0.00000  Uiso   1.00
C254   C     0.12389   0.95315   0.24937   0.00000  Uiso   1.00
C255   C     0.17171   0.52348   0.25410   0.00000  Uiso   1.00
C256   C     0.17121   0.97499   0.25386   0.00000  Uiso   1.00
Cu257  Cu    0.16667   0.75000   0.29822   0.00000  Uiso   1.00
Cu258  Cu    0.16667   0.75001   0.20179   0.00000  Uiso   1.00
H259   H     0.13546   0.61198   0.31740   0.00000  Uiso   1.00
H260   H     0.25002   0.88527   0.25700   0.00000  Uiso   1.00
H261   H     0.20596   0.52692   0.18747   0.00000  Uiso   1.00
H262   H     0.08857   0.97203   0.24685   0.00000  Uiso   1.00
H263   H     0.19407   0.81579   0.12850   0.00000  Uiso   1.00
H264   H     0.08690   0.74000   0.36636   0.00000  Uiso   1.00
H265   H     0.13978   0.68399   0.11980   0.00000  Uiso   1.00
H266   H     0.24669   0.76142   0.38663   0.00000  Uiso   1.00
H267   H     0.14244   0.68292   0.03189   0.00000  Uiso   1.00
H268   H     0.24703   0.76071   0.47470   0.00000  Uiso   1.00
N269   N     0.16667   0.75001   0.12935   0.00000  Uiso   1.00
N270   N     0.16667   0.74999   0.37066   0.00000  Uiso   1.00
O271   O     0.16667   0.68573   0.29072   0.00000  Uiso   1.00
O272   O     0.16666   0.81427   0.20929   0.00000  Uiso   1.00
O273   O     0.16667   0.68573   0.20928   0.00000  Uiso   1.00
O274   O     0.16666   0.81427   0.29072   0.00000  Uiso   1.00
O275   O     0.09161   0.74999   0.28132   0.00000  Uiso   1.00
O276   O     0.24172   0.75001   0.21868   0.00000  Uiso   1.00
O277   O     0.09161   0.75000   0.19989   0.00000  Uiso   1.00
O278   O     0.24172   0.75000   0.30012   0.00000  Uiso   1.00
Cl279  Cl    0.32275   0.79305   0.18460   0.00000  Uiso   1.00
Cl280  Cl    0.00872   0.70128   0.31021   0.00000  Uiso   1.00
Cl281  Cl    0.12951   0.52155   0.34099   0.00000  Uiso   1.00
Cl282  Cl    0.27762   0.97601   0.26398   0.00000  Uiso   1.00
Cl283  Cl    0.21924   0.61654   0.16654   0.00000  Uiso   1.00
Cl284  Cl    0.06168   0.88101   0.24396   0.00000  Uiso   1.00
C285   C     0.19676   0.83222   0.03397   0.00000  Uiso   1.00
C286   C     0.25418   0.84161   0.04649   0.00000  Uiso   1.00
C287   C     0.26981   0.88336   0.02115   0.00000  Uiso   1.00
H288   H     0.26245   0.87929   0.48113   0.00000  Uiso   1.00
H289   H     0.24803   0.91242   0.03233   0.00000  Uiso   1.00
H290   H     0.31133   0.88954   0.03129   0.00000  Uiso   1.00
H291   H     0.26351   0.84608   0.08632   0.00000  Uiso   1.00
H292   H     0.27700   0.81323   0.03523   0.00000  Uiso   1.00
H293   H     0.18665   0.83243   0.49401   0.00000  Uiso   1.00
H294   H     0.17430   0.85947   0.04828   0.00000  Uiso   1.00
C295   C     0.06809   0.73746   0.45854   0.00000  Uiso   1.00
C296   C     0.04958   0.68942   0.45109   0.00000  Uiso   1.00
C297   C     0.32956   0.68341   0.46625   0.00000  Uiso   1.00
H298   H     0.32883   0.69398   0.00453   0.00000  Uiso   1.00
H299   H     0.30142   0.70312   0.44220   0.00000  Uiso   1.00
H300   H     0.31842   0.64797   0.46284   0.00000  Uiso   1.00
H301   H     0.04841   0.67984   0.41233   0.00000  Uiso   1.00
H302   H     0.07643   0.66661   0.47268   0.00000  Uiso   1.00
H303   H     0.06899   0.74664   0.49735   0.00000  Uiso   1.00
H304   H     0.04011   0.76024   0.43801   0.00000  Uiso   1.00
C305   C     0.50128   0.66482   0.25005   0.00000  Uiso   1.00
C306   C     0.50000   0.83484   0.25007   0.00000  Uiso   1.00
C307   C     0.51548   0.78890   0.05597   0.00000  Uiso   1.00
C308   C     0.45321   0.74355   0.44082   0.00000  Uiso   1.00
C309   C     0.51540   0.78701   0.10692   0.00000  Uiso   1.00
C310   C     0.45525   0.74399   0.39010   0.00000  Uiso   1.00
C311   C     0.48542   0.71337   0.10237   0.00000  Uiso   1.00
C312   C     0.54425   0.75616   0.40112   0.00000  Uiso   1.00
C313   C     0.48623   0.71298   0.05184   0.00000  Uiso   1.00
C314   C     0.54448   0.75605   0.45182   0.00000  Uiso   1.00
C315   C     0.50025   0.75099   0.02740   0.00000  Uiso   1.00
C316   C     0.49893   0.75011   0.47278   0.00000  Uiso   1.00
C317   C     0.40146   0.75045   0.23801   0.00000  Uiso   1.00
C318   C     0.59848   0.74915   0.26182   0.00000  Uiso   1.00
C319   C     0.34718   0.75721   0.23263   0.00000  Uiso   1.00
C320   C     0.65245   0.74127   0.26631   0.00000  Uiso   1.00
C321   C     0.48540   0.54769   0.29101   0.00000  Uiso   1.00
C322   C     0.55036   0.95040   0.25660   0.00000  Uiso   1.00
C323   C     0.48446   0.59374   0.28890   0.00000  Uiso   1.00
C324   C     0.54817   0.90433   0.25469   0.00000  Uiso   1.00
C325   C     0.50316   0.61622   0.25045   0.00000  Uiso   1.00
C326   C     0.50085   0.88276   0.25052   0.00000  Uiso   1.00
C327   C     0.52389   0.59172   0.21396   0.00000  Uiso   1.00
C328   C     0.45517   0.90712   0.24816   0.00000  Uiso   1.00
C329   C     0.52405   0.54565   0.21587   0.00000  Uiso   1.00
C330   C     0.45722   0.95315   0.24937   0.00000  Uiso   1.00
C331   C     0.50504   0.52348   0.25410   0.00000  Uiso   1.00
C332   C     0.50455   0.97499   0.25386   0.00000  Uiso   1.00
Cu333  Cu    0.50000   0.75000   0.29822   0.00000  Uiso   1.00
Cu334  Cu    0.50000   0.75001   0.20179   0.00000  Uiso   1.00
H335   H     0.46879   0.61198   0.31740   0.00000  Uiso   1.00
H336   H     0.58335   0.88527   0.25700   0.00000  Uiso   1.00
H337   H     0.53929   0.52692   0.18747   0.00000  Uiso   1.00
H338   H     0.42190   0.97203   0.24685   0.00000  Uiso   1.00
H339   H     0.52740   0.81579   0.12850   0.00000  Uiso   1.00
H340   H     0.42024   0.74000   0.36636   0.00000  Uiso   1.00
H341   H     0.47312   0.68399   0.11980   0.00000  Uiso   1.00
H342   H     0.58002   0.76142   0.38663   0.00000  Uiso   1.00
H343   H     0.47577   0.68292   0.03189   0.00000  Uiso   1.00
H344   H     0.58036   0.76071   0.47470   0.00000  Uiso   1.00
N345   N     0.50000   0.75001   0.12935   0.00000  Uiso   1.00
N346   N     0.50000   0.74999   0.37066   0.00000  Uiso   1.00
O347   O     0.50000   0.68573   0.29072   0.00000  Uiso   1.00
O348   O     0.50000   0.81427   0.20929   0.00000  Uiso   1.00
O349   O     0.50000   0.68573   0.20928   0.00000  Uiso   1.00
O350   O     0.50000   0.81427   0.29072   0.00000  Uiso   1.00
O351   O     0.42495   0.74999   0.28132   0.00000  Uiso   1.00
O352   O     0.57505   0.75001   0.21868   0.00000  Uiso   1.00
O353   O     0.42495   0.75000   0.19989   0.00000  Uiso   1.00
O354   O     0.57505   0.75000   0.30012   0.00000  Uiso   1.00
Cl355  Cl    0.65608   0.79305   0.18460   0.00000  Uiso   1.00
Cl356  Cl    0.34205   0.70128   0.31021   0.00000  Uiso   1.00
Cl357  Cl    0.46285   0.52155   0.34099   0.00000  Uiso   1.00
Cl358  Cl    0.61096   0.97601   0.26398   0.00000  Uiso   1.00
Cl359  Cl    0.55257   0.61654   0.16654   0.00000  Uiso   1.00
Cl360  Cl    0.39501   0.88101   0.24396   0.00000  Uiso   1.00
C361   C     0.53009   0.83222   0.03397   0.00000  Uiso   1.00
C362   C     0.58752   0.84161   0.04649   0.00000  Uiso   1.00
C363   C     0.60314   0.88336   0.02115   0.00000  Uiso   1.00
H364   H     0.59578   0.87929   0.48113   0.00000  Uiso   1.00
H365   H     0.58136   0.91242   0.03233   0.00000  Uiso   1.00
H366   H     0.64467   0.88954   0.03129   0.00000  Uiso   1.00
H367   H     0.59684   0.84608   0.08632   0.00000  Uiso   1.00
H368   H     0.61034   0.81323   0.03523   0.00000  Uiso   1.00
H369   H     0.51999   0.83243   0.49401   0.00000  Uiso   1.00
H370   H     0.50763   0.85947   0.04828   0.00000  Uiso   1.00
C371   C     0.40142   0.73746   0.45854   0.00000  Uiso   1.00
C372   C     0.38291   0.68942   0.45109   0.00000  Uiso   1.00
C373   C     0.66289   0.68341   0.46625   0.00000  Uiso   1.00
H374   H     0.66217   0.69398   0.00453   0.00000  Uiso   1.00
H375   H     0.63475   0.70312   0.44220   0.00000  Uiso   1.00
H376   H     0.65176   0.64797   0.46284   0.00000  Uiso   1.00
H377   H     0.38174   0.67984   0.41233   0.00000  Uiso   1.00
H378   H     0.40976   0.66661   0.47268   0.00000  Uiso   1.00
H379   H     0.40232   0.74664   0.49735   0.00000  Uiso   1.00
H380   H     0.37345   0.76024   0.43801   0.00000  Uiso   1.00
C381   C     0.83461   0.66482   0.25005   0.00000  Uiso   1.00
C382   C     0.83334   0.83484   0.25007   0.00000  Uiso   1.00
C383   C     0.84882   0.78890   0.05597   0.00000  Uiso   1.00
C384   C     0.78654   0.74355   0.44082   0.00000  Uiso   1.00
C385   C     0.84874   0.78701   0.10692   0.00000  Uiso   1.00
C386   C     0.78858   0.74399   0.39010   0.00000  Uiso   1.00
C387   C     0.81876   0.71337   0.10237   0.00000  Uiso   1.00
C388   C     0.87758   0.75616   0.40112   0.00000  Uiso   1.00
C389   C     0.81956   0.71298   0.05184   0.00000  Uiso   1.00
C390   C     0.87781   0.75605   0.45182   0.00000  Uiso   1.00
C391   C     0.83358   0.75099   0.02740   0.00000  Uiso   1.00
C392   C     0.83226   0.75011   0.47278   0.00000  Uiso   1.00
C393   C     0.73479   0.75045   0.23801   0.00000  Uiso   1.00
C394   C     0.93181   0.74915   0.26182   0.00000  Uiso   1.00
C395   C     0.68051   0.75721   0.23263   0.00000  Uiso   1.00
C396   C     0.98578   0.74127   0.26631   0.00000  Uiso   1.00
C397   C     0.81874   0.54769   0.29101   0.00000  Uiso   1.00
C398   C     0.88369   0.95040   0.25660   0.00000  Uiso   1.00
C399   C     0.81779   0.59374   0.28890   0.00000  Uiso   1.00
C400   C     0.88150   0.90433   0.25469   0.00000  Uiso   1.00
C401   C     0.83649   0.61622   0.25045   0.00000  Uiso   1.00
C402   C     0.83418   0.88276   0.25052   0.00000  Uiso   1.00
C403   C     0.85722   0.59172   0.21396   0.00000  Uiso   1.00
C404   C     0.78850   0.90712   0.24816   0.00000  Uiso   1.00
C405   C     0.85739   0.54565   0.21587   0.00000  Uiso   1.00
C406   C     0.79055   0.95315   0.24937   0.00000  Uiso   1.00
C407   C     0.83838   0.52348   0.25410   0.00000  Uiso   1.00
C408   C     0.83788   0.97499   0.25386   0.00000  Uiso   1.00
Cu409  Cu    0.83333   0.75000   0.29822   0.00000  Uiso   1.00
Cu410  Cu    0.83333   0.75001   0.20179   0.00000  Uiso   1.00
H411   H     0.80212   0.61198   0.31740   0.00000  Uiso   1.00
H412   H     0.91669   0.88527   0.25700   0.00000  Uiso   1.00
H413   H     0.87262   0.52692   0.18747   0.00000  Uiso   1.00
H414   H     0.75523   0.97203   0.24685   0.00000  Uiso   1.00
H415   H     0.86074   0.81579   0.12850   0.00000  Uiso   1.00
H416   H     0.75357   0.74000   0.36636   0.00000  Uiso   1.00
H417   H     0.80645   0.68399   0.11980   0.00000  Uiso   1.00
H418   H     0.91335   0.76142   0.38663   0.00000  Uiso   1.00
H419   H     0.80911   0.68292   0.03189   0.00000  Uiso   1.00
H420   H     0.91369   0.76071   0.47470   0.00000  Uiso   1.00
N421   N     0.83333   0.75001   0.12935   0.00000  Uiso   1.00
N422   N     0.83333   0.74999   0.37066   0.00000  Uiso   1.00
O423   O     0.83334   0.68573   0.29072   0.00000  Uiso   1.00
O424   O     0.83333   0.81427   0.20929   0.00000  Uiso   1.00
O425   O     0.83334   0.68573   0.20928   0.00000  Uiso   1.00
O426   O     0.83333   0.81427   0.29072   0.00000  Uiso   1.00
O427   O     0.75828   0.74999   0.28132   0.00000  Uiso   1.00
O428   O     0.90839   0.75001   0.21868   0.00000  Uiso   1.00
O429   O     0.75828   0.75000   0.19989   0.00000  Uiso   1.00
O430   O     0.90839   0.75000   0.30012   0.00000  Uiso   1.00
Cl431  Cl    0.98941   0.79305   0.18460   0.00000  Uiso   1.00
Cl432  Cl    0.67539   0.70128   0.31021   0.00000  Uiso   1.00
Cl433  Cl    0.79618   0.52155   0.34099   0.00000  Uiso   1.00
Cl434  Cl    0.94429   0.97601   0.26398   0.00000  Uiso   1.00
Cl435  Cl    0.88590   0.61654   0.16654   0.00000  Uiso   1.00
Cl436  Cl    0.72834   0.88101   0.24396   0.00000  Uiso   1.00
C437   C     0.86343   0.83222   0.03397   0.00000  Uiso   1.00
C438   C     0.92085   0.84161   0.04649   0.00000  Uiso   1.00
C439   C     0.93648   0.88336   0.02115   0.00000  Uiso   1.00
H440   H     0.92911   0.87929   0.48113   0.00000  Uiso   1.00
H441   H     0.91469   0.91242   0.03233   0.00000  Uiso   1.00
H442   H     0.97800   0.88954   0.03129   0.00000  Uiso   1.00
H443   H     0.93018   0.84608   0.08632   0.00000  Uiso   1.00
H444   H     0.94367   0.81323   0.03523   0.00000  Uiso   1.00
H445   H     0.85332   0.83243   0.49401   0.00000  Uiso   1.00
H446   H     0.84096   0.85947   0.04828   0.00000  Uiso   1.00
C447   C     0.73476   0.73746   0.45854   0.00000  Uiso   1.00
C448   C     0.71625   0.68942   0.45109   0.00000  Uiso   1.00
C449   C     0.99622   0.68341   0.46625   0.00000  Uiso   1.00
H450   H     0.99550   0.69398   0.00453   0.00000  Uiso   1.00
H451   H     0.96808   0.70312   0.44220   0.00000  Uiso   1.00
H452   H     0.98509   0.64797   0.46284   0.00000  Uiso   1.00
H453   H     0.71508   0.67984   0.41233   0.00000  Uiso   1.00
H454   H     0.74309   0.66661   0.47268   0.00000  Uiso   1.00
H455   H     0.73566   0.74664   0.49735   0.00000  Uiso   1.00
H456   H     0.70678   0.76024   0.43801   0.00000  Uiso   1.00
C457   C     0.16795   0.16482   0.75005   0.00000  Uiso   1.00
C458   C     0.16667   0.33484   0.75007   0.00000  Uiso   1.00
C459   C     0.18215   0.28890   0.55597   0.00000  Uiso   1.00
C460   C     0.11987   0.24355   0.94082   0.00000  Uiso   1.00
C461   C     0.18207   0.28701   0.60692   0.00000  Uiso   1.00
C462   C     0.12192   0.24399   0.89010   0.00000  Uiso   1.00
C463   C     0.15209   0.21337   0.60237   0.00000  Uiso   1.00
C464   C     0.21092   0.25616   0.90112   0.00000  Uiso   1.00
C465   C     0.15289   0.21298   0.55184   0.00000  Uiso   1.00
C466   C     0.21115   0.25605   0.95182   0.00000  Uiso   1.00
C467   C     0.16691   0.25099   0.52740   0.00000  Uiso   1.00
C468   C     0.16560   0.25011   0.97278   0.00000  Uiso   1.00
C469   C     0.06812   0.25045   0.73801   0.00000  Uiso   1.00
C470   C     0.26514   0.24915   0.76182   0.00000  Uiso   1.00
C471   C     0.01385   0.25721   0.73263   0.00000  Uiso   1.00
C472   C     0.31911   0.24127   0.76631   0.00000  Uiso   1.00
C473   C     0.15207   0.04769   0.79101   0.00000  Uiso   1.00
C474   C     0.21702   0.45040   0.75660   0.00000  Uiso   1.00
C475   C     0.15112   0.09374   0.78890   0.00000  Uiso   1.00
C476   C     0.21483   0.40433   0.75469   0.00000  Uiso   1.00
C477   C     0.16982   0.11622   0.75045   0.00000  Uiso   1.00
C478   C     0.16751   0.38276   0.75052   0.00000  Uiso   1.00
C479   C     0.19055   0.09172   0.71396   0.00000  Uiso   1.00
C480   C     0.12183   0.40712   0.74816   0.00000  Uiso   1.00
C481   C     0.19072   0.04565   0.71587   0.00000  Uiso   1.00
C482   C     0.12389   0.45315   0.74937   0.00000  Uiso   1.00
C483   C     0.17171   0.02348   0.75410   0.00000  Uiso   1.00
C484   C     0.17121   0.47499   0.75386   0.00000  Uiso   1.00
Cu485  Cu    0.16667   0.25000   0.79822   0.00000  Uiso   1.00
Cu486  Cu    0.16667   0.25001   0.70179   0.00000  Uiso   1.00
H487   H     0.13546   0.11198   0.81740   0.00000  Uiso   1.00
H488   H     0.25002   0.38527   0.75700   0.00000  Uiso   1.00
H489   H     0.20596   0.02692   0.68747   0.00000  Uiso   1.00
H490   H     0.08857   0.47203   0.74685   0.00000  Uiso   1.00
H491   H     0.19407   0.31579   0.62850   0.00000  Uiso   1.00
H492   H     0.08690   0.24000   0.86636   0.00000  Uiso   1.00
H493   H     0.13978   0.18399   0.61980   0.00000  Uiso   1.00
H494   H     0.24669   0.26142   0.88663   0.00000  Uiso   1.00
H495   H     0.14244   0.18292   0.53189   0.00000  Uiso   1.00
H496   H     0.24703   0.26071   0.97470   0.00000  Uiso   1.00
N497   N     0.16667   0.25001   0.62935   0.00000  Uiso   1.00
N498   N     0.16667   0.24999   0.87066   0.00000  Uiso   1.00
O499   O     0.16667   0.18573   0.79072   0.00000  Uiso   1.00
O500   O     0.16666   0.31427   0.70929   0.00000  Uiso   1.00
O501   O     0.16667   0.18573   0.70928   0.00000  Uiso   1.00
O502   O     0.16666   0.31427   0.79072   0.00000  Uiso   1.00
O503   O     0.09161   0.24999   0.78132   0.00000  Uiso   1.00
O504   O     0.24172   0.25001   0.71868   0.00000  Uiso   1.00
O505   O     0.09161   0.25000   0.69989   0.00000  Uiso   1.00
O506   O     0.24172   0.25000   0.80012   0.00000  Uiso   1.00
Cl507  Cl    0.32275   0.29305   0.68460   0.00000  Uiso   1.00
Cl508  Cl    0.00872   0.20128   0.81021   0.00000  Uiso   1.00
Cl509  Cl    0.12951   0.02155   0.84099   0.00000  Uiso   1.00
Cl510  Cl    0.27762   0.47601   0.76398   0.00000  Uiso   1.00
Cl511  Cl    0.21924   0.11654   0.66654   0.00000  Uiso   1.00
Cl512  Cl    0.06168   0.38101   0.74396   0.00000  Uiso   1.00
C513   C     0.19676   0.33222   0.53397   0.00000  Uiso   1.00
C514   C     0.25418   0.34161   0.54649   0.00000  Uiso   1.00
C515   C     0.26981   0.38336   0.52115   0.00000  Uiso   1.00
H516   H     0.26245   0.37929   0.98113   0.00000  Uiso   1.00
H517   H     0.24803   0.41242   0.53233   0.00000  Uiso   1.00
H518   H     0.31133   0.38954   0.53129   0.00000  Uiso   1.00
H519   H     0.26351   0.34608   0.58632   0.00000  Uiso   1.00
H520   H     0.27700   0.31323   0.53523   0.00000  Uiso   1.00
H521   H     0.18665   0.33243   0.99401   0.00000  Uiso   1.00
H522   H     0.17430   0.35947   0.54828   0.00000  Uiso   1.00
C523   C     0.06809   0.23746   0.95854   0.00000  Uiso   1.00
C524   C     0.04958   0.18942   0.95109   0.00000  Uiso   1.00
C525   C     0.32956   0.18341   0.96625   0.00000  Uiso   1.00
H526   H     0.32883   0.19398   0.50453   0.00000  Uiso   1.00
H527   H     0.30142   0.20312   0.94220   0.00000  Uiso   1.00
H528   H     0.31842   0.14797   0.96284   0.00000  Uiso   1.00
H529   H     0.04841   0.17984   0.91233   0.00000  Uiso   1.00
H530   H     0.07643   0.16661   0.97268   0.00000  Uiso   1.00
H531   H     0.06899   0.24664   0.99735   0.00000  Uiso   1.00
H532   H     0.04011   0.26024   0.93801   0.00000  Uiso   1.00
C533   C     0.50128   0.16482   0.75005   0.00000  Uiso   1.00
C534   C     0.50000   0.33484   0.75007   0.00000  Uiso   1.00
C535   C     0.51548   0.28890   0.55597   0.00000  Uiso   1.00
C536   C     0.45321   0.24355   0.94082   0.00000  Uiso   1.00
C537   C     0.51540   0.28701   0.60692   0.00000  Uiso   1.00
C538   C     0.45525   0.24399   0.89010   0.00000  Uiso   1.00
C539   C     0.48542   0.21337   0.60237   0.00000  Uiso   1.00
C540   C     0.54425   0.25616   0.90112   0.00000  Uiso   1.00
C541   C     0.48623   0.21298   0.55184   0.00000  Uiso   1.00
C542   C     0.54448   0.25605   0.95182   0.00000  Uiso   1.00
C543   C     0.50025   0.25099   0.52740   0.00000  Uiso   1.00
C544   C     0.49893   0.25011   0.97278   0.00000  Uiso   1.00
C545   C     0.40146   0.25045   0.73801   0.00000  Uiso   1.00
C546   C     0.59848   0.24915   0.76182   0.00000  Uiso   1.00
C547   C     0.34718   0.25721   0.73263   0.00000  Uiso   1.00
C548   C     0.65245   0.24127   0.76631   0.00000  Uiso   1.00
C549   C     0.48540   0.04769   0.79101   0.00000  Uiso   1.00
C550   C     0.55036   0.45040   0.75660   0.00000  Uiso   1.00
C551   C     0.48446   0.09374   0.78890   0.00000  Uiso   1.00
C552   C     0.54817   0.40433   0.75469   0.00000  Uiso   1.00
C553   C     0.50316   0.11622   0.75045   0.00000  Uiso   1.00
C554   C     0.50085   0.38276   0.75052   0.00000  Uiso   1.00
C555   C     0.52389   0.09172   0.71396   0.00000  Uiso   1.00
C556   C     0.45517   0.40712   0.74816   0.00000  Uiso   1.00
C557   C     0.52405   0.04565   0.71587   0.00000  Uiso   1.00
C558   C     0.45722   0.45315   0.74937   0.00000  Uiso   1.00
C559   C     0.50504   0.02348   0.75410   0.00000  Uiso   1.00
C560   C     0.50455   0.47499   0.75386   0.00000  Uiso   1.00
Cu561  Cu    0.50000   0.25000   0.79822   0.00000  Uiso   1.00
Cu562  Cu    0.50000   0.25001   0.70179   0.00000  Uiso   1.00
H563   H     0.46879   0.11198   0.81740   0.00000  Uiso   1.00
H564   H     0.58335   0.38527   0.75700   0.00000  Uiso   1.00
H565   H     0.53929   0.02692   0.68747   0.00000  Uiso   1.00
H566   H     0.42190   0.47203   0.74685   0.00000  Uiso   1.00
H567   H     0.52740   0.31579   0.62850   0.00000  Uiso   1.00
H568   H     0.42024   0.24000   0.86636   0.00000  Uiso   1.00
H569   H     0.47312   0.18399   0.61980   0.00000  Uiso   1.00
H570   H     0.58002   0.26142   0.88663   0.00000  Uiso   1.00
H571   H     0.47577   0.18292   0.53189   0.00000  Uiso   1.00
H572   H     0.58036   0.26071   0.97470   0.00000  Uiso   1.00
N573   N     0.50000   0.25001   0.62935   0.00000  Uiso   1.00
N574   N     0.50000   0.24999   0.87066   0.00000  Uiso   1.00
O575   O     0.50000   0.18573   0.79072   0.00000  Uiso   1.00
O576   O     0.50000   0.31427   0.70929   0.00000  Uiso   1.00
O577   O     0.50000   0.18573   0.70928   0.00000  Uiso   1.00
O578   O     0.50000   0.31427   0.79072   0.00000  Uiso   1.00
O579   O     0.42495   0.24999   0.78132   0.00000  Uiso   1.00
O580   O     0.57505   0.25001   0.71868   0.00000  Uiso   1.00
O581   O     0.42495   0.25000   0.69989   0.00000  Uiso   1.00
O582   O     0.57505   0.25000   0.80012   0.00000  Uiso   1.00
Cl583  Cl    0.65608   0.29305   0.68460   0.00000  Uiso   1.00
Cl584  Cl    0.34205   0.20128   0.81021   0.00000  Uiso   1.00
Cl585  Cl    0.46285   0.02155   0.84099   0.00000  Uiso   1.00
Cl586  Cl    0.61096   0.47601   0.76398   0.00000  Uiso   1.00
Cl587  Cl    0.55257   0.11654   0.66654   0.00000  Uiso   1.00
Cl588  Cl    0.39501   0.38101   0.74396   0.00000  Uiso   1.00
C589   C     0.53009   0.33222   0.53397   0.00000  Uiso   1.00
C590   C     0.58752   0.34161   0.54649   0.00000  Uiso   1.00
C591   C     0.60314   0.38336   0.52115   0.00000  Uiso   1.00
H592   H     0.59578   0.37929   0.98113   0.00000  Uiso   1.00
H593   H     0.58136   0.41242   0.53233   0.00000  Uiso   1.00
H594   H     0.64467   0.38954   0.53129   0.00000  Uiso   1.00
H595   H     0.59684   0.34608   0.58632   0.00000  Uiso   1.00
H596   H     0.61034   0.31323   0.53523   0.00000  Uiso   1.00
H597   H     0.51999   0.33243   0.99401   0.00000  Uiso   1.00
H598   H     0.50763   0.35947   0.54828   0.00000  Uiso   1.00
C599   C     0.40142   0.23746   0.95854   0.00000  Uiso   1.00
C600   C     0.38291   0.18942   0.95109   0.00000  Uiso   1.00
C601   C     0.66289   0.18341   0.96625   0.00000  Uiso   1.00
H602   H     0.66217   0.19398   0.50453   0.00000  Uiso   1.00
H603   H     0.63475   0.20312   0.94220   0.00000  Uiso   1.00
H604   H     0.65176   0.14797   0.96284   0.00000  Uiso   1.00
H605   H     0.38174   0.17984   0.91233   0.00000  Uiso   1.00
H606   H     0.40976   0.16661   0.97268   0.00000  Uiso   1.00
H607   H     0.40232   0.24664   0.99735   0.00000  Uiso   1.00
H608   H     0.37345   0.26024   0.93801   0.00000  Uiso   1.00
C609   C     0.83461   0.16482   0.75005   0.00000  Uiso   1.00
C610   C     0.83334   0.33484   0.75007   0.00000  Uiso   1.00
C611   C     0.84882   0.28890   0.55597   0.00000  Uiso   1.00
C612   C     0.78654   0.24355   0.94082   0.00000  Uiso   1.00
C613   C     0.84874   0.28701   0.60692   0.00000  Uiso   1.00
C614   C     0.78858   0.24399   0.89010   0.00000  Uiso   1.00
C615   C     0.81876   0.21337   0.60237   0.00000  Uiso   1.00
C616   C     0.87758   0.25616   0.90112   0.00000  Uiso   1.00
C617   C     0.81956   0.21298   0.55184   0.00000  Uiso   1.00
C618   C     0.87781   0.25605   0.95182   0.00000  Uiso   1.00
C619   C     0.83358   0.25099   0.52740   0.00000  Uiso   1.00
C620   C     0.83226   0.25011   0.97278   0.00000  Uiso   1.00
C621   C     0.73479   0.25045   0.73801   0.00000  Uiso   1.00
C622   C     0.93181   0.24915   0.76182   0.00000  Uiso   1.00
C623   C     0.68051   0.25721   0.73263   0.00000  Uiso   1.00
C624   C     0.98578   0.24127   0.76631   0.00000  Uiso   1.00
C625   C     0.81874   0.04769   0.79101   0.00000  Uiso   1.00
C626   C     0.88369   0.45040   0.75660   0.00000  Uiso   1.00
C627   C     0.81779   0.09374   0.78890   0.00000  Uiso   1.00
C628   C     0.88150   0.40433   0.75469   0.00000  Uiso   1.00
C629   C     0.83649   0.11622   0.75045   0.00000  Uiso   1.00
C630   C     0.83418   0.38276   0.75052   0.00000  Uiso   1.00
C631   C     0.85722   0.09172   0.71396   0.00000  Uiso   1.00
C632   C     0.78850   0.40712   0.74816   0.00000  Uiso   1.00
C633   C     0.85739   0.04565   0.71587   0.00000  Uiso   1.00
C634   C     0.79055   0.45315   0.74937   0.00000  Uiso   1.00
C635   C     0.83838   0.02348   0.75410   0.00000  Uiso   1.00
C636   C     0.83788   0.47499   0.75386   0.00000  Uiso   1.00
Cu637  Cu    0.83333   0.25000   0.79822   0.00000  Uiso   1.00
Cu638  Cu    0.83333   0.25001   0.70179   0.00000  Uiso   1.00
H639   H     0.80212   0.11198   0.81740   0.00000  Uiso   1.00
H640   H     0.91669   0.38527   0.75700   0.00000  Uiso   1.00
H641   H     0.87262   0.02692   0.68747   0.00000  Uiso   1.00
H642   H     0.75523   0.47203   0.74685   0.00000  Uiso   1.00
H643   H     0.86074   0.31579   0.62850   0.00000  Uiso   1.00
H644   H     0.75357   0.24000   0.86636   0.00000  Uiso   1.00
H645   H     0.80645   0.18399   0.61980   0.00000  Uiso   1.00
H646   H     0.91335   0.26142   0.88663   0.00000  Uiso   1.00
H647   H     0.80911   0.18292   0.53189   0.00000  Uiso   1.00
H648   H     0.91369   0.26071   0.97470   0.00000  Uiso   1.00
N649   N     0.83333   0.25001   0.62935   0.00000  Uiso   1.00
N650   N     0.83333   0.24999   0.87066   0.00000  Uiso   1.00
O651   O     0.83334   0.18573   0.79072   0.00000  Uiso   1.00
O652   O     0.83333   0.31427   0.70929   0.00000  Uiso   1.00
O653   O     0.83334   0.18573   0.70928   0.00000  Uiso   1.00
O654   O     0.83333   0.31427   0.79072   0.00000  Uiso   1.00
O655   O     0.75828   0.24999   0.78132   0.00000  Uiso   1.00
O656   O     0.90839   0.25001   0.71868   0.00000  Uiso   1.00
O657   O     0.75828   0.25000   0.69989   0.00000  Uiso   1.00
O658   O     0.90839   0.25000   0.80012   0.00000  Uiso   1.00
Cl659  Cl    0.98941   0.29305   0.68460   0.00000  Uiso   1.00
Cl660  Cl    0.67539   0.20128   0.81021   0.00000  Uiso   1.00
Cl661  Cl    0.79618   0.02155   0.84099   0.00000  Uiso   1.00
Cl662  Cl    0.94429   0.47601   0.76398   0.00000  Uiso   1.00
Cl663  Cl    0.88590   0.11654   0.66654   0.00000  Uiso   1.00
Cl664  Cl    0.72834   0.38101   0.74396   0.00000  Uiso   1.00
C665   C     0.86343   0.33222   0.53397   0.00000  Uiso   1.00
C666   C     0.92085   0.34161   0.54649   0.00000  Uiso   1.00
C667   C     0.93648   0.38336   0.52115   0.00000  Uiso   1.00
H668   H     0.92911   0.37929   0.98113   0.00000  Uiso   1.00
H669   H     0.91469   0.41242   0.53233   0.00000  Uiso   1.00
H670   H     0.97800   0.38954   0.53129   0.00000  Uiso   1.00
H671   H     0.93018   0.34608   0.58632   0.00000  Uiso   1.00
H672   H     0.94367   0.31323   0.53523   0.00000  Uiso   1.00
H673   H     0.85332   0.33243   0.99401   0.00000  Uiso   1.00
H674   H     0.84096   0.35947   0.54828   0.00000  Uiso   1.00
C675   C     0.73476   0.23746   0.95854   0.00000  Uiso   1.00
C676   C     0.71625   0.18942   0.95109   0.00000  Uiso   1.00
C677   C     0.99622   0.18341   0.96625   0.00000  Uiso   1.00
H678   H     0.99550   0.19398   0.50453   0.00000  Uiso   1.00
H679   H     0.96808   0.20312   0.94220   0.00000  Uiso   1.00
H680   H     0.98509   0.14797   0.96284   0.00000  Uiso   1.00
H681   H     0.71508   0.17984   0.91233   0.00000  Uiso   1.00
H682   H     0.74309   0.16661   0.97268   0.00000  Uiso   1.00
H683   H     0.73566   0.24664   0.99735   0.00000  Uiso   1.00
H684   H     0.70678   0.26024   0.93801   0.00000  Uiso   1.00
C685   C     0.16795   0.66482   0.75005   0.00000  Uiso   1.00
C686   C     0.16667   0.83484   0.75007   0.00000  Uiso   1.00
C687   C     0.18215   0.78890   0.55597   0.00000  Uiso   1.00
C688   C     0.11987   0.74355   0.94082   0.00000  Uiso   1.00
C689   C     0.18207   0.78701   0.60692   0.00000  Uiso   1.00
C690   C     0.12192   0.74399   0.89010   0.00000  Uiso   1.00
C691   C     0.15209   0.71337   0.60237   0.00000  Uiso   1.00
C692   C     0.21092   0.75616   0.90112   0.00000  Uiso   1.00
C693   C     0.15289   0.71298   0.55184   0.00000  Uiso   1.00
C694   C     0.21115   0.75605   0.95182   0.00000  Uiso   1.00
C695   C     0.16691   0.75099   0.52740   0.00000  Uiso   1.00
C696   C     0.16560   0.75011   0.97278   0.00000  Uiso   1.00
C697   C     0.06812   0.75045   0.73801   0.00000  Uiso   1.00
C698   C     0.26514   0.74915   0.76182   0.00000  Uiso   1.00
C699   C     0.01385   0.75721   0.73263   0.00000  Uiso   1.00
C700   C     0.31911   0.74127   0.76631   0.00000  Uiso   1.00
C701   C     0.15207   0.54769   0.79101   0.00000  Uiso   1.00
C702   C     0.21702   0.95040   0.75660   0.00000  Uiso   1.00
C703   C     0.15112   0.59374   0.78890   0.00000  Uiso   1.00
C704   C     0.21483   0.90433   0.75469   0.00000  Uiso   1.00
C705   C     0.16982   0.61622   0.75045   0.00000  Uiso   1.00
C706   C     0.16751   0.88276   0.75052   0.00000  Uiso   1.00
C707   C     0.19055   0.59172   0.71396   0.00000  Uiso   1.00
C708   C     0.12183   0.90712   0.74816   0.00000  Uiso   1.00
C709   C     0.19072   0.54565   0.71587   0.00000  Uiso   1.00
C710   C     0.12389   0.95315   0.74937   0.00000  Uiso   1.00
C711   C     0.17171   0.52348   0.75410   0.00000  Uiso   1.00
C712   C     0.17121   0.97499   0.75386   0.00000  Uiso   1.00
Cu713  Cu    0.16667   0.75000   0.79822   0.00000  Uiso   1.00
Cu714  Cu    0.16667   0.75001   0.70179   0.00000  Uiso   1.00
H715   H     0.13546   0.61198   0.81740   0.00000  Uiso   1.00
H716   H     0.25002   0.88527   0.75700   0.00000  Uiso   1.00
H717   H     0.20596   0.52692   0.68747   0.00000  Uiso   1.00
H718   H     0.08857   0.97203   0.74685   0.00000  Uiso   1.00
H719   H     0.19407   0.81579   0.62850   0.00000  Uiso   1.00
H720   H     0.08690   0.74000   0.86636   0.00000  Uiso   1.00
H721   H     0.13978   0.68399   0.61980   0.00000  Uiso   1.00
H722   H     0.24669   0.76142   0.88663   0.00000  Uiso   1.00
H723   H     0.14244   0.68292   0.53189   0.00000  Uiso   1.00
H724   H     0.24703   0.76071   0.97470   0.00000  Uiso   1.00
N725   N     0.16667   0.75001   0.62935   0.00000  Uiso   1.00
N726   N     0.16667   0.74999   0.87066   0.00000  Uiso   1.00
O727   O     0.16667   0.68573   0.79072   0.00000  Uiso   1.00
O728   O     0.16666   0.81427   0.70929   0.00000  Uiso   1.00
O729   O     0.16667   0.68573   0.70928   0.00000  Uiso   1.00
O730   O     0.16666   0.81427   0.79072   0.00000  Uiso   1.00
O731   O     0.09161   0.74999   0.78132   0.00000  Uiso   1.00
O732   O     0.24172   0.75001   0.71868   0.00000  Uiso   1.00
O733   O     0.09161   0.75000   0.69989   0.00000  Uiso   1.00
O734   O     0.24172   0.75000   0.80012   0.00000  Uiso   1.00
Cl735  Cl    0.32275   0.79305   0.68460   0.00000  Uiso   1.00
Cl736  Cl    0.00872   0.70128   0.81021   0.00000  Uiso   1.00
Cl737  Cl    0.12951   0.52155   0.84099   0.00000  Uiso   1.00
Cl738  Cl    0.27762   0.97601   0.76398   0.00000  Uiso   1.00
Cl739  Cl    0.21924   0.61654   0.66654   0.00000  Uiso   1.00
Cl740  Cl    0.06168   0.88101   0.74396   0.00000  Uiso   1.00
C741   C     0.19676   0.83222   0.53397   0.00000  Uiso   1.00
C742   C     0.25418   0.84161   0.54649   0.00000  Uiso   1.00
C743   C     0.26981   0.88336   0.52115   0.00000  Uiso   1.00
H744   H     0.26245   0.87929   0.98113   0.00000  Uiso   1.00
H745   H     0.24803   0.91242   0.53233   0.00000  Uiso   1.00
H746   H     0.31133   0.88954   0.53129   0.00000  Uiso   1.00
H747   H     0.26351   0.84608   0.58632   0.00000  Uiso   1.00
H748   H     0.27700   0.81323   0.53523   0.00000  Uiso   1.00
H749   H     0.18665   0.83243   0.99401   0.00000  Uiso   1.00
H750   H     0.17430   0.85947   0.54828   0.00000  Uiso   1.00
C751   C     0.06809   0.73746   0.95854   0.00000  Uiso   1.00
C752   C     0.04958   0.68942   0.95109   0.00000  Uiso   1.00
C753   C     0.32956   0.68341   0.96625   0.00000  Uiso   1.00
H754   H     0.32883   0.69398   0.50453   0.00000  Uiso   1.00
H755   H     0.30142   0.70312   0.94220   0.00000  Uiso   1.00
H756   H     0.31842   0.64797   0.96284   0.00000  Uiso   1.00
H757   H     0.04841   0.67984   0.91233   0.00000  Uiso   1.00
H758   H     0.07643   0.66661   0.97268   0.00000  Uiso   1.00
H759   H     0.06899   0.74664   0.99735   0.00000  Uiso   1.00
H760   H     0.04011   0.76024   0.93801   0.00000  Uiso   1.00
C761   C     0.50128   0.66482   0.75005   0.00000  Uiso   1.00
C762   C     0.50000   0.83484   0.75007   0.00000  Uiso   1.00
C763   C     0.51548   0.78890   0.55597   0.00000  Uiso   1.00
C764   C     0.45321   0.74355   0.94082   0.00000  Uiso   1.00
C765   C     0.51540   0.78701   0.60692   0.00000  Uiso   1.00
C766   C     0.45525   0.74399   0.89010   0.00000  Uiso   1.00
C767   C     0.48542   0.71337   0.60237   0.00000  Uiso   1.00
C768   C     0.54425   0.75616   0.90112   0.00000  Uiso   1.00
C769   C     0.48623   0.71298   0.55184   0.00000  Uiso   1.00
C770   C     0.54448   0.75605   0.95182   0.00000  Uiso   1.00
C771   C     0.50025   0.75099   0.52740   0.00000  Uiso   1.00
C772   C     0.49893   0.75011   0.97278   0.00000  Uiso   1.00
C773   C     0.40146   0.75045   0.73801   0.00000  Uiso   1.00
C774   C     0.59848   0.74915   0.76182   0.00000  Uiso   1.00
C775   C     0.34718   0.75721   0.73263   0.00000  Uiso   1.00
C776   C     0.65245   0.74127   0.76631   0.00000  Uiso   1.00
C777   C     0.48540   0.54769   0.79101   0.00000  Uiso   1.00
C778   C     0.55036   0.95040   0.75660   0.00000  Uiso   1.00
C779   C     0.48446   0.59374   0.78890   0.00000  Uiso   1.00
C780   C     0.54817   0.90433   0.75469   0.00000  Uiso   1.00
C781   C     0.50316   0.61622   0.75045   0.00000  Uiso   1.00
C782   C     0.50085   0.88276   0.75052   0.00000  Uiso   1.00
C783   C     0.52389   0.59172   0.71396   0.00000  Uiso   1.00
C784   C     0.45517   0.90712   0.74816   0.00000  Uiso   1.00
C785   C     0.52405   0.54565   0.71587   0.00000  Uiso   1.00
C786   C     0.45722   0.95315   0.74937   0.00000  Uiso   1.00
C787   C     0.50504   0.52348   0.75410   0.00000  Uiso   1.00
C788   C     0.50455   0.97499   0.75386   0.00000  Uiso   1.00
Cu789  Cu    0.50000   0.75000   0.79822   0.00000  Uiso   1.00
Cu790  Cu    0.50000   0.75001   0.70179   0.00000  Uiso   1.00
H791   H     0.46879   0.61198   0.81740   0.00000  Uiso   1.00
H792   H     0.58335   0.88527   0.75700   0.00000  Uiso   1.00
H793   H     0.53929   0.52692   0.68747   0.00000  Uiso   1.00
H794   H     0.42190   0.97203   0.74685   0.00000  Uiso   1.00
H795   H     0.52740   0.81579   0.62850   0.00000  Uiso   1.00
H796   H     0.42024   0.74000   0.86636   0.00000  Uiso   1.00
H797   H     0.47312   0.68399   0.61980   0.00000  Uiso   1.00
H798   H     0.58002   0.76142   0.88663   0.00000  Uiso   1.00
H799   H     0.47577   0.68292   0.53189   0.00000  Uiso   1.00
H800   H     0.58036   0.76071   0.97470   0.00000  Uiso   1.00
N801   N     0.50000   0.75001   0.62935   0.00000  Uiso   1.00
N802   N     0.50000   0.74999   0.87066   0.00000  Uiso   1.00
O803   O     0.50000   0.68573   0.79072   0.00000  Uiso   1.00
O804   O     0.50000   0.81427   0.70929   0.00000  Uiso   1.00
O805   O     0.50000   0.68573   0.70928   0.00000  Uiso   1.00
O806   O     0.50000   0.81427   0.79072   0.00000  Uiso   1.00
O807   O     0.42495   0.74999   0.78132   0.00000  Uiso   1.00
O808   O     0.57505   0.75001   0.71868   0.00000  Uiso   1.00
O809   O     0.42495   0.75000   0.69989   0.00000  Uiso   1.00
O810   O     0.57505   0.75000   0.80012   0.00000  Uiso   1.00
Cl811  Cl    0.65608   0.79305   0.68460   0.00000  Uiso   1.00
Cl812  Cl    0.34205   0.70128   0.81021   0.00000  Uiso   1.00
Cl813  Cl    0.46285   0.52155   0.84099   0.00000  Uiso   1.00
Cl814  Cl    0.61096   0.97601   0.76398   0.00000  Uiso   1.00
Cl815  Cl    0.55257   0.61654   0.66654   0.00000  Uiso   1.00
Cl816  Cl    0.39501   0.88101   0.74396   0.00000  Uiso   1.00
C817   C     0.53009   0.83222   0.53397   0.00000  Uiso   1.00
C818   C     0.58752   0.84161   0.54649   0.00000  Uiso   1.00
C819   C     0.60314   0.88336   0.52115   0.00000  Uiso   1.00
H820   H     0.59578   0.87929   0.98113   0.00000  Uiso   1.00
H821   H     0.58136   0.91242   0.53233   0.00000  Uiso   1.00
H822   H     0.64467   0.88954   0.53129   0.00000  Uiso   1.00
H823   H     0.59684   0.84608   0.58632   0.00000  Uiso   1.00
H824   H     0.61034   0.81323   0.53523   0.00000  Uiso   1.00
H825   H     0.51999   0.83243   0.99401   0.00000  Uiso   1.00
H826   H     0.50763   0.85947   0.54828   0.00000  Uiso   1.00
C827   C     0.40142   0.73746   0.95854   0.00000  Uiso   1.00
C828   C     0.38291   0.68942   0.95109   0.00000  Uiso   1.00
C829   C     0.66289   0.68341   0.96625   0.00000  Uiso   1.00
H830   H     0.66217   0.69398   0.50453   0.00000  Uiso   1.00
H831   H     0.63475   0.70312   0.94220   0.00000  Uiso   1.00
H832   H     0.65176   0.64797   0.96284   0.00000  Uiso   1.00
H833   H     0.38174   0.67984   0.91233   0.00000  Uiso   1.00
H834   H     0.40976   0.66661   0.97268   0.00000  Uiso   1.00
H835   H     0.40232   0.74664   0.99735   0.00000  Uiso   1.00
H836   H     0.37345   0.76024   0.93801   0.00000  Uiso   1.00
C837   C     0.83461   0.66482   0.75005   0.00000  Uiso   1.00
C838   C     0.83334   0.83484   0.75007   0.00000  Uiso   1.00
C839   C     0.84882   0.78890   0.55597   0.00000  Uiso   1.00
C840   C     0.78654   0.74355   0.94082   0.00000  Uiso   1.00
C841   C     0.84874   0.78701   0.60692   0.00000  Uiso   1.00
C842   C     0.78858   0.74399   0.89010   0.00000  Uiso   1.00
C843   C     0.81876   0.71337   0.60237   0.00000  Uiso   1.00
C844   C     0.87758   0.75616   0.90112   0.00000  Uiso   1.00
C845   C     0.81956   0.71298   0.55184   0.00000  Uiso   1.00
C846   C     0.87781   0.75605   0.95182   0.00000  Uiso   1.00
C847   C     0.83358   0.75099   0.52740   0.00000  Uiso   1.00
C848   C     0.83226   0.75011   0.97278   0.00000  Uiso   1.00
C849   C     0.73479   0.75045   0.73801   0.00000  Uiso   1.00
C850   C     0.93181   0.74915   0.76182   0.00000  Uiso   1.00
C851   C     0.68051   0.75721   0.73263   0.00000  Uiso   1.00
C852   C     0.98578   0.74127   0.76631   0.00000  Uiso   1.00
C853   C     0.81874   0.54769   0.79101   0.00000  Uiso   1.00
C854   C     0.88369   0.95040   0.75660   0.00000  Uiso   1.00
C855   C     0.81779   0.59374   0.78890   0.00000  Uiso   1.00
C856   C     0.88150   0.90433   0.75469   0.00000  Uiso   1.00
C857   C     0.83649   0.61622   0.75045   0.00000  Uiso   1.00
C858   C     0.83418   0.88276   0.75052   0.00000  Uiso   1.00
C859   C     0.85722   0.59172   0.71396   0.00000  Uiso   1.00
C860   C     0.78850   0.90712   0.74816   0.00000  Uiso   1.00
C861   C     0.85739   0.54565   0.71587   0.00000  Uiso   1.00
C862   C     0.79055   0.95315   0.74937   0.00000  Uiso   1.00
C863   C     0.83838   0.52348   0.75410   0.00000  Uiso   1.00
C864   C     0.83788   0.97499   0.75386   0.00000  Uiso   1.00
Cu865  Cu    0.83333   0.75000   0.79822   0.00000  Uiso   1.00
Cu866  Cu    0.83333   0.75001   0.70179   0.00000  Uiso   1.00
H867   H     0.80212   0.61198   0.81740   0.00000  Uiso   1.00
H868   H     0.91669   0.88527   0.75700   0.00000  Uiso   1.00
H869   H     0.87262   0.52692   0.68747   0.00000  Uiso   1.00
H870   H     0.75523   0.97203   0.74685   0.00000  Uiso   1.00
H871   H     0.86074   0.81579   0.62850   0.00000  Uiso   1.00
H872   H     0.75357   0.74000   0.86636   0.00000  Uiso   1.00
H873   H     0.80645   0.68399   0.61980   0.00000  Uiso   1.00
H874   H     0.91335   0.76142   0.88663   0.00000  Uiso   1.00
H875   H     0.80911   0.68292   0.53189   0.00000  Uiso   1.00
H876   H     0.91369   0.76071   0.97470   0.00000  Uiso   1.00
N877   N     0.83333   0.75001   0.62935   0.00000  Uiso   1.00
N878   N     0.83333   0.74999   0.87066   0.00000  Uiso   1.00
O879   O     0.83334   0.68573   0.79072   0.00000  Uiso   1.00
O880   O     0.83333   0.81427   0.70929   0.00000  Uiso   1.00
O881   O     0.83334   0.68573   0.70928   0.00000  Uiso   1.00
O882   O     0.83333   0.81427   0.79072   0.00000  Uiso   1.00
O883   O     0.75828   0.74999   0.78132   0.00000  Uiso   1.00
O884   O     0.90839   0.75001   0.71868   0.00000  Uiso   1.00
O885   O     0.75828   0.75000   0.69989   0.00000  Uiso   1.00
O886   O     0.90839   0.75000   0.80012   0.00000  Uiso   1.00
Cl887  Cl    0.98941   0.79305   0.68460   0.00000  Uiso   1.00
Cl888  Cl    0.67539   0.70128   0.81021   0.00000  Uiso   1.00
Cl889  Cl    0.79618   0.52155   0.84099   0.00000  Uiso   1.00
Cl890  Cl    0.94429   0.97601   0.76398   0.00000  Uiso   1.00
Cl891  Cl    0.88590   0.61654   0.66654   0.00000  Uiso   1.00
Cl892  Cl    0.72834   0.88101   0.74396   0.00000  Uiso   1.00
C893   C     0.86343   0.83222   0.53397   0.00000  Uiso   1.00
C894   C     0.92085   0.84161   0.54649   0.00000  Uiso   1.00
C895   C     0.93648   0.88336   0.52115   0.00000  Uiso   1.00
H896   H     0.92911   0.87929   0.98113   0.00000  Uiso   1.00
H897   H     0.91469   0.91242   0.53233   0.00000  Uiso   1.00
H898   H     0.97800   0.88954   0.53129   0.00000  Uiso   1.00
H899   H     0.93018   0.84608   0.58632   0.00000  Uiso   1.00
H900   H     0.94367   0.81323   0.53523   0.00000  Uiso   1.00
H901   H     0.85332   0.83243   0.99401   0.00000  Uiso   1.00
H902   H     0.84096   0.85947   0.54828   0.00000  Uiso   1.00
C903   C     0.73476   0.73746   0.95854   0.00000  Uiso   1.00
C904   C     0.71625   0.68942   0.95109   0.00000  Uiso   1.00
C905   C     0.99622   0.68341   0.96625   0.00000  Uiso   1.00
H906   H     0.99550   0.69398   0.50453   0.00000  Uiso   1.00
H907   H     0.96808   0.70312   0.94220   0.00000  Uiso   1.00
H908   H     0.98509   0.64797   0.96284   0.00000  Uiso   1.00
H909   H     0.71508   0.67984   0.91233   0.00000  Uiso   1.00
H910   H     0.74309   0.66661   0.97268   0.00000  Uiso   1.00
H911   H     0.73566   0.74664   0.99735   0.00000  Uiso   1.00
H912   H     0.70678   0.76024   0.93801   0.00000  Uiso   1.00
loop_
_geom_bond_atom_site_label_1
_geom_bond_atom_site_label_2
_geom_bond_distance
_geom_bond_site_symmetry_2
_ccdc_geom_bond_type
C1     C21     1.468   .     S
C1     O43     1.296   .     A
C1     O45     1.294   .     A
C2     O46     1.289   .     A
C2     O44     1.290   .     A
C2     C22     1.447   .     S
C3     C57     1.514   .     S
C3     C5      1.416   .     A
C3     C11     1.421   .     A
C4     C12     1.420   .     A
C4     C6      1.416   .     A
C4     C67     1.514   .     S
C5     N41     1.366   .     A
C5     H35     1.080   .     S
C6     H36     1.073   .     S
C6     N42     1.365   .     A
C7     H37     1.080   .     S
C7     C9      1.405   .     A
C7     N41     1.364   .     A
C8     H38     1.079   .     S
C8     N42     1.366   .     A
C8     C10     1.407   .     A
C9     H39     1.081   .     S
C9     C11     1.407   .     A
C10    H40     1.081   .     S
C10    C12     1.406   .     A
C11    C468    1.513   1_554 S
C12    C467    1.513   .     S
C13    O47     1.284   .     A
C13    O49     1.288   .     A
C13    C15     1.432   .     S
C14    O48     1.279   .     A
C14    O50     1.292   .     A
C14    C16     1.429   .     S
C15    C168    1.349   1_455 S
C15    Cl203   1.777   1_455 S
C16    C91     1.349   .     S
C16    Cl128   1.770   .     S
C17    C27     1.405   .     A
C17    Cl53    1.762   .     S
C17    C19     1.391   .     A
C18    C20     1.393   .     A
C18    C28     1.408   .     A
C18    Cl54    1.762   .     S
C19    H31     1.084   .     S
C19    C21     1.405   .     A
C20    C22     1.398   .     A
C20    H32     1.084   .     S
C21    C23     1.414   .     A
C22    C24     1.402   .     A
C23    C25     1.392   .     A
C23    Cl55    1.763   .     S
C24    C26     1.391   .     A
C24    Cl56    1.760   .     S
C25    C27     1.399   .     A
C25    H33     1.084   .     S
C26    H34     1.084   .     S
C26    C28     1.402   .     A
C27    C256    1.464   1_545 S
C28    C255    1.464   .     S
Cu29   N42     2.011   .     S
Cu29   O47     1.973   .     S
Cu29   O43     1.951   .     S
Cu29   O50     1.968   .     S
Cu29   Cu30    2.677   .     S
Cu29   O46     1.952   .     S
Cu30   O45     1.952   .     S
Cu30   O48     1.973   .     S
Cu30   N41     2.011   .     S
Cu30   O44     1.951   .     S
Cu30   O49     1.968   .     S
Cl51   C91     1.777   .     S
Cl52   C168    1.770   1_455 S
C57    H66     1.112   .     S
C57    C58     1.535   .     S
C57    H521    1.109   1_554 S
C58    H64     1.111   .     S
C58    H63     1.111   .     S
C58    C59     1.526   .     S
C59    H61     1.111   .     S
C59    H62     1.110   .     S
C59    H516    1.111   1_554 S
H60    C515    1.111   .     S
H65    C513    1.109   .     S
C67    C68     1.536   .     S
C67    H75     1.109   .     S
C67    H76     1.112   .     S
C68    H74     1.109   .     S
C68    H73     1.110   .     S
C68    C221    1.524   1_455 S
C69    H71     1.109   .     S
C69    H72     1.110   .     S
C69    C144    1.524   .     S
C69    H526    1.111   .     S
H70    C525    1.111   1_554 S
C77    C97     1.468   .     S
C77    O119    1.296   .     A
C77    O121    1.294   .     A
C78    O122    1.289   .     A
C78    O120    1.290   .     A
C78    C98     1.447   .     S
C79    C133    1.514   .     S
C79    C81     1.416   .     A
C79    C87     1.421   .     A
C80    C88     1.420   .     A
C80    C82     1.416   .     A
C80    C143    1.514   .     S
C81    N117    1.366   .     A
C81    H111    1.080   .     S
C82    H112    1.073   .     S
C82    N118    1.365   .     A
C83    H113    1.080   .     S
C83    C85     1.405   .     A
C83    N117    1.364   .     A
C84    H114    1.079   .     S
C84    N118    1.366   .     A
C84    C86     1.407   .     A
C85    H115    1.081   .     S
C85    C87     1.407   .     A
C86    H116    1.081   .     S
C86    C88     1.406   .     A
C87    C544    1.513   1_554 S
C88    C543    1.513   .     S
C89    O123    1.284   .     A
C89    O125    1.288   .     A
C89    C91     1.432   .     S
C90    O124    1.279   .     A
C90    O126    1.292   .     A
C90    C92     1.429   .     S
C92    C167    1.349   .     S
C92    Cl204   1.770   .     S
C93    C103    1.405   .     A
C93    Cl129   1.762   .     S
C93    C95     1.391   .     A
C94    C96     1.393   .     A
C94    C104    1.408   .     A
C94    Cl130   1.762   .     S
C95    H107    1.084   .     S
C95    C97     1.405   .     A
C96    C98     1.398   .     A
C96    H108    1.084   .     S
C97    C99     1.414   .     A
C98    C100    1.402   .     A
C99    C101    1.392   .     A
C99    Cl131   1.763   .     S
C100   C102    1.391   .     A
C100   Cl132   1.760   .     S
C101   C103    1.399   .     A
C101   H109    1.084   .     S
C102   H110    1.084   .     S
C102   C104    1.402   .     A
C103   C332    1.464   1_545 S
C104   C331    1.464   .     S
Cu105  N118    2.011   .     S
Cu105  O123    1.973   .     S
Cu105  O119    1.951   .     S
Cu105  O126    1.968   .     S
Cu105  Cu106   2.677   .     S
Cu105  O122    1.952   .     S
Cu106  O121    1.952   .     S
Cu106  O124    1.973   .     S
Cu106  N117    2.011   .     S
Cu106  O120    1.951   .     S
Cu106  O125    1.968   .     S
Cl127  C167    1.777   .     S
C133   H142    1.112   .     S
C133   C134    1.535   .     S
C133   H597    1.109   1_554 S
C134   H140    1.111   .     S
C134   H139    1.111   .     S
C134   C135    1.526   .     S
C135   H137    1.111   .     S
C135   H138    1.110   .     S
C135   H592    1.111   1_554 S
H136   C591    1.111   .     S
H141   C589    1.109   .     S
C143   C144    1.536   .     S
C143   H151    1.109   .     S
C143   H152    1.112   .     S
C144   H150    1.109   .     S
C144   H149    1.110   .     S
C145   H147    1.109   .     S
C145   H148    1.110   .     S
C145   C220    1.524   .     S
C145   H602    1.111   .     S
H146   C601    1.111   1_554 S
C153   C173    1.468   .     S
C153   O195    1.296   .     A
C153   O197    1.294   .     A
C154   O198    1.289   .     A
C154   O196    1.290   .     A
C154   C174    1.447   .     S
C155   C209    1.514   .     S
C155   C157    1.416   .     A
C155   C163    1.421   .     A
C156   C164    1.420   .     A
C156   C158    1.416   .     A
C156   C219    1.514   .     S
C157   N193    1.366   .     A
C157   H187    1.080   .     S
C158   H188    1.073   .     S
C158   N194    1.365   .     A
C159   H189    1.080   .     S
C159   C161    1.405   .     A
C159   N193    1.364   .     A
C160   H190    1.079   .     S
C160   N194    1.366   .     A
C160   C162    1.407   .     A
C161   H191    1.081   .     S
C161   C163    1.407   .     A
C162   H192    1.081   .     S
C162   C164    1.406   .     A
C163   C620    1.513   1_554 S
C164   C619    1.513   .     S
C165   O199    1.284   .     A
C165   O201    1.288   .     A
C165   C167    1.432   .     S
C166   O200    1.279   .     A
C166   O202    1.292   .     A
C166   C168    1.429   .     S
C168   C15     1.349   1_655 S
C168   Cl52    1.770   1_655 S
C169   C179    1.405   .     A
C169   Cl205   1.762   .     S
C169   C171    1.391   .     A
C170   C172    1.393   .     A
C170   C180    1.408   .     A
C170   Cl206   1.762   .     S
C171   H183    1.084   .     S
C171   C173    1.405   .     A
C172   C174    1.398   .     A
C172   H184    1.084   .     S
C173   C175    1.414   .     A
C174   C176    1.402   .     A
C175   C177    1.392   .     A
C175   Cl207   1.763   .     S
C176   C178    1.391   .     A
C176   Cl208   1.760   .     S
C177   C179    1.399   .     A
C177   H185    1.084   .     S
C178   H186    1.084   .     S
C178   C180    1.402   .     A
C179   C408    1.464   1_545 S
C180   C407    1.464   .     S
Cu181  N194    2.011   .     S
Cu181  O199    1.973   .     S
Cu181  O195    1.951   .     S
Cu181  O202    1.968   .     S
Cu181  Cu182   2.677   .     S
Cu181  O198    1.952   .     S
Cu182  O197    1.952   .     S
Cu182  O200    1.973   .     S
Cu182  N193    2.011   .     S
Cu182  O196    1.951   .     S
Cu182  O201    1.968   .     S
Cl203  C15     1.777   1_655 S
C209   H218    1.112   .     S
C209   C210    1.535   .     S
C209   H673    1.109   1_554 S
C210   H216    1.111   .     S
C210   H215    1.111   .     S
C210   C211    1.526   .     S
C211   H213    1.111   .     S
C211   H214    1.110   .     S
C211   H668    1.111   1_554 S
H212   C667    1.111   .     S
H217   C665    1.109   .     S
C219   C220    1.536   .     S
C219   H227    1.109   .     S
C219   H228    1.112   .     S
C220   H226    1.109   .     S
C220   H225    1.110   .     S
C221   H223    1.109   .     S
C221   H224    1.110   .     S
C221   C68     1.524   1_655 S
C221   H678    1.111   .     S
H222   C677    1.111   1_554 S
C229   C249    1.468   .     S
C229   O271    1.296   .     A
C229   O273    1.294   .     A
C230   O274    1.289   .     A
C230   O272    1.290   .     A
C230   C250    1.447   .     S
C231   C285    1.514   .     S
C231   C233    1.416   .     A
C231   C239    1.421   .     A
C232   C240    1.420   .     A
C232   C234    1.416   .     A
C232   C295    1.514   .     S
C233   N269    1.366   .     A
C233   H263    1.080   .     S
C234   H264    1.073   .     S
C234   N270    1.365   .     A
C235   H265    1.080   .     S
C235   C237    1.405   .     A
C235   N269    1.364   .     A
C236   H266    1.079   .     S
C236   N270    1.366   .     A
C236   C238    1.407   .     A
C237   H267    1.081   .     S
C237   C239    1.407   .     A
C238   H268    1.081   .     S
C238   C240    1.406   .     A
C239   C696    1.513   1_554 S
C240   C695    1.513   .     S
C241   O275    1.284   .     A
C241   O277    1.288   .     A
C241   C243    1.432   .     S
C242   O276    1.279   .     A
C242   O278    1.292   .     A
C242   C244    1.429   .     S
C243   C396    1.349   1_455 S
C243   Cl431   1.777   1_455 S
C244   C319    1.349   .     S
C244   Cl356   1.770   .     S
C245   C255    1.405   .     A
C245   Cl281   1.762   .     S
C245   C247    1.391   .     A
C246   C248    1.393   .     A
C246   C256    1.408   .     A
C246   Cl282   1.762   .     S
C247   H259    1.084   .     S
C247   C249    1.405   .     A
C248   C250    1.398   .     A
C248   H260    1.084   .     S
C249   C251    1.414   .     A
C250   C252    1.402   .     A
C251   C253    1.392   .     A
C251   Cl283   1.763   .     S
C252   C254    1.391   .     A
C252   Cl284   1.760   .     S
C253   C255    1.399   .     A
C253   H261    1.084   .     S
C254   H262    1.084   .     S
C254   C256    1.402   .     A
C256   C27     1.464   1_565 S
Cu257  N270    2.011   .     S
Cu257  O275    1.973   .     S
Cu257  O271    1.951   .     S
Cu257  O278    1.968   .     S
Cu257  Cu258   2.677   .     S
Cu257  O274    1.952   .     S
Cu258  O273    1.952   .     S
Cu258  O276    1.973   .     S
Cu258  N269    2.011   .     S
Cu258  O272    1.951   .     S
Cu258  O277    1.968   .     S
Cl279  C319    1.777   .     S
Cl280  C396    1.770   1_455 S
C285   H294    1.112   .     S
C285   C286    1.535   .     S
C285   H749    1.109   1_554 S
C286   H292    1.111   .     S
C286   H291    1.111   .     S
C286   C287    1.526   .     S
C287   H289    1.111   .     S
C287   H290    1.110   .     S
C287   H744    1.111   1_554 S
H288   C743    1.111   .     S
H293   C741    1.109   .     S
C295   C296    1.536   .     S
C295   H303    1.109   .     S
C295   H304    1.112   .     S
C296   H302    1.109   .     S
C296   H301    1.110   .     S
C296   C449    1.524   1_455 S
C297   H299    1.109   .     S
C297   H300    1.110   .     S
C297   C372    1.524   .     S
C297   H754    1.111   .     S
H298   C753    1.111   1_554 S
C305   C325    1.468   .     S
C305   O347    1.296   .     A
C305   O349    1.294   .     A
C306   O350    1.289   .     A
C306   O348    1.290   .     A
C306   C326    1.447   .     S
C307   C361    1.514   .     S
C307   C309    1.416   .     A
C307   C315    1.421   .     A
C308   C316    1.420   .     A
C308   C310    1.416   .     A
C308   C371    1.514   .     S
C309   N345    1.366   .     A
C309   H339    1.080   .     S
C310   H340    1.073   .     S
C310   N346    1.365   .     A
C311   H341    1.080   .     S
C311   C313    1.405   .     A
C311   N345    1.364   .     A
C312   H342    1.079   .     S
C312   N346    1.366   .     A
C312   C314    1.407   .     A
C313   H343    1.081   .     S
C313   C315    1.407   .     A
C314   H344    1.081   .     S
C314   C316    1.406   .     A
C315   C772    1.513   1_554 S
C316   C771    1.513   .     S
C317   O351    1.284   .     A
C317   O353    1.288   .     A
C317   C319    1.432   .     S
C318   O352    1.279   .     A
C318   O354    1.292   .     A
C318   C320    1.429   .     S
C320   C395    1.349   .     S
C320   Cl432   1.770   .     S
C321   C331    1.405   .     A
C321   Cl357   1.762   .     S
C321   C323    1.391   .     A
C322   C324    1.393   .     A
C322   C332    1.408   .     A
C322   Cl358   1.762   .     S
C323   H335    1.084   .     S
C323   C325    1.405   .     A
C324   C326    1.398   .     A
C324   H336    1.084   .     S
C325   C327    1.414   .     A
C326   C328    1.402   .     A
C327   C329    1.392   .     A
C327   Cl359   1.763   .     S
C328   C330    1.391   .     A
C328   Cl360   1.760   .     S
C329   C331    1.399   .     A
C329   H337    1.084   .     S
C330   H338    1.084   .     S
C330   C332    1.402   .     A
C332   C103    1.464   1_565 S
Cu333  N346    2.011   .     S
Cu333  O351    1.973   .     S
Cu333  O347    1.951   .     S
Cu333  O354    1.968   .     S
Cu333  Cu334   2.677   .     S
Cu333  O350    1.952   .     S
Cu334  O349    1.952   .     S
Cu334  O352    1.973   .     S
Cu334  N345    2.011   .     S
Cu334  O348    1.951   .     S
Cu334  O353    1.968   .     S
Cl355  C395    1.777   .     S
C361   H370    1.112   .     S
C361   C362    1.535   .     S
C361   H825    1.109   1_554 S
C362   H368    1.111   .     S
C362   H367    1.111   .     S
C362   C363    1.526   .     S
C363   H365    1.111   .     S
C363   H366    1.110   .     S
C363   H820    1.111   1_554 S
H364   C819    1.111   .     S
H369   C817    1.109   .     S
C371   C372    1.536   .     S
C371   H379    1.109   .     S
C371   H380    1.112   .     S
C372   H378    1.109   .     S
C372   H377    1.110   .     S
C373   H375    1.109   .     S
C373   H376    1.110   .     S
C373   C448    1.524   .     S
C373   H830    1.111   .     S
H374   C829    1.111   1_554 S
C381   C401    1.468   .     S
C381   O423    1.296   .     A
C381   O425    1.294   .     A
C382   O426    1.289   .     A
C382   O424    1.290   .     A
C382   C402    1.447   .     S
C383   C437    1.514   .     S
C383   C385    1.416   .     A
C383   C391    1.421   .     A
C384   C392    1.420   .     A
C384   C386    1.416   .     A
C384   C447    1.514   .     S
C385   N421    1.366   .     A
C385   H415    1.080   .     S
C386   H416    1.073   .     S
C386   N422    1.365   .     A
C387   H417    1.080   .     S
C387   C389    1.405   .     A
C387   N421    1.364   .     A
C388   H418    1.079   .     S
C388   N422    1.366   .     A
C388   C390    1.407   .     A
C389   H419    1.081   .     S
C389   C391    1.407   .     A
C390   H420    1.081   .     S
C390   C392    1.406   .     A
C391   C848    1.513   1_554 S
C392   C847    1.513   .     S
C393   O427    1.284   .     A
C393   O429    1.288   .     A
C393   C395    1.432   .     S
C394   O428    1.279   .     A
C394   O430    1.292   .     A
C394   C396    1.429   .     S
C396   C243    1.349   1_655 S
C396   Cl280   1.770   1_655 S
C397   C407    1.405   .     A
C397   Cl433   1.762   .     S
C397   C399    1.391   .     A
C398   C400    1.393   .     A
C398   C408    1.408   .     A
C398   Cl434   1.762   .     S
C399   H411    1.084   .     S
C399   C401    1.405   .     A
C400   C402    1.398   .     A
C400   H412    1.084   .     S
C401   C403    1.414   .     A
C402   C404    1.402   .     A
C403   C405    1.392   .     A
C403   Cl435   1.763   .     S
C404   C406    1.391   .     A
C404   Cl436   1.760   .     S
C405   C407    1.399   .     A
C405   H413    1.084   .     S
C406   H414    1.084   .     S
C406   C408    1.402   .     A
C408   C179    1.464   1_565 S
Cu409  N422    2.011   .     S
Cu409  O427    1.973   .     S
Cu409  O423    1.951   .     S
Cu409  O430    1.968   .     S
Cu409  Cu410   2.677   .     S
Cu409  O426    1.952   .     S
Cu410  O425    1.952   .     S
Cu410  O428    1.973   .     S
Cu410  N421    2.011   .     S
Cu410  O424    1.951   .     S
Cu410  O429    1.968   .     S
Cl431  C243    1.777   1_655 S
C437   H446    1.112   .     S
C437   C438    1.535   .     S
C437   H901    1.109   1_554 S
C438   H444    1.111   .     S
C438   H443    1.111   .     S
C438   C439    1.526   .     S
C439   H441    1.111   .     S
C439   H442    1.110   .     S
C439   H896    1.111   1_554 S
H440   C895    1.111   .     S
H445   C893    1.109   .     S
C447   C448    1.536   .     S
C447   H455    1.109   .     S
C447   H456    1.112   .     S
C448   H454    1.109   .     S
C448   H453    1.110   .     S
C449   H451    1.109   .     S
C449   H452    1.110   .     S
C449   C296    1.524   1_655 S
C449   H906    1.111   .     S
H450   C905    1.111   1_554 S
C457   C477    1.468   .     S
C457   O499    1.296   .     A
C457   O501    1.294   .     A
C458   O502    1.289   .     A
C458   O500    1.290   .     A
C458   C478    1.447   .     S
C459   C513    1.514   .     S
C459   C461    1.416   .     A
C459   C467    1.421   .     A
C460   C468    1.420   .     A
C460   C462    1.416   .     A
C460   C523    1.514   .     S
C461   N497    1.366   .     A
C461   H491    1.080   .     S
C462   H492    1.073   .     S
C462   N498    1.365   .     A
C463   H493    1.080   .     S
C463   C465    1.405   .     A
C463   N497    1.364   .     A
C464   H494    1.079   .     S
C464   N498    1.366   .     A
C464   C466    1.407   .     A
C465   H495    1.081   .     S
C465   C467    1.407   .     A
C466   H496    1.081   .     S
C466   C468    1.406   .     A
C468   C11     1.513   1_556 S
C469   O503    1.284   .     A
C469   O505    1.288   .     A
C469   C471    1.432   .     S
C470   O504    1.279   .     A
C470   O506    1.292   .     A
C470   C472    1.429   .     S
C471   C624    1.349   1_455 S
C471   Cl659   1.777   1_455 S
C472   C547    1.349   .     S
C472   Cl584   1.770   .     S
C473   C483    1.405   .     A
C473   Cl509   1.762   .     S
C473   C475    1.391   .     A
C474   C476    1.393   .     A
C474   C484    1.408   .     A
C474   Cl510   1.762   .     S
C475   H487    1.084   .     S
C475   C477    1.405   .     A
C476   C478    1.398   .     A
C476   H488    1.084   .     S
C477   C479    1.414   .     A
C478   C480    1.402   .     A
C479   C481    1.392   .     A
C479   Cl511   1.763   .     S
C480   C482    1.391   .     A
C480   Cl512   1.760   .     S
C481   C483    1.399   .     A
C481   H489    1.084   .     S
C482   H490    1.084   .     S
C482   C484    1.402   .     A
C483   C712    1.464   1_545 S
C484   C711    1.464   .     S
Cu485  N498    2.011   .     S
Cu485  O503    1.973   .     S
Cu485  O499    1.951   .     S
Cu485  O506    1.968   .     S
Cu485  Cu486   2.677   .     S
Cu485  O502    1.952   .     S
Cu486  O501    1.952   .     S
Cu486  O504    1.973   .     S
Cu486  N497    2.011   .     S
Cu486  O500    1.951   .     S
Cu486  O505    1.968   .     S
Cl507  C547    1.777   .     S
Cl508  C624    1.770   1_455 S
C513   H522    1.112   .     S
C513   C514    1.535   .     S
C514   H520    1.111   .     S
C514   H519    1.111   .     S
C514   C515    1.526   .     S
C515   H517    1.111   .     S
C515   H518    1.110   .     S
H516   C59     1.111   1_556 S
H521   C57     1.109   1_556 S
C523   C524    1.536   .     S
C523   H531    1.109   .     S
C523   H532    1.112   .     S
C524   H530    1.109   .     S
C524   H529    1.110   .     S
C524   C677    1.524   1_455 S
C525   H527    1.109   .     S
C525   H528    1.110   .     S
C525   C600    1.524   .     S
C525   H70     1.111   1_556 S
C533   C553    1.468   .     S
C533   O575    1.296   .     A
C533   O577    1.294   .     A
C534   O578    1.289   .     A
C534   O576    1.290   .     A
C534   C554    1.447   .     S
C535   C589    1.514   .     S
C535   C537    1.416   .     A
C535   C543    1.421   .     A
C536   C544    1.420   .     A
C536   C538    1.416   .     A
C536   C599    1.514   .     S
C537   N573    1.366   .     A
C537   H567    1.080   .     S
C538   H568    1.073   .     S
C538   N574    1.365   .     A
C539   H569    1.080   .     S
C539   C541    1.405   .     A
C539   N573    1.364   .     A
C540   H570    1.079   .     S
C540   N574    1.366   .     A
C540   C542    1.407   .     A
C541   H571    1.081   .     S
C541   C543    1.407   .     A
C542   H572    1.081   .     S
C542   C544    1.406   .     A
C544   C87     1.513   1_556 S
C545   O579    1.284   .     A
C545   O581    1.288   .     A
C545   C547    1.432   .     S
C546   O580    1.279   .     A
C546   O582    1.292   .     A
C546   C548    1.429   .     S
C548   C623    1.349   .     S
C548   Cl660   1.770   .     S
C549   C559    1.405   .     A
C549   Cl585   1.762   .     S
C549   C551    1.391   .     A
C550   C552    1.393   .     A
C550   C560    1.408   .     A
C550   Cl586   1.762   .     S
C551   H563    1.084   .     S
C551   C553    1.405   .     A
C552   C554    1.398   .     A
C552   H564    1.084   .     S
C553   C555    1.414   .     A
C554   C556    1.402   .     A
C555   C557    1.392   .     A
C555   Cl587   1.763   .     S
C556   C558    1.391   .     A
C556   Cl588   1.760   .     S
C557   C559    1.399   .     A
C557   H565    1.084   .     S
C558   H566    1.084   .     S
C558   C560    1.402   .     A
C559   C788    1.464   1_545 S
C560   C787    1.464   .     S
Cu561  N574    2.011   .     S
Cu561  O579    1.973   .     S
Cu561  O575    1.951   .     S
Cu561  O582    1.968   .     S
Cu561  Cu562   2.677   .     S
Cu561  O578    1.952   .     S
Cu562  O577    1.952   .     S
Cu562  O580    1.973   .     S
Cu562  N573    2.011   .     S
Cu562  O576    1.951   .     S
Cu562  O581    1.968   .     S
Cl583  C623    1.777   .     S
C589   H598    1.112   .     S
C589   C590    1.535   .     S
C590   H596    1.111   .     S
C590   H595    1.111   .     S
C590   C591    1.526   .     S
C591   H593    1.111   .     S
C591   H594    1.110   .     S
H592   C135    1.111   1_556 S
H597   C133    1.109   1_556 S
C599   C600    1.536   .     S
C599   H607    1.109   .     S
C599   H608    1.112   .     S
C600   H606    1.109   .     S
C600   H605    1.110   .     S
C601   H603    1.109   .     S
C601   H604    1.110   .     S
C601   C676    1.524   .     S
C601   H146    1.111   1_556 S
C609   C629    1.468   .     S
C609   O651    1.296   .     A
C609   O653    1.294   .     A
C610   O654    1.289   .     A
C610   O652    1.290   .     A
C610   C630    1.447   .     S
C611   C665    1.514   .     S
C611   C613    1.416   .     A
C611   C619    1.421   .     A
C612   C620    1.420   .     A
C612   C614    1.416   .     A
C612   C675    1.514   .     S
C613   N649    1.366   .     A
C613   H643    1.080   .     S
C614   H644    1.073   .     S
C614   N650    1.365   .     A
C615   H645    1.080   .     S
C615   C617    1.405   .     A
C615   N649    1.364   .     A
C616   H646    1.079   .     S
C616   N650    1.366   .     A
C616   C618    1.407   .     A
C617   H647    1.081   .     S
C617   C619    1.407   .     A
C618   H648    1.081   .     S
C618   C620    1.406   .     A
C620   C163    1.513   1_556 S
C621   O655    1.284   .     A
C621   O657    1.288   .     A
C621   C623    1.432   .     S
C622   O656    1.279   .     A
C622   O658    1.292   .     A
C622   C624    1.429   .     S
C624   C471    1.349   1_655 S
C624   Cl508   1.770   1_655 S
C625   C635    1.405   .     A
C625   Cl661   1.762   .     S
C625   C627    1.391   .     A
C626   C628    1.393   .     A
C626   C636    1.408   .     A
C626   Cl662   1.762   .     S
C627   H639    1.084   .     S
C627   C629    1.405   .     A
C628   C630    1.398   .     A
C628   H640    1.084   .     S
C629   C631    1.414   .     A
C630   C632    1.402   .     A
C631   C633    1.392   .     A
C631   Cl663   1.763   .     S
C632   C634    1.391   .     A
C632   Cl664   1.760   .     S
C633   C635    1.399   .     A
C633   H641    1.084   .     S
C634   H642    1.084   .     S
C634   C636    1.402   .     A
C635   C864    1.464   1_545 S
C636   C863    1.464   .     S
Cu637  N650    2.011   .     S
Cu637  O655    1.973   .     S
Cu637  O651    1.951   .     S
Cu637  O658    1.968   .     S
Cu637  Cu638   2.677   .     S
Cu637  O654    1.952   .     S
Cu638  O653    1.952   .     S
Cu638  O656    1.973   .     S
Cu638  N649    2.011   .     S
Cu638  O652    1.951   .     S
Cu638  O657    1.968   .     S
Cl659  C471    1.777   1_655 S
C665   H674    1.112   .     S
C665   C666    1.535   .     S
C666   H672    1.111   .     S
C666   H671    1.111   .     S
C666   C667    1.526   .     S
C667   H669    1.111   .     S
C667   H670    1.110   .     S
H668   C211    1.111   1_556 S
H673   C209    1.109   1_556 S
C675   C676    1.536   .     S
C675   H683    1.109   .     S
C675   H684    1.112   .     S
C676   H682    1.109   .     S
C676   H681    1.110   .     S
C677   H679    1.109   .     S
C677   H680    1.110   .     S
C677   C524    1.524   1_655 S
C677   H222    1.111   1_556 S
C685   C705    1.468   .     S
C685   O727    1.296   .     A
C685   O729    1.294   .     A
C686   O730    1.289   .     A
C686   O728    1.290   .     A
C686   C706    1.447   .     S
C687   C741    1.514   .     S
C687   C689    1.416   .     A
C687   C695    1.421   .     A
C688   C696    1.420   .     A
C688   C690    1.416   .     A
C688   C751    1.514   .     S
C689   N725    1.366   .     A
C689   H719    1.080   .     S
C690   H720    1.073   .     S
C690   N726    1.365   .     A
C691   H721    1.080   .     S
C691   C693    1.405   .     A
C691   N725    1.364   .     A
C692   H722    1.079   .     S
C692   N726    1.366   .     A
C692   C694    1.407   .     A
C693   H723    1.081   .     S
C693   C695    1.407   .     A
C694   H724    1.081   .     S
C694   C696    1.406   .     A
C696   C239    1.513   1_556 S
C697   O731    1.284   .     A
C697   O733    1.288   .     A
C697   C699    1.432   .     S
C698   O732    1.279   .     A
C698   O734    1.292   .     A
C698   C700    1.429   .     S
C699   C852    1.349   1_455 S
C699   Cl887   1.777   1_455 S
C700   C775    1.349   .     S
C700   Cl812   1.770   .     S
C701   C711    1.405   .     A
C701   Cl737   1.762   .     S
C701   C703    1.391   .     A
C702   C704    1.393   .     A
C702   C712    1.408   .     A
C702   Cl738   1.762   .     S
C703   H715    1.084   .     S
C703   C705    1.405   .     A
C704   C706    1.398   .     A
C704   H716    1.084   .     S
C705   C707    1.414   .     A
C706   C708    1.402   .     A
C707   C709    1.392   .     A
C707   Cl739   1.763   .     S
C708   C710    1.391   .     A
C708   Cl740   1.760   .     S
C709   C711    1.399   .     A
C709   H717    1.084   .     S
C710   H718    1.084   .     S
C710   C712    1.402   .     A
C712   C483    1.464   1_565 S
Cu713  N726    2.011   .     S
Cu713  O731    1.973   .     S
Cu713  O727    1.951   .     S
Cu713  O734    1.968   .     S
Cu713  Cu714   2.677   .     S
Cu713  O730    1.952   .     S
Cu714  O729    1.952   .     S
Cu714  O732    1.973   .     S
Cu714  N725    2.011   .     S
Cu714  O728    1.951   .     S
Cu714  O733    1.968   .     S
Cl735  C775    1.777   .     S
Cl736  C852    1.770   1_455 S
C741   H750    1.112   .     S
C741   C742    1.535   .     S
C742   H748    1.111   .     S
C742   H747    1.111   .     S
C742   C743    1.526   .     S
C743   H745    1.111   .     S
C743   H746    1.110   .     S
H744   C287    1.111   1_556 S
H749   C285    1.109   1_556 S
C751   C752    1.536   .     S
C751   H759    1.109   .     S
C751   H760    1.112   .     S
C752   H758    1.109   .     S
C752   H757    1.110   .     S
C752   C905    1.524   1_455 S
C753   H755    1.109   .     S
C753   H756    1.110   .     S
C753   C828    1.524   .     S
C753   H298    1.111   1_556 S
C761   C781    1.468   .     S
C761   O803    1.296   .     A
C761   O805    1.294   .     A
C762   O806    1.289   .     A
C762   O804    1.290   .     A
C762   C782    1.447   .     S
C763   C817    1.514   .     S
C763   C765    1.416   .     A
C763   C771    1.421   .     A
C764   C772    1.420   .     A
C764   C766    1.416   .     A
C764   C827    1.514   .     S
C765   N801    1.366   .     A
C765   H795    1.080   .     S
C766   H796    1.073   .     S
C766   N802    1.365   .     A
C767   H797    1.080   .     S
C767   C769    1.405   .     A
C767   N801    1.364   .     A
C768   H798    1.079   .     S
C768   N802    1.366   .     A
C768   C770    1.407   .     A
C769   H799    1.081   .     S
C769   C771    1.407   .     A
C770   H800    1.081   .     S
C770   C772    1.406   .     A
C772   C315    1.513   1_556 S
C773   O807    1.284   .     A
C773   O809    1.288   .     A
C773   C775    1.432   .     S
C774   O808    1.279   .     A
C774   O810    1.292   .     A
C774   C776    1.429   .     S
C776   C851    1.349   .     S
C776   Cl888   1.770   .     S
C777   C787    1.405   .     A
C777   Cl813   1.762   .     S
C777   C779    1.391   .     A
C778   C780    1.393   .     A
C778   C788    1.408   .     A
C778   Cl814   1.762   .     S
C779   H791    1.084   .     S
C779   C781    1.405   .     A
C780   C782    1.398   .     A
C780   H792    1.084   .     S
C781   C783    1.414   .     A
C782   C784    1.402   .     A
C783   C785    1.392   .     A
C783   Cl815   1.763   .     S
C784   C786    1.391   .     A
C784   Cl816   1.760   .     S
C785   C787    1.399   .     A
C785   H793    1.084   .     S
C786   H794    1.084   .     S
C786   C788    1.402   .     A
C788   C559    1.464   1_565 S
Cu789  N802    2.011   .     S
Cu789  O807    1.973   .     S
Cu789  O803    1.951   .     S
Cu789  O810    1.968   .     S
Cu789  Cu790   2.677   .     S
Cu789  O806    1.952   .     S
Cu790  O805    1.952   .     S
Cu790  O808    1.973   .     S
Cu790  N801    2.011   .     S
Cu790  O804    1.951   .     S
Cu790  O809    1.968   .     S
Cl811  C851    1.777   .     S
C817   H826    1.112   .     S
C817   C818    1.535   .     S
C818   H824    1.111   .     S
C818   H823    1.111   .     S
C818   C819    1.526   .     S
C819   H821    1.111   .     S
C819   H822    1.110   .     S
H820   C363    1.111   1_556 S
H825   C361    1.109   1_556 S
C827   C828    1.536   .     S
C827   H835    1.109   .     S
C827   H836    1.112   .     S
C828   H834    1.109   .     S
C828   H833    1.110   .     S
C829   H831    1.109   .     S
C829   H832    1.110   .     S
C829   C904    1.524   .     S
C829   H374    1.111   1_556 S
C837   C857    1.468   .     S
C837   O879    1.296   .     A
C837   O881    1.294   .     A
C838   O882    1.289   .     A
C838   O880    1.290   .     A
C838   C858    1.447   .     S
C839   C893    1.514   .     S
C839   C841    1.416   .     A
C839   C847    1.421   .     A
C840   C848    1.420   .     A
C840   C842    1.416   .     A
C840   C903    1.514   .     S
C841   N877    1.366   .     A
C841   H871    1.080   .     S
C842   H872    1.073   .     S
C842   N878    1.365   .     A
C843   H873    1.080   .     S
C843   C845    1.405   .     A
C843   N877    1.364   .     A
C844   H874    1.079   .     S
C844   N878    1.366   .     A
C844   C846    1.407   .     A
C845   H875    1.081   .     S
C845   C847    1.407   .     A
C846   H876    1.081   .     S
C846   C848    1.406   .     A
C848   C391    1.513   1_556 S
C849   O883    1.284   .     A
C849   O885    1.288   .     A
C849   C851    1.432   .     S
C850   O884    1.279   .     A
C850   O886    1.292   .     A
C850   C852    1.429   .     S
C852   C699    1.349   1_655 S
C852   Cl736   1.770   1_655 S
C853   C863    1.405   .     A
C853   Cl889   1.762   .     S
C853   C855    1.391   .     A
C854   C856    1.393   .     A
C854   C864    1.408   .     A
C854   Cl890   1.762   .     S
C855   H867    1.084   .     S
C855   C857    1.405   .     A
C856   C858    1.398   .     A
C856   H868    1.084   .     S
C857   C859    1.414   .     A
C858   C860    1.402   .     A
C859   C861    1.392   .     A
C859   Cl891   1.763   .     S
C860   C862    1.391   .     A
C860   Cl892   1.760   .     S
C861   C863    1.399   .     A
C861   H869    1.084   .     S
C862   H870    1.084   .     S
C862   C864    1.402   .     A
C864   C635    1.464   1_565 S
Cu865  N878    2.011   .     S
Cu865  O883    1.973   .     S
Cu865  O879    1.951   .     S
Cu865  O886    1.968   .     S
Cu865  Cu866   2.677   .     S
Cu865  O882    1.952   .     S
Cu866  O881    1.952   .     S
Cu866  O884    1.973   .     S
Cu866  N877    2.011   .     S
Cu866  O880    1.951   .     S
Cu866  O885    1.968   .     S
Cl887  C699    1.777   1_655 S
C893   H902    1.112   .     S
C893   C894    1.535   .     S
C894   H900    1.111   .     S
C894   H899    1.111   .     S
C894   C895    1.526   .     S
C895   H897    1.111   .     S
C895   H898    1.110   .     S
H896   C439    1.111   1_556 S
H901   C437    1.109   1_556 S
C903   C904    1.536   .     S
C903   H911    1.109   .     S
C903   H912    1.112   .     S
C904   H910    1.109   .     S
C904   H909    1.110   .     S
C905   H907    1.109   .     S
C905   H908    1.110   .     S
C905   C752    1.524   1_655 S
C905   H450    1.111   1_556 S
