data_str_m3_o10_o17_pcu_sym.64
_audit_creation_date              2020-01-03
_audit_creation_method            'Materials Studio'
_symmetry_space_group_name_H-M    'P1'
_symmetry_Int_Tables_number       1
_symmetry_cell_setting            triclinic
loop_
_symmetry_equiv_pos_as_xyz
  x,y,z
_cell_length_a                    23.5108
_cell_length_b                    26.0476
_cell_length_c                    29.8175
_cell_angle_alpha                 91.6650
_cell_angle_beta                  86.2245
_cell_angle_gamma                 92.3080
loop_
_atom_site_label
_atom_site_type_symbol
_atom_site_fract_x
_atom_site_fract_y
_atom_site_fract_z
_atom_site_U_iso_or_equiv
_atom_site_adp_type
_atom_site_occupancy
Br1    Br    0.18659   0.27668   0.12992   0.00000  Uiso   1.00
Br2    Br    0.14675   0.05665   0.37008   0.00000  Uiso   1.00
Br3    Br    0.24237   0.31511   0.44785   0.00000  Uiso   1.00
Br4    Br    0.09096   0.01823   0.05215   0.00000  Uiso   1.00
Br5    Br    0.26390   0.00456   0.21755   0.00000  Uiso   1.00
Br6    Br    0.06944   0.32878   0.28245   0.00000  Uiso   1.00
Br7    Br    0.01443   0.11302   0.18941   0.00000  Uiso   1.00
Br8    Br    0.31891   0.22032   0.31059   0.00000  Uiso   1.00
C9     C     0.18129   0.26457   0.24942   0.00000  Uiso   1.00
C10    C     0.18496   0.21004   0.40610   0.00000  Uiso   1.00
C11    C     0.16390   0.16848   0.11630   0.00000  Uiso   1.00
C12    C     0.16943   0.16485   0.38370   0.00000  Uiso   1.00
C13    C     0.17830   0.21399   0.09413   0.00000  Uiso   1.00
C14    C     0.15504   0.11935   0.40587   0.00000  Uiso   1.00
C15    C     0.18280   0.21294   0.04704   0.00000  Uiso   1.00
C16    C     0.15053   0.12040   0.45296   0.00000  Uiso   1.00
C17    C     0.16569   0.16715   0.02357   0.00000  Uiso   1.00
C18    C     0.16765   0.16618   0.47643   0.00000  Uiso   1.00
C19    C     0.14647   0.12240   0.04729   0.00000  Uiso   1.00
C20    C     0.15204   0.06877   0.25058   0.00000  Uiso   1.00
C21    C     0.18687   0.21093   0.45271   0.00000  Uiso   1.00
C22    C     0.20486   0.25573   0.02285   0.00000  Uiso   1.00
C23    C     0.12848   0.07760   0.47715   0.00000  Uiso   1.00
C24    C     0.20705   0.25500   0.47627   0.00000  Uiso   1.00
C25    C     0.12628   0.07833   0.02373   0.00000  Uiso   1.00
C26    C     0.18885   0.31799   0.24477   0.00000  Uiso   1.00
C27    C     0.14449   0.01535   0.25523   0.00000  Uiso   1.00
C28    C     0.16747   0.16612   0.33620   0.00000  Uiso   1.00
C29    C     0.16586   0.16721   0.16380   0.00000  Uiso   1.00
C30    C     0.14837   0.12329   0.09390   0.00000  Uiso   1.00
F31    F     0.13672   0.08057   0.11847   0.00000  Uiso   1.00
F32    F     0.19661   0.25276   0.38153   0.00000  Uiso   1.00
F33    F     0.22750   0.29802   0.04370   0.00000  Uiso   1.00
F34    F     0.10583   0.03531   0.45630   0.00000  Uiso   1.00
N35    N     0.31678   0.15265   0.23783   0.00000  Uiso   1.00
N36    N     0.01656   0.18068   0.26217   0.00000  Uiso   1.00
O37    O     0.12975   0.24619   0.25298   0.00000  Uiso   1.00
O38    O     0.20358   0.08714   0.24702   0.00000  Uiso   1.00
O39    O     0.22613   0.23721   0.24519   0.00000  Uiso   1.00
O40    O     0.10720   0.09613   0.25481   0.00000  Uiso   1.00
O41    O     0.11847   0.17117   0.31997   0.00000  Uiso   1.00
O42    O     0.21486   0.16216   0.18003   0.00000  Uiso   1.00
O43    O     0.21485   0.16219   0.31217   0.00000  Uiso   1.00
O44    O     0.11848   0.17115   0.18782   0.00000  Uiso   1.00
Zn45   Zn    0.10231   0.17266   0.25521   0.00000  Uiso   1.00
Zn46   Zn    0.23102   0.16067   0.24479   0.00000  Uiso   1.00
Br47   Br    0.51992   0.27668   0.12992   0.00000  Uiso   1.00
Br48   Br    0.48008   0.05665   0.37008   0.00000  Uiso   1.00
Br49   Br    0.57571   0.31511   0.44785   0.00000  Uiso   1.00
Br50   Br    0.42429   0.01823   0.05215   0.00000  Uiso   1.00
Br51   Br    0.59723   0.00456   0.21755   0.00000  Uiso   1.00
Br52   Br    0.40277   0.32878   0.28245   0.00000  Uiso   1.00
Br53   Br    0.34776   0.11302   0.18941   0.00000  Uiso   1.00
Br54   Br    0.65224   0.22032   0.31059   0.00000  Uiso   1.00
C55    C     0.51463   0.26457   0.24942   0.00000  Uiso   1.00
C56    C     0.51829   0.21004   0.40610   0.00000  Uiso   1.00
C57    C     0.49724   0.16848   0.11630   0.00000  Uiso   1.00
C58    C     0.50276   0.16485   0.38370   0.00000  Uiso   1.00
C59    C     0.51163   0.21399   0.09413   0.00000  Uiso   1.00
C60    C     0.48837   0.11935   0.40587   0.00000  Uiso   1.00
C61    C     0.51613   0.21294   0.04704   0.00000  Uiso   1.00
C62    C     0.48387   0.12040   0.45296   0.00000  Uiso   1.00
C63    C     0.49902   0.16715   0.02357   0.00000  Uiso   1.00
C64    C     0.50098   0.16618   0.47643   0.00000  Uiso   1.00
C65    C     0.47980   0.12240   0.04729   0.00000  Uiso   1.00
C66    C     0.48537   0.06877   0.25058   0.00000  Uiso   1.00
C67    C     0.52020   0.21093   0.45271   0.00000  Uiso   1.00
C68    C     0.53819   0.25573   0.02285   0.00000  Uiso   1.00
C69    C     0.46181   0.07760   0.47715   0.00000  Uiso   1.00
C70    C     0.54038   0.25500   0.47627   0.00000  Uiso   1.00
C71    C     0.45962   0.07833   0.02373   0.00000  Uiso   1.00
C72    C     0.52218   0.31799   0.24477   0.00000  Uiso   1.00
C73    C     0.47782   0.01535   0.25523   0.00000  Uiso   1.00
C74    C     0.50080   0.16612   0.33620   0.00000  Uiso   1.00
C75    C     0.49920   0.16721   0.16380   0.00000  Uiso   1.00
C76    C     0.48171   0.12329   0.09390   0.00000  Uiso   1.00
F77    F     0.47006   0.08057   0.11847   0.00000  Uiso   1.00
F78    F     0.52994   0.25276   0.38153   0.00000  Uiso   1.00
F79    F     0.56084   0.29802   0.04370   0.00000  Uiso   1.00
F80    F     0.43917   0.03531   0.45630   0.00000  Uiso   1.00
N81    N     0.65011   0.15265   0.23783   0.00000  Uiso   1.00
N82    N     0.34989   0.18068   0.26217   0.00000  Uiso   1.00
O83    O     0.46308   0.24619   0.25298   0.00000  Uiso   1.00
O84    O     0.53692   0.08714   0.24702   0.00000  Uiso   1.00
O85    O     0.55946   0.23721   0.24519   0.00000  Uiso   1.00
O86    O     0.44054   0.09613   0.25481   0.00000  Uiso   1.00
O87    O     0.45181   0.17117   0.31997   0.00000  Uiso   1.00
O88    O     0.54819   0.16216   0.18003   0.00000  Uiso   1.00
O89    O     0.54819   0.16219   0.31217   0.00000  Uiso   1.00
O90    O     0.45181   0.17115   0.18782   0.00000  Uiso   1.00
Zn91   Zn    0.43565   0.17266   0.25521   0.00000  Uiso   1.00
Zn92   Zn    0.56435   0.16067   0.24479   0.00000  Uiso   1.00
Br93   Br    0.85325   0.27668   0.12992   0.00000  Uiso   1.00
Br94   Br    0.81341   0.05665   0.37008   0.00000  Uiso   1.00
Br95   Br    0.90904   0.31511   0.44785   0.00000  Uiso   1.00
Br96   Br    0.75763   0.01823   0.05215   0.00000  Uiso   1.00
Br97   Br    0.93056   0.00456   0.21755   0.00000  Uiso   1.00
Br98   Br    0.73610   0.32878   0.28245   0.00000  Uiso   1.00
Br99   Br    0.68109   0.11302   0.18941   0.00000  Uiso   1.00
Br100  Br    0.98557   0.22032   0.31059   0.00000  Uiso   1.00
C101   C     0.84796   0.26457   0.24942   0.00000  Uiso   1.00
C102   C     0.85163   0.21004   0.40610   0.00000  Uiso   1.00
C103   C     0.83057   0.16848   0.11630   0.00000  Uiso   1.00
C104   C     0.83610   0.16485   0.38370   0.00000  Uiso   1.00
C105   C     0.84496   0.21399   0.09413   0.00000  Uiso   1.00
C106   C     0.82170   0.11935   0.40587   0.00000  Uiso   1.00
C107   C     0.84947   0.21294   0.04704   0.00000  Uiso   1.00
C108   C     0.81720   0.12040   0.45296   0.00000  Uiso   1.00
C109   C     0.83235   0.16715   0.02357   0.00000  Uiso   1.00
C110   C     0.83432   0.16618   0.47643   0.00000  Uiso   1.00
C111   C     0.81313   0.12240   0.04729   0.00000  Uiso   1.00
C112   C     0.81871   0.06877   0.25058   0.00000  Uiso   1.00
C113   C     0.85353   0.21093   0.45271   0.00000  Uiso   1.00
C114   C     0.87152   0.25573   0.02285   0.00000  Uiso   1.00
C115   C     0.79514   0.07760   0.47715   0.00000  Uiso   1.00
C116   C     0.87372   0.25500   0.47627   0.00000  Uiso   1.00
C117   C     0.79295   0.07833   0.02373   0.00000  Uiso   1.00
C118   C     0.85551   0.31799   0.24477   0.00000  Uiso   1.00
C119   C     0.81116   0.01535   0.25523   0.00000  Uiso   1.00
C120   C     0.83414   0.16612   0.33620   0.00000  Uiso   1.00
C121   C     0.83253   0.16721   0.16380   0.00000  Uiso   1.00
C122   C     0.81504   0.12329   0.09390   0.00000  Uiso   1.00
F123   F     0.80339   0.08057   0.11847   0.00000  Uiso   1.00
F124   F     0.86328   0.25276   0.38153   0.00000  Uiso   1.00
F125   F     0.89417   0.29802   0.04370   0.00000  Uiso   1.00
F126   F     0.77250   0.03531   0.45630   0.00000  Uiso   1.00
N127   N     0.98344   0.15265   0.23783   0.00000  Uiso   1.00
N128   N     0.68322   0.18068   0.26217   0.00000  Uiso   1.00
O129   O     0.79642   0.24619   0.25298   0.00000  Uiso   1.00
O130   O     0.87025   0.08714   0.24702   0.00000  Uiso   1.00
O131   O     0.89280   0.23721   0.24519   0.00000  Uiso   1.00
O132   O     0.77387   0.09613   0.25481   0.00000  Uiso   1.00
O133   O     0.78514   0.17117   0.31997   0.00000  Uiso   1.00
O134   O     0.88153   0.16216   0.18003   0.00000  Uiso   1.00
O135   O     0.88152   0.16219   0.31217   0.00000  Uiso   1.00
O136   O     0.78515   0.17115   0.18782   0.00000  Uiso   1.00
Zn137  Zn    0.76898   0.17266   0.25521   0.00000  Uiso   1.00
Zn138  Zn    0.89769   0.16067   0.24479   0.00000  Uiso   1.00
Br139  Br    0.18659   0.61002   0.12992   0.00000  Uiso   1.00
Br140  Br    0.14675   0.38998   0.37008   0.00000  Uiso   1.00
Br141  Br    0.24237   0.64844   0.44785   0.00000  Uiso   1.00
Br142  Br    0.09096   0.35156   0.05215   0.00000  Uiso   1.00
Br143  Br    0.26390   0.33789   0.21755   0.00000  Uiso   1.00
Br144  Br    0.06944   0.66211   0.28245   0.00000  Uiso   1.00
Br145  Br    0.01443   0.44635   0.18941   0.00000  Uiso   1.00
Br146  Br    0.31891   0.55365   0.31059   0.00000  Uiso   1.00
C147   C     0.18129   0.59790   0.24942   0.00000  Uiso   1.00
C148   C     0.18496   0.54337   0.40610   0.00000  Uiso   1.00
C149   C     0.16390   0.50182   0.11630   0.00000  Uiso   1.00
C150   C     0.16943   0.49818   0.38370   0.00000  Uiso   1.00
C151   C     0.17830   0.54732   0.09413   0.00000  Uiso   1.00
C152   C     0.15504   0.45268   0.40587   0.00000  Uiso   1.00
C153   C     0.18280   0.54627   0.04704   0.00000  Uiso   1.00
C154   C     0.15053   0.45373   0.45296   0.00000  Uiso   1.00
C155   C     0.16569   0.50048   0.02357   0.00000  Uiso   1.00
C156   C     0.16765   0.49952   0.47643   0.00000  Uiso   1.00
C157   C     0.14647   0.45573   0.04729   0.00000  Uiso   1.00
C158   C     0.15204   0.40210   0.25058   0.00000  Uiso   1.00
C159   C     0.18687   0.54427   0.45271   0.00000  Uiso   1.00
C160   C     0.20486   0.58906   0.02285   0.00000  Uiso   1.00
C161   C     0.12848   0.41094   0.47715   0.00000  Uiso   1.00
C162   C     0.20705   0.58834   0.47627   0.00000  Uiso   1.00
C163   C     0.12628   0.41166   0.02373   0.00000  Uiso   1.00
C164   C     0.18885   0.65132   0.24477   0.00000  Uiso   1.00
C165   C     0.14449   0.34868   0.25523   0.00000  Uiso   1.00
C166   C     0.16747   0.49945   0.33620   0.00000  Uiso   1.00
C167   C     0.16586   0.50055   0.16380   0.00000  Uiso   1.00
C168   C     0.14837   0.45663   0.09390   0.00000  Uiso   1.00
F169   F     0.13672   0.41391   0.11847   0.00000  Uiso   1.00
F170   F     0.19661   0.58609   0.38153   0.00000  Uiso   1.00
F171   F     0.22750   0.63136   0.04370   0.00000  Uiso   1.00
F172   F     0.10583   0.36864   0.45630   0.00000  Uiso   1.00
N173   N     0.31678   0.48598   0.23783   0.00000  Uiso   1.00
N174   N     0.01656   0.51402   0.26217   0.00000  Uiso   1.00
O175   O     0.12975   0.57952   0.25298   0.00000  Uiso   1.00
O176   O     0.20358   0.42048   0.24702   0.00000  Uiso   1.00
O177   O     0.22613   0.57054   0.24519   0.00000  Uiso   1.00
O178   O     0.10720   0.42946   0.25481   0.00000  Uiso   1.00
O179   O     0.11847   0.50450   0.31997   0.00000  Uiso   1.00
O180   O     0.21486   0.49550   0.18003   0.00000  Uiso   1.00
O181   O     0.21485   0.49552   0.31217   0.00000  Uiso   1.00
O182   O     0.11848   0.50448   0.18782   0.00000  Uiso   1.00
Zn183  Zn    0.10231   0.50600   0.25521   0.00000  Uiso   1.00
Zn184  Zn    0.23102   0.49400   0.24479   0.00000  Uiso   1.00
Br185  Br    0.51992   0.61002   0.12992   0.00000  Uiso   1.00
Br186  Br    0.48008   0.38998   0.37008   0.00000  Uiso   1.00
Br187  Br    0.57571   0.64844   0.44785   0.00000  Uiso   1.00
Br188  Br    0.42429   0.35156   0.05215   0.00000  Uiso   1.00
Br189  Br    0.59723   0.33789   0.21755   0.00000  Uiso   1.00
Br190  Br    0.40277   0.66211   0.28245   0.00000  Uiso   1.00
Br191  Br    0.34776   0.44635   0.18941   0.00000  Uiso   1.00
Br192  Br    0.65224   0.55365   0.31059   0.00000  Uiso   1.00
C193   C     0.51463   0.59790   0.24942   0.00000  Uiso   1.00
C194   C     0.51829   0.54337   0.40610   0.00000  Uiso   1.00
C195   C     0.49724   0.50182   0.11630   0.00000  Uiso   1.00
C196   C     0.50276   0.49818   0.38370   0.00000  Uiso   1.00
C197   C     0.51163   0.54732   0.09413   0.00000  Uiso   1.00
C198   C     0.48837   0.45268   0.40587   0.00000  Uiso   1.00
C199   C     0.51613   0.54627   0.04704   0.00000  Uiso   1.00
C200   C     0.48387   0.45373   0.45296   0.00000  Uiso   1.00
C201   C     0.49902   0.50048   0.02357   0.00000  Uiso   1.00
C202   C     0.50098   0.49952   0.47643   0.00000  Uiso   1.00
C203   C     0.47980   0.45573   0.04729   0.00000  Uiso   1.00
C204   C     0.48537   0.40210   0.25058   0.00000  Uiso   1.00
C205   C     0.52020   0.54427   0.45271   0.00000  Uiso   1.00
C206   C     0.53819   0.58906   0.02285   0.00000  Uiso   1.00
C207   C     0.46181   0.41094   0.47715   0.00000  Uiso   1.00
C208   C     0.54038   0.58834   0.47627   0.00000  Uiso   1.00
C209   C     0.45962   0.41166   0.02373   0.00000  Uiso   1.00
C210   C     0.52218   0.65132   0.24477   0.00000  Uiso   1.00
C211   C     0.47782   0.34868   0.25523   0.00000  Uiso   1.00
C212   C     0.50080   0.49945   0.33620   0.00000  Uiso   1.00
C213   C     0.49920   0.50055   0.16380   0.00000  Uiso   1.00
C214   C     0.48171   0.45663   0.09390   0.00000  Uiso   1.00
F215   F     0.47006   0.41391   0.11847   0.00000  Uiso   1.00
F216   F     0.52994   0.58609   0.38153   0.00000  Uiso   1.00
F217   F     0.56084   0.63136   0.04370   0.00000  Uiso   1.00
F218   F     0.43917   0.36864   0.45630   0.00000  Uiso   1.00
N219   N     0.65011   0.48598   0.23783   0.00000  Uiso   1.00
N220   N     0.34989   0.51402   0.26217   0.00000  Uiso   1.00
O221   O     0.46308   0.57952   0.25298   0.00000  Uiso   1.00
O222   O     0.53692   0.42048   0.24702   0.00000  Uiso   1.00
O223   O     0.55946   0.57054   0.24519   0.00000  Uiso   1.00
O224   O     0.44054   0.42946   0.25481   0.00000  Uiso   1.00
O225   O     0.45181   0.50450   0.31997   0.00000  Uiso   1.00
O226   O     0.54819   0.49550   0.18003   0.00000  Uiso   1.00
O227   O     0.54819   0.49552   0.31217   0.00000  Uiso   1.00
O228   O     0.45181   0.50448   0.18782   0.00000  Uiso   1.00
Zn229  Zn    0.43565   0.50600   0.25521   0.00000  Uiso   1.00
Zn230  Zn    0.56435   0.49400   0.24479   0.00000  Uiso   1.00
Br231  Br    0.85325   0.61002   0.12992   0.00000  Uiso   1.00
Br232  Br    0.81341   0.38998   0.37008   0.00000  Uiso   1.00
Br233  Br    0.90904   0.64844   0.44785   0.00000  Uiso   1.00
Br234  Br    0.75763   0.35156   0.05215   0.00000  Uiso   1.00
Br235  Br    0.93056   0.33789   0.21755   0.00000  Uiso   1.00
Br236  Br    0.73610   0.66211   0.28245   0.00000  Uiso   1.00
Br237  Br    0.68109   0.44635   0.18941   0.00000  Uiso   1.00
Br238  Br    0.98557   0.55365   0.31059   0.00000  Uiso   1.00
C239   C     0.84796   0.59790   0.24942   0.00000  Uiso   1.00
C240   C     0.85163   0.54337   0.40610   0.00000  Uiso   1.00
C241   C     0.83057   0.50182   0.11630   0.00000  Uiso   1.00
C242   C     0.83610   0.49818   0.38370   0.00000  Uiso   1.00
C243   C     0.84496   0.54732   0.09413   0.00000  Uiso   1.00
C244   C     0.82170   0.45268   0.40587   0.00000  Uiso   1.00
C245   C     0.84947   0.54627   0.04704   0.00000  Uiso   1.00
C246   C     0.81720   0.45373   0.45296   0.00000  Uiso   1.00
C247   C     0.83235   0.50048   0.02357   0.00000  Uiso   1.00
C248   C     0.83432   0.49952   0.47643   0.00000  Uiso   1.00
C249   C     0.81313   0.45573   0.04729   0.00000  Uiso   1.00
C250   C     0.81871   0.40210   0.25058   0.00000  Uiso   1.00
C251   C     0.85353   0.54427   0.45271   0.00000  Uiso   1.00
C252   C     0.87152   0.58906   0.02285   0.00000  Uiso   1.00
C253   C     0.79514   0.41094   0.47715   0.00000  Uiso   1.00
C254   C     0.87372   0.58834   0.47627   0.00000  Uiso   1.00
C255   C     0.79295   0.41166   0.02373   0.00000  Uiso   1.00
C256   C     0.85551   0.65132   0.24477   0.00000  Uiso   1.00
C257   C     0.81116   0.34868   0.25523   0.00000  Uiso   1.00
C258   C     0.83414   0.49945   0.33620   0.00000  Uiso   1.00
C259   C     0.83253   0.50055   0.16380   0.00000  Uiso   1.00
C260   C     0.81504   0.45663   0.09390   0.00000  Uiso   1.00
F261   F     0.80339   0.41391   0.11847   0.00000  Uiso   1.00
F262   F     0.86328   0.58609   0.38153   0.00000  Uiso   1.00
F263   F     0.89417   0.63136   0.04370   0.00000  Uiso   1.00
F264   F     0.77250   0.36864   0.45630   0.00000  Uiso   1.00
N265   N     0.98344   0.48598   0.23783   0.00000  Uiso   1.00
N266   N     0.68322   0.51402   0.26217   0.00000  Uiso   1.00
O267   O     0.79642   0.57952   0.25298   0.00000  Uiso   1.00
O268   O     0.87025   0.42048   0.24702   0.00000  Uiso   1.00
O269   O     0.89280   0.57054   0.24519   0.00000  Uiso   1.00
O270   O     0.77387   0.42946   0.25481   0.00000  Uiso   1.00
O271   O     0.78514   0.50450   0.31997   0.00000  Uiso   1.00
O272   O     0.88153   0.49550   0.18003   0.00000  Uiso   1.00
O273   O     0.88152   0.49552   0.31217   0.00000  Uiso   1.00
O274   O     0.78515   0.50448   0.18782   0.00000  Uiso   1.00
Zn275  Zn    0.76898   0.50600   0.25521   0.00000  Uiso   1.00
Zn276  Zn    0.89769   0.49400   0.24479   0.00000  Uiso   1.00
Br277  Br    0.18659   0.94335   0.12992   0.00000  Uiso   1.00
Br278  Br    0.14675   0.72332   0.37008   0.00000  Uiso   1.00
Br279  Br    0.24237   0.98177   0.44785   0.00000  Uiso   1.00
Br280  Br    0.09096   0.68489   0.05215   0.00000  Uiso   1.00
Br281  Br    0.26390   0.67122   0.21755   0.00000  Uiso   1.00
Br282  Br    0.06944   0.99544   0.28245   0.00000  Uiso   1.00
Br283  Br    0.01443   0.77968   0.18941   0.00000  Uiso   1.00
Br284  Br    0.31891   0.88698   0.31059   0.00000  Uiso   1.00
C285   C     0.18129   0.93123   0.24942   0.00000  Uiso   1.00
C286   C     0.18496   0.87671   0.40610   0.00000  Uiso   1.00
C287   C     0.16390   0.83515   0.11630   0.00000  Uiso   1.00
C288   C     0.16943   0.83152   0.38370   0.00000  Uiso   1.00
C289   C     0.17830   0.88065   0.09413   0.00000  Uiso   1.00
C290   C     0.15504   0.78601   0.40587   0.00000  Uiso   1.00
C291   C     0.18280   0.87960   0.04704   0.00000  Uiso   1.00
C292   C     0.15053   0.78706   0.45296   0.00000  Uiso   1.00
C293   C     0.16569   0.83382   0.02357   0.00000  Uiso   1.00
C294   C     0.16765   0.83285   0.47643   0.00000  Uiso   1.00
C295   C     0.14647   0.78907   0.04729   0.00000  Uiso   1.00
C296   C     0.15204   0.73543   0.25058   0.00000  Uiso   1.00
C297   C     0.18687   0.87760   0.45271   0.00000  Uiso   1.00
C298   C     0.20486   0.92240   0.02285   0.00000  Uiso   1.00
C299   C     0.12848   0.74427   0.47715   0.00000  Uiso   1.00
C300   C     0.20705   0.92167   0.47627   0.00000  Uiso   1.00
C301   C     0.12628   0.74500   0.02373   0.00000  Uiso   1.00
C302   C     0.18885   0.98465   0.24477   0.00000  Uiso   1.00
C303   C     0.14449   0.68201   0.25523   0.00000  Uiso   1.00
C304   C     0.16747   0.83278   0.33620   0.00000  Uiso   1.00
C305   C     0.16586   0.83388   0.16380   0.00000  Uiso   1.00
C306   C     0.14837   0.78996   0.09390   0.00000  Uiso   1.00
F307   F     0.13672   0.74724   0.11847   0.00000  Uiso   1.00
F308   F     0.19661   0.91943   0.38153   0.00000  Uiso   1.00
F309   F     0.22750   0.96469   0.04370   0.00000  Uiso   1.00
F310   F     0.10583   0.70198   0.45630   0.00000  Uiso   1.00
N311   N     0.31678   0.81932   0.23783   0.00000  Uiso   1.00
N312   N     0.01656   0.84735   0.26217   0.00000  Uiso   1.00
O313   O     0.12975   0.91286   0.25298   0.00000  Uiso   1.00
O314   O     0.20358   0.75381   0.24702   0.00000  Uiso   1.00
O315   O     0.22613   0.90387   0.24519   0.00000  Uiso   1.00
O316   O     0.10720   0.76279   0.25481   0.00000  Uiso   1.00
O317   O     0.11847   0.83784   0.31997   0.00000  Uiso   1.00
O318   O     0.21486   0.82883   0.18003   0.00000  Uiso   1.00
O319   O     0.21485   0.82885   0.31217   0.00000  Uiso   1.00
O320   O     0.11848   0.83781   0.18782   0.00000  Uiso   1.00
Zn321  Zn    0.10231   0.83933   0.25521   0.00000  Uiso   1.00
Zn322  Zn    0.23102   0.82734   0.24479   0.00000  Uiso   1.00
Br323  Br    0.51992   0.94335   0.12992   0.00000  Uiso   1.00
Br324  Br    0.48008   0.72332   0.37008   0.00000  Uiso   1.00
Br325  Br    0.57571   0.98177   0.44785   0.00000  Uiso   1.00
Br326  Br    0.42429   0.68489   0.05215   0.00000  Uiso   1.00
Br327  Br    0.59723   0.67122   0.21755   0.00000  Uiso   1.00
Br328  Br    0.40277   0.99544   0.28245   0.00000  Uiso   1.00
Br329  Br    0.34776   0.77968   0.18941   0.00000  Uiso   1.00
Br330  Br    0.65224   0.88698   0.31059   0.00000  Uiso   1.00
C331   C     0.51463   0.93123   0.24942   0.00000  Uiso   1.00
C332   C     0.51829   0.87671   0.40610   0.00000  Uiso   1.00
C333   C     0.49724   0.83515   0.11630   0.00000  Uiso   1.00
C334   C     0.50276   0.83152   0.38370   0.00000  Uiso   1.00
C335   C     0.51163   0.88065   0.09413   0.00000  Uiso   1.00
C336   C     0.48837   0.78601   0.40587   0.00000  Uiso   1.00
C337   C     0.51613   0.87960   0.04704   0.00000  Uiso   1.00
C338   C     0.48387   0.78706   0.45296   0.00000  Uiso   1.00
C339   C     0.49902   0.83382   0.02357   0.00000  Uiso   1.00
C340   C     0.50098   0.83285   0.47643   0.00000  Uiso   1.00
C341   C     0.47980   0.78907   0.04729   0.00000  Uiso   1.00
C342   C     0.48537   0.73543   0.25058   0.00000  Uiso   1.00
C343   C     0.52020   0.87760   0.45271   0.00000  Uiso   1.00
C344   C     0.53819   0.92240   0.02285   0.00000  Uiso   1.00
C345   C     0.46181   0.74427   0.47715   0.00000  Uiso   1.00
C346   C     0.54038   0.92167   0.47627   0.00000  Uiso   1.00
C347   C     0.45962   0.74500   0.02373   0.00000  Uiso   1.00
C348   C     0.52218   0.98465   0.24477   0.00000  Uiso   1.00
C349   C     0.47782   0.68201   0.25523   0.00000  Uiso   1.00
C350   C     0.50080   0.83278   0.33620   0.00000  Uiso   1.00
C351   C     0.49920   0.83388   0.16380   0.00000  Uiso   1.00
C352   C     0.48171   0.78996   0.09390   0.00000  Uiso   1.00
F353   F     0.47006   0.74724   0.11847   0.00000  Uiso   1.00
F354   F     0.52994   0.91943   0.38153   0.00000  Uiso   1.00
F355   F     0.56084   0.96469   0.04370   0.00000  Uiso   1.00
F356   F     0.43917   0.70198   0.45630   0.00000  Uiso   1.00
N357   N     0.65011   0.81932   0.23783   0.00000  Uiso   1.00
N358   N     0.34989   0.84735   0.26217   0.00000  Uiso   1.00
O359   O     0.46308   0.91286   0.25298   0.00000  Uiso   1.00
O360   O     0.53692   0.75381   0.24702   0.00000  Uiso   1.00
O361   O     0.55946   0.90387   0.24519   0.00000  Uiso   1.00
O362   O     0.44054   0.76279   0.25481   0.00000  Uiso   1.00
O363   O     0.45181   0.83784   0.31997   0.00000  Uiso   1.00
O364   O     0.54819   0.82883   0.18003   0.00000  Uiso   1.00
O365   O     0.54819   0.82885   0.31217   0.00000  Uiso   1.00
O366   O     0.45181   0.83781   0.18782   0.00000  Uiso   1.00
Zn367  Zn    0.43565   0.83933   0.25521   0.00000  Uiso   1.00
Zn368  Zn    0.56435   0.82734   0.24479   0.00000  Uiso   1.00
Br369  Br    0.85325   0.94335   0.12992   0.00000  Uiso   1.00
Br370  Br    0.81341   0.72332   0.37008   0.00000  Uiso   1.00
Br371  Br    0.90904   0.98177   0.44785   0.00000  Uiso   1.00
Br372  Br    0.75763   0.68489   0.05215   0.00000  Uiso   1.00
Br373  Br    0.93056   0.67122   0.21755   0.00000  Uiso   1.00
Br374  Br    0.73610   0.99544   0.28245   0.00000  Uiso   1.00
Br375  Br    0.68109   0.77968   0.18941   0.00000  Uiso   1.00
Br376  Br    0.98557   0.88698   0.31059   0.00000  Uiso   1.00
C377   C     0.84796   0.93123   0.24942   0.00000  Uiso   1.00
C378   C     0.85163   0.87671   0.40610   0.00000  Uiso   1.00
C379   C     0.83057   0.83515   0.11630   0.00000  Uiso   1.00
C380   C     0.83610   0.83152   0.38370   0.00000  Uiso   1.00
C381   C     0.84496   0.88065   0.09413   0.00000  Uiso   1.00
C382   C     0.82170   0.78601   0.40587   0.00000  Uiso   1.00
C383   C     0.84947   0.87960   0.04704   0.00000  Uiso   1.00
C384   C     0.81720   0.78706   0.45296   0.00000  Uiso   1.00
C385   C     0.83235   0.83382   0.02357   0.00000  Uiso   1.00
C386   C     0.83432   0.83285   0.47643   0.00000  Uiso   1.00
C387   C     0.81313   0.78907   0.04729   0.00000  Uiso   1.00
C388   C     0.81871   0.73543   0.25058   0.00000  Uiso   1.00
C389   C     0.85353   0.87760   0.45271   0.00000  Uiso   1.00
C390   C     0.87152   0.92240   0.02285   0.00000  Uiso   1.00
C391   C     0.79514   0.74427   0.47715   0.00000  Uiso   1.00
C392   C     0.87372   0.92167   0.47627   0.00000  Uiso   1.00
C393   C     0.79295   0.74500   0.02373   0.00000  Uiso   1.00
C394   C     0.85551   0.98465   0.24477   0.00000  Uiso   1.00
C395   C     0.81116   0.68201   0.25523   0.00000  Uiso   1.00
C396   C     0.83414   0.83278   0.33620   0.00000  Uiso   1.00
C397   C     0.83253   0.83388   0.16380   0.00000  Uiso   1.00
C398   C     0.81504   0.78996   0.09390   0.00000  Uiso   1.00
F399   F     0.80339   0.74724   0.11847   0.00000  Uiso   1.00
F400   F     0.86328   0.91943   0.38153   0.00000  Uiso   1.00
F401   F     0.89417   0.96469   0.04370   0.00000  Uiso   1.00
F402   F     0.77250   0.70198   0.45630   0.00000  Uiso   1.00
N403   N     0.98344   0.81932   0.23783   0.00000  Uiso   1.00
N404   N     0.68322   0.84735   0.26217   0.00000  Uiso   1.00
O405   O     0.79642   0.91286   0.25298   0.00000  Uiso   1.00
O406   O     0.87025   0.75381   0.24702   0.00000  Uiso   1.00
O407   O     0.89280   0.90387   0.24519   0.00000  Uiso   1.00
O408   O     0.77387   0.76279   0.25481   0.00000  Uiso   1.00
O409   O     0.78514   0.83784   0.31997   0.00000  Uiso   1.00
O410   O     0.88153   0.82883   0.18003   0.00000  Uiso   1.00
O411   O     0.88152   0.82885   0.31217   0.00000  Uiso   1.00
O412   O     0.78515   0.83781   0.18782   0.00000  Uiso   1.00
Zn413  Zn    0.76898   0.83933   0.25521   0.00000  Uiso   1.00
Zn414  Zn    0.89769   0.82734   0.24479   0.00000  Uiso   1.00
Br415  Br    0.18659   0.27668   0.62992   0.00000  Uiso   1.00
Br416  Br    0.14675   0.05665   0.87008   0.00000  Uiso   1.00
Br417  Br    0.24237   0.31511   0.94785   0.00000  Uiso   1.00
Br418  Br    0.09096   0.01823   0.55215   0.00000  Uiso   1.00
Br419  Br    0.26390   0.00456   0.71755   0.00000  Uiso   1.00
Br420  Br    0.06944   0.32878   0.78245   0.00000  Uiso   1.00
Br421  Br    0.01443   0.11302   0.68941   0.00000  Uiso   1.00
Br422  Br    0.31891   0.22032   0.81059   0.00000  Uiso   1.00
C423   C     0.18129   0.26457   0.74942   0.00000  Uiso   1.00
C424   C     0.18496   0.21004   0.90610   0.00000  Uiso   1.00
C425   C     0.16390   0.16848   0.61630   0.00000  Uiso   1.00
C426   C     0.16943   0.16485   0.88370   0.00000  Uiso   1.00
C427   C     0.17830   0.21399   0.59413   0.00000  Uiso   1.00
C428   C     0.15504   0.11935   0.90587   0.00000  Uiso   1.00
C429   C     0.18280   0.21294   0.54704   0.00000  Uiso   1.00
C430   C     0.15053   0.12040   0.95296   0.00000  Uiso   1.00
C431   C     0.16569   0.16715   0.52357   0.00000  Uiso   1.00
C432   C     0.16765   0.16618   0.97643   0.00000  Uiso   1.00
C433   C     0.14647   0.12240   0.54729   0.00000  Uiso   1.00
C434   C     0.15204   0.06877   0.75058   0.00000  Uiso   1.00
C435   C     0.18687   0.21093   0.95271   0.00000  Uiso   1.00
C436   C     0.20486   0.25573   0.52285   0.00000  Uiso   1.00
C437   C     0.12848   0.07760   0.97715   0.00000  Uiso   1.00
C438   C     0.20705   0.25500   0.97627   0.00000  Uiso   1.00
C439   C     0.12628   0.07833   0.52373   0.00000  Uiso   1.00
C440   C     0.18885   0.31799   0.74477   0.00000  Uiso   1.00
C441   C     0.14449   0.01535   0.75523   0.00000  Uiso   1.00
C442   C     0.16747   0.16612   0.83620   0.00000  Uiso   1.00
C443   C     0.16586   0.16721   0.66380   0.00000  Uiso   1.00
C444   C     0.14837   0.12329   0.59390   0.00000  Uiso   1.00
F445   F     0.13672   0.08057   0.61847   0.00000  Uiso   1.00
F446   F     0.19661   0.25276   0.88153   0.00000  Uiso   1.00
F447   F     0.22750   0.29802   0.54370   0.00000  Uiso   1.00
F448   F     0.10583   0.03531   0.95630   0.00000  Uiso   1.00
N449   N     0.31678   0.15265   0.73783   0.00000  Uiso   1.00
N450   N     0.01656   0.18068   0.76217   0.00000  Uiso   1.00
O451   O     0.12975   0.24619   0.75298   0.00000  Uiso   1.00
O452   O     0.20358   0.08714   0.74702   0.00000  Uiso   1.00
O453   O     0.22613   0.23721   0.74519   0.00000  Uiso   1.00
O454   O     0.10720   0.09613   0.75481   0.00000  Uiso   1.00
O455   O     0.11847   0.17117   0.81997   0.00000  Uiso   1.00
O456   O     0.21486   0.16216   0.68003   0.00000  Uiso   1.00
O457   O     0.21485   0.16219   0.81217   0.00000  Uiso   1.00
O458   O     0.11848   0.17115   0.68782   0.00000  Uiso   1.00
Zn459  Zn    0.10231   0.17266   0.75521   0.00000  Uiso   1.00
Zn460  Zn    0.23102   0.16067   0.74479   0.00000  Uiso   1.00
Br461  Br    0.51992   0.27668   0.62992   0.00000  Uiso   1.00
Br462  Br    0.48008   0.05665   0.87008   0.00000  Uiso   1.00
Br463  Br    0.57571   0.31511   0.94785   0.00000  Uiso   1.00
Br464  Br    0.42429   0.01823   0.55215   0.00000  Uiso   1.00
Br465  Br    0.59723   0.00456   0.71755   0.00000  Uiso   1.00
Br466  Br    0.40277   0.32878   0.78245   0.00000  Uiso   1.00
Br467  Br    0.34776   0.11302   0.68941   0.00000  Uiso   1.00
Br468  Br    0.65224   0.22032   0.81059   0.00000  Uiso   1.00
C469   C     0.51463   0.26457   0.74942   0.00000  Uiso   1.00
C470   C     0.51829   0.21004   0.90610   0.00000  Uiso   1.00
C471   C     0.49724   0.16848   0.61630   0.00000  Uiso   1.00
C472   C     0.50276   0.16485   0.88370   0.00000  Uiso   1.00
C473   C     0.51163   0.21399   0.59413   0.00000  Uiso   1.00
C474   C     0.48837   0.11935   0.90587   0.00000  Uiso   1.00
C475   C     0.51613   0.21294   0.54704   0.00000  Uiso   1.00
C476   C     0.48387   0.12040   0.95296   0.00000  Uiso   1.00
C477   C     0.49902   0.16715   0.52357   0.00000  Uiso   1.00
C478   C     0.50098   0.16618   0.97643   0.00000  Uiso   1.00
C479   C     0.47980   0.12240   0.54729   0.00000  Uiso   1.00
C480   C     0.48537   0.06877   0.75058   0.00000  Uiso   1.00
C481   C     0.52020   0.21093   0.95271   0.00000  Uiso   1.00
C482   C     0.53819   0.25573   0.52285   0.00000  Uiso   1.00
C483   C     0.46181   0.07760   0.97715   0.00000  Uiso   1.00
C484   C     0.54038   0.25500   0.97627   0.00000  Uiso   1.00
C485   C     0.45962   0.07833   0.52373   0.00000  Uiso   1.00
C486   C     0.52218   0.31799   0.74477   0.00000  Uiso   1.00
C487   C     0.47782   0.01535   0.75523   0.00000  Uiso   1.00
C488   C     0.50080   0.16612   0.83620   0.00000  Uiso   1.00
C489   C     0.49920   0.16721   0.66380   0.00000  Uiso   1.00
C490   C     0.48171   0.12329   0.59390   0.00000  Uiso   1.00
F491   F     0.47006   0.08057   0.61847   0.00000  Uiso   1.00
F492   F     0.52994   0.25276   0.88153   0.00000  Uiso   1.00
F493   F     0.56084   0.29802   0.54370   0.00000  Uiso   1.00
F494   F     0.43917   0.03531   0.95630   0.00000  Uiso   1.00
N495   N     0.65011   0.15265   0.73783   0.00000  Uiso   1.00
N496   N     0.34989   0.18068   0.76217   0.00000  Uiso   1.00
O497   O     0.46308   0.24619   0.75298   0.00000  Uiso   1.00
O498   O     0.53692   0.08714   0.74702   0.00000  Uiso   1.00
O499   O     0.55946   0.23721   0.74519   0.00000  Uiso   1.00
O500   O     0.44054   0.09613   0.75481   0.00000  Uiso   1.00
O501   O     0.45181   0.17117   0.81997   0.00000  Uiso   1.00
O502   O     0.54819   0.16216   0.68003   0.00000  Uiso   1.00
O503   O     0.54819   0.16219   0.81217   0.00000  Uiso   1.00
O504   O     0.45181   0.17115   0.68782   0.00000  Uiso   1.00
Zn505  Zn    0.43565   0.17266   0.75521   0.00000  Uiso   1.00
Zn506  Zn    0.56435   0.16067   0.74479   0.00000  Uiso   1.00
Br507  Br    0.85325   0.27668   0.62992   0.00000  Uiso   1.00
Br508  Br    0.81341   0.05665   0.87008   0.00000  Uiso   1.00
Br509  Br    0.90904   0.31511   0.94785   0.00000  Uiso   1.00
Br510  Br    0.75763   0.01823   0.55215   0.00000  Uiso   1.00
Br511  Br    0.93056   0.00456   0.71755   0.00000  Uiso   1.00
Br512  Br    0.73610   0.32878   0.78245   0.00000  Uiso   1.00
Br513  Br    0.68109   0.11302   0.68941   0.00000  Uiso   1.00
Br514  Br    0.98557   0.22032   0.81059   0.00000  Uiso   1.00
C515   C     0.84796   0.26457   0.74942   0.00000  Uiso   1.00
C516   C     0.85163   0.21004   0.90610   0.00000  Uiso   1.00
C517   C     0.83057   0.16848   0.61630   0.00000  Uiso   1.00
C518   C     0.83610   0.16485   0.88370   0.00000  Uiso   1.00
C519   C     0.84496   0.21399   0.59413   0.00000  Uiso   1.00
C520   C     0.82170   0.11935   0.90587   0.00000  Uiso   1.00
C521   C     0.84947   0.21294   0.54704   0.00000  Uiso   1.00
C522   C     0.81720   0.12040   0.95296   0.00000  Uiso   1.00
C523   C     0.83235   0.16715   0.52357   0.00000  Uiso   1.00
C524   C     0.83432   0.16618   0.97643   0.00000  Uiso   1.00
C525   C     0.81313   0.12240   0.54729   0.00000  Uiso   1.00
C526   C     0.81871   0.06877   0.75058   0.00000  Uiso   1.00
C527   C     0.85353   0.21093   0.95271   0.00000  Uiso   1.00
C528   C     0.87152   0.25573   0.52285   0.00000  Uiso   1.00
C529   C     0.79514   0.07760   0.97715   0.00000  Uiso   1.00
C530   C     0.87372   0.25500   0.97627   0.00000  Uiso   1.00
C531   C     0.79295   0.07833   0.52373   0.00000  Uiso   1.00
C532   C     0.85551   0.31799   0.74477   0.00000  Uiso   1.00
C533   C     0.81116   0.01535   0.75523   0.00000  Uiso   1.00
C534   C     0.83414   0.16612   0.83620   0.00000  Uiso   1.00
C535   C     0.83253   0.16721   0.66380   0.00000  Uiso   1.00
C536   C     0.81504   0.12329   0.59390   0.00000  Uiso   1.00
F537   F     0.80339   0.08057   0.61847   0.00000  Uiso   1.00
F538   F     0.86328   0.25276   0.88153   0.00000  Uiso   1.00
F539   F     0.89417   0.29802   0.54370   0.00000  Uiso   1.00
F540   F     0.77250   0.03531   0.95630   0.00000  Uiso   1.00
N541   N     0.98344   0.15265   0.73783   0.00000  Uiso   1.00
N542   N     0.68322   0.18068   0.76217   0.00000  Uiso   1.00
O543   O     0.79642   0.24619   0.75298   0.00000  Uiso   1.00
O544   O     0.87025   0.08714   0.74702   0.00000  Uiso   1.00
O545   O     0.89280   0.23721   0.74519   0.00000  Uiso   1.00
O546   O     0.77387   0.09613   0.75481   0.00000  Uiso   1.00
O547   O     0.78514   0.17117   0.81997   0.00000  Uiso   1.00
O548   O     0.88153   0.16216   0.68003   0.00000  Uiso   1.00
O549   O     0.88152   0.16219   0.81217   0.00000  Uiso   1.00
O550   O     0.78515   0.17115   0.68782   0.00000  Uiso   1.00
Zn551  Zn    0.76898   0.17266   0.75521   0.00000  Uiso   1.00
Zn552  Zn    0.89769   0.16067   0.74479   0.00000  Uiso   1.00
Br553  Br    0.18659   0.61002   0.62992   0.00000  Uiso   1.00
Br554  Br    0.14675   0.38998   0.87008   0.00000  Uiso   1.00
Br555  Br    0.24237   0.64844   0.94785   0.00000  Uiso   1.00
Br556  Br    0.09096   0.35156   0.55215   0.00000  Uiso   1.00
Br557  Br    0.26390   0.33789   0.71755   0.00000  Uiso   1.00
Br558  Br    0.06944   0.66211   0.78245   0.00000  Uiso   1.00
Br559  Br    0.01443   0.44635   0.68941   0.00000  Uiso   1.00
Br560  Br    0.31891   0.55365   0.81059   0.00000  Uiso   1.00
C561   C     0.18129   0.59790   0.74942   0.00000  Uiso   1.00
C562   C     0.18496   0.54337   0.90610   0.00000  Uiso   1.00
C563   C     0.16390   0.50182   0.61630   0.00000  Uiso   1.00
C564   C     0.16943   0.49818   0.88370   0.00000  Uiso   1.00
C565   C     0.17830   0.54732   0.59413   0.00000  Uiso   1.00
C566   C     0.15504   0.45268   0.90587   0.00000  Uiso   1.00
C567   C     0.18280   0.54627   0.54704   0.00000  Uiso   1.00
C568   C     0.15053   0.45373   0.95296   0.00000  Uiso   1.00
C569   C     0.16569   0.50048   0.52357   0.00000  Uiso   1.00
C570   C     0.16765   0.49952   0.97643   0.00000  Uiso   1.00
C571   C     0.14647   0.45573   0.54729   0.00000  Uiso   1.00
C572   C     0.15204   0.40210   0.75058   0.00000  Uiso   1.00
C573   C     0.18687   0.54427   0.95271   0.00000  Uiso   1.00
C574   C     0.20486   0.58906   0.52285   0.00000  Uiso   1.00
C575   C     0.12848   0.41094   0.97715   0.00000  Uiso   1.00
C576   C     0.20705   0.58834   0.97627   0.00000  Uiso   1.00
C577   C     0.12628   0.41166   0.52373   0.00000  Uiso   1.00
C578   C     0.18885   0.65132   0.74477   0.00000  Uiso   1.00
C579   C     0.14449   0.34868   0.75523   0.00000  Uiso   1.00
C580   C     0.16747   0.49945   0.83620   0.00000  Uiso   1.00
C581   C     0.16586   0.50055   0.66380   0.00000  Uiso   1.00
C582   C     0.14837   0.45663   0.59390   0.00000  Uiso   1.00
F583   F     0.13672   0.41391   0.61847   0.00000  Uiso   1.00
F584   F     0.19661   0.58609   0.88153   0.00000  Uiso   1.00
F585   F     0.22750   0.63136   0.54370   0.00000  Uiso   1.00
F586   F     0.10583   0.36864   0.95630   0.00000  Uiso   1.00
N587   N     0.31678   0.48598   0.73783   0.00000  Uiso   1.00
N588   N     0.01656   0.51402   0.76217   0.00000  Uiso   1.00
O589   O     0.12975   0.57952   0.75298   0.00000  Uiso   1.00
O590   O     0.20358   0.42048   0.74702   0.00000  Uiso   1.00
O591   O     0.22613   0.57054   0.74519   0.00000  Uiso   1.00
O592   O     0.10720   0.42946   0.75481   0.00000  Uiso   1.00
O593   O     0.11847   0.50450   0.81997   0.00000  Uiso   1.00
O594   O     0.21486   0.49550   0.68003   0.00000  Uiso   1.00
O595   O     0.21485   0.49552   0.81217   0.00000  Uiso   1.00
O596   O     0.11848   0.50448   0.68782   0.00000  Uiso   1.00
Zn597  Zn    0.10231   0.50600   0.75521   0.00000  Uiso   1.00
Zn598  Zn    0.23102   0.49400   0.74479   0.00000  Uiso   1.00
Br599  Br    0.51992   0.61002   0.62992   0.00000  Uiso   1.00
Br600  Br    0.48008   0.38998   0.87008   0.00000  Uiso   1.00
Br601  Br    0.57571   0.64844   0.94785   0.00000  Uiso   1.00
Br602  Br    0.42429   0.35156   0.55215   0.00000  Uiso   1.00
Br603  Br    0.59723   0.33789   0.71755   0.00000  Uiso   1.00
Br604  Br    0.40277   0.66211   0.78245   0.00000  Uiso   1.00
Br605  Br    0.34776   0.44635   0.68941   0.00000  Uiso   1.00
Br606  Br    0.65224   0.55365   0.81059   0.00000  Uiso   1.00
C607   C     0.51463   0.59790   0.74942   0.00000  Uiso   1.00
C608   C     0.51829   0.54337   0.90610   0.00000  Uiso   1.00
C609   C     0.49724   0.50182   0.61630   0.00000  Uiso   1.00
C610   C     0.50276   0.49818   0.88370   0.00000  Uiso   1.00
C611   C     0.51163   0.54732   0.59413   0.00000  Uiso   1.00
C612   C     0.48837   0.45268   0.90587   0.00000  Uiso   1.00
C613   C     0.51613   0.54627   0.54704   0.00000  Uiso   1.00
C614   C     0.48387   0.45373   0.95296   0.00000  Uiso   1.00
C615   C     0.49902   0.50048   0.52357   0.00000  Uiso   1.00
C616   C     0.50098   0.49952   0.97643   0.00000  Uiso   1.00
C617   C     0.47980   0.45573   0.54729   0.00000  Uiso   1.00
C618   C     0.48537   0.40210   0.75058   0.00000  Uiso   1.00
C619   C     0.52020   0.54427   0.95271   0.00000  Uiso   1.00
C620   C     0.53819   0.58906   0.52285   0.00000  Uiso   1.00
C621   C     0.46181   0.41094   0.97715   0.00000  Uiso   1.00
C622   C     0.54038   0.58834   0.97627   0.00000  Uiso   1.00
C623   C     0.45962   0.41166   0.52373   0.00000  Uiso   1.00
C624   C     0.52218   0.65132   0.74477   0.00000  Uiso   1.00
C625   C     0.47782   0.34868   0.75523   0.00000  Uiso   1.00
C626   C     0.50080   0.49945   0.83620   0.00000  Uiso   1.00
C627   C     0.49920   0.50055   0.66380   0.00000  Uiso   1.00
C628   C     0.48171   0.45663   0.59390   0.00000  Uiso   1.00
F629   F     0.47006   0.41391   0.61847   0.00000  Uiso   1.00
F630   F     0.52994   0.58609   0.88153   0.00000  Uiso   1.00
F631   F     0.56084   0.63136   0.54370   0.00000  Uiso   1.00
F632   F     0.43917   0.36864   0.95630   0.00000  Uiso   1.00
N633   N     0.65011   0.48598   0.73783   0.00000  Uiso   1.00
N634   N     0.34989   0.51402   0.76217   0.00000  Uiso   1.00
O635   O     0.46308   0.57952   0.75298   0.00000  Uiso   1.00
O636   O     0.53692   0.42048   0.74702   0.00000  Uiso   1.00
O637   O     0.55946   0.57054   0.74519   0.00000  Uiso   1.00
O638   O     0.44054   0.42946   0.75481   0.00000  Uiso   1.00
O639   O     0.45181   0.50450   0.81997   0.00000  Uiso   1.00
O640   O     0.54819   0.49550   0.68003   0.00000  Uiso   1.00
O641   O     0.54819   0.49552   0.81217   0.00000  Uiso   1.00
O642   O     0.45181   0.50448   0.68782   0.00000  Uiso   1.00
Zn643  Zn    0.43565   0.50600   0.75521   0.00000  Uiso   1.00
Zn644  Zn    0.56435   0.49400   0.74479   0.00000  Uiso   1.00
Br645  Br    0.85325   0.61002   0.62992   0.00000  Uiso   1.00
Br646  Br    0.81341   0.38998   0.87008   0.00000  Uiso   1.00
Br647  Br    0.90904   0.64844   0.94785   0.00000  Uiso   1.00
Br648  Br    0.75763   0.35156   0.55215   0.00000  Uiso   1.00
Br649  Br    0.93056   0.33789   0.71755   0.00000  Uiso   1.00
Br650  Br    0.73610   0.66211   0.78245   0.00000  Uiso   1.00
Br651  Br    0.68109   0.44635   0.68941   0.00000  Uiso   1.00
Br652  Br    0.98557   0.55365   0.81059   0.00000  Uiso   1.00
C653   C     0.84796   0.59790   0.74942   0.00000  Uiso   1.00
C654   C     0.85163   0.54337   0.90610   0.00000  Uiso   1.00
C655   C     0.83057   0.50182   0.61630   0.00000  Uiso   1.00
C656   C     0.83610   0.49818   0.88370   0.00000  Uiso   1.00
C657   C     0.84496   0.54732   0.59413   0.00000  Uiso   1.00
C658   C     0.82170   0.45268   0.90587   0.00000  Uiso   1.00
C659   C     0.84947   0.54627   0.54704   0.00000  Uiso   1.00
C660   C     0.81720   0.45373   0.95296   0.00000  Uiso   1.00
C661   C     0.83235   0.50048   0.52357   0.00000  Uiso   1.00
C662   C     0.83432   0.49952   0.97643   0.00000  Uiso   1.00
C663   C     0.81313   0.45573   0.54729   0.00000  Uiso   1.00
C664   C     0.81871   0.40210   0.75058   0.00000  Uiso   1.00
C665   C     0.85353   0.54427   0.95271   0.00000  Uiso   1.00
C666   C     0.87152   0.58906   0.52285   0.00000  Uiso   1.00
C667   C     0.79514   0.41094   0.97715   0.00000  Uiso   1.00
C668   C     0.87372   0.58834   0.97627   0.00000  Uiso   1.00
C669   C     0.79295   0.41166   0.52373   0.00000  Uiso   1.00
C670   C     0.85551   0.65132   0.74477   0.00000  Uiso   1.00
C671   C     0.81116   0.34868   0.75523   0.00000  Uiso   1.00
C672   C     0.83414   0.49945   0.83620   0.00000  Uiso   1.00
C673   C     0.83253   0.50055   0.66380   0.00000  Uiso   1.00
C674   C     0.81504   0.45663   0.59390   0.00000  Uiso   1.00
F675   F     0.80339   0.41391   0.61847   0.00000  Uiso   1.00
F676   F     0.86328   0.58609   0.88153   0.00000  Uiso   1.00
F677   F     0.89417   0.63136   0.54370   0.00000  Uiso   1.00
F678   F     0.77250   0.36864   0.95630   0.00000  Uiso   1.00
N679   N     0.98344   0.48598   0.73783   0.00000  Uiso   1.00
N680   N     0.68322   0.51402   0.76217   0.00000  Uiso   1.00
O681   O     0.79642   0.57952   0.75298   0.00000  Uiso   1.00
O682   O     0.87025   0.42048   0.74702   0.00000  Uiso   1.00
O683   O     0.89280   0.57054   0.74519   0.00000  Uiso   1.00
O684   O     0.77387   0.42946   0.75481   0.00000  Uiso   1.00
O685   O     0.78514   0.50450   0.81997   0.00000  Uiso   1.00
O686   O     0.88153   0.49550   0.68003   0.00000  Uiso   1.00
O687   O     0.88152   0.49552   0.81217   0.00000  Uiso   1.00
O688   O     0.78515   0.50448   0.68782   0.00000  Uiso   1.00
Zn689  Zn    0.76898   0.50600   0.75521   0.00000  Uiso   1.00
Zn690  Zn    0.89769   0.49400   0.74479   0.00000  Uiso   1.00
Br691  Br    0.18659   0.94335   0.62992   0.00000  Uiso   1.00
Br692  Br    0.14675   0.72332   0.87008   0.00000  Uiso   1.00
Br693  Br    0.24237   0.98177   0.94785   0.00000  Uiso   1.00
Br694  Br    0.09096   0.68489   0.55215   0.00000  Uiso   1.00
Br695  Br    0.26390   0.67122   0.71755   0.00000  Uiso   1.00
Br696  Br    0.06944   0.99544   0.78245   0.00000  Uiso   1.00
Br697  Br    0.01443   0.77968   0.68941   0.00000  Uiso   1.00
Br698  Br    0.31891   0.88698   0.81059   0.00000  Uiso   1.00
C699   C     0.18129   0.93123   0.74942   0.00000  Uiso   1.00
C700   C     0.18496   0.87671   0.90610   0.00000  Uiso   1.00
C701   C     0.16390   0.83515   0.61630   0.00000  Uiso   1.00
C702   C     0.16943   0.83152   0.88370   0.00000  Uiso   1.00
C703   C     0.17830   0.88065   0.59413   0.00000  Uiso   1.00
C704   C     0.15504   0.78601   0.90587   0.00000  Uiso   1.00
C705   C     0.18280   0.87960   0.54704   0.00000  Uiso   1.00
C706   C     0.15053   0.78706   0.95296   0.00000  Uiso   1.00
C707   C     0.16569   0.83382   0.52357   0.00000  Uiso   1.00
C708   C     0.16765   0.83285   0.97643   0.00000  Uiso   1.00
C709   C     0.14647   0.78907   0.54729   0.00000  Uiso   1.00
C710   C     0.15204   0.73543   0.75058   0.00000  Uiso   1.00
C711   C     0.18687   0.87760   0.95271   0.00000  Uiso   1.00
C712   C     0.20486   0.92240   0.52285   0.00000  Uiso   1.00
C713   C     0.12848   0.74427   0.97715   0.00000  Uiso   1.00
C714   C     0.20705   0.92167   0.97627   0.00000  Uiso   1.00
C715   C     0.12628   0.74500   0.52373   0.00000  Uiso   1.00
C716   C     0.18885   0.98465   0.74477   0.00000  Uiso   1.00
C717   C     0.14449   0.68201   0.75523   0.00000  Uiso   1.00
C718   C     0.16747   0.83278   0.83620   0.00000  Uiso   1.00
C719   C     0.16586   0.83388   0.66380   0.00000  Uiso   1.00
C720   C     0.14837   0.78996   0.59390   0.00000  Uiso   1.00
F721   F     0.13672   0.74724   0.61847   0.00000  Uiso   1.00
F722   F     0.19661   0.91943   0.88153   0.00000  Uiso   1.00
F723   F     0.22750   0.96469   0.54370   0.00000  Uiso   1.00
F724   F     0.10583   0.70198   0.95630   0.00000  Uiso   1.00
N725   N     0.31678   0.81932   0.73783   0.00000  Uiso   1.00
N726   N     0.01656   0.84735   0.76217   0.00000  Uiso   1.00
O727   O     0.12975   0.91286   0.75298   0.00000  Uiso   1.00
O728   O     0.20358   0.75381   0.74702   0.00000  Uiso   1.00
O729   O     0.22613   0.90387   0.74519   0.00000  Uiso   1.00
O730   O     0.10720   0.76279   0.75481   0.00000  Uiso   1.00
O731   O     0.11847   0.83784   0.81997   0.00000  Uiso   1.00
O732   O     0.21486   0.82883   0.68003   0.00000  Uiso   1.00
O733   O     0.21485   0.82885   0.81217   0.00000  Uiso   1.00
O734   O     0.11848   0.83781   0.68782   0.00000  Uiso   1.00
Zn735  Zn    0.10231   0.83933   0.75521   0.00000  Uiso   1.00
Zn736  Zn    0.23102   0.82734   0.74479   0.00000  Uiso   1.00
Br737  Br    0.51992   0.94335   0.62992   0.00000  Uiso   1.00
Br738  Br    0.48008   0.72332   0.87008   0.00000  Uiso   1.00
Br739  Br    0.57571   0.98177   0.94785   0.00000  Uiso   1.00
Br740  Br    0.42429   0.68489   0.55215   0.00000  Uiso   1.00
Br741  Br    0.59723   0.67122   0.71755   0.00000  Uiso   1.00
Br742  Br    0.40277   0.99544   0.78245   0.00000  Uiso   1.00
Br743  Br    0.34776   0.77968   0.68941   0.00000  Uiso   1.00
Br744  Br    0.65224   0.88698   0.81059   0.00000  Uiso   1.00
C745   C     0.51463   0.93123   0.74942   0.00000  Uiso   1.00
C746   C     0.51829   0.87671   0.90610   0.00000  Uiso   1.00
C747   C     0.49724   0.83515   0.61630   0.00000  Uiso   1.00
C748   C     0.50276   0.83152   0.88370   0.00000  Uiso   1.00
C749   C     0.51163   0.88065   0.59413   0.00000  Uiso   1.00
C750   C     0.48837   0.78601   0.90587   0.00000  Uiso   1.00
C751   C     0.51613   0.87960   0.54704   0.00000  Uiso   1.00
C752   C     0.48387   0.78706   0.95296   0.00000  Uiso   1.00
C753   C     0.49902   0.83382   0.52357   0.00000  Uiso   1.00
C754   C     0.50098   0.83285   0.97643   0.00000  Uiso   1.00
C755   C     0.47980   0.78907   0.54729   0.00000  Uiso   1.00
C756   C     0.48537   0.73543   0.75058   0.00000  Uiso   1.00
C757   C     0.52020   0.87760   0.95271   0.00000  Uiso   1.00
C758   C     0.53819   0.92240   0.52285   0.00000  Uiso   1.00
C759   C     0.46181   0.74427   0.97715   0.00000  Uiso   1.00
C760   C     0.54038   0.92167   0.97627   0.00000  Uiso   1.00
C761   C     0.45962   0.74500   0.52373   0.00000  Uiso   1.00
C762   C     0.52218   0.98465   0.74477   0.00000  Uiso   1.00
C763   C     0.47782   0.68201   0.75523   0.00000  Uiso   1.00
C764   C     0.50080   0.83278   0.83620   0.00000  Uiso   1.00
C765   C     0.49920   0.83388   0.66380   0.00000  Uiso   1.00
C766   C     0.48171   0.78996   0.59390   0.00000  Uiso   1.00
F767   F     0.47006   0.74724   0.61847   0.00000  Uiso   1.00
F768   F     0.52994   0.91943   0.88153   0.00000  Uiso   1.00
F769   F     0.56084   0.96469   0.54370   0.00000  Uiso   1.00
F770   F     0.43917   0.70198   0.95630   0.00000  Uiso   1.00
N771   N     0.65011   0.81932   0.73783   0.00000  Uiso   1.00
N772   N     0.34989   0.84735   0.76217   0.00000  Uiso   1.00
O773   O     0.46308   0.91286   0.75298   0.00000  Uiso   1.00
O774   O     0.53692   0.75381   0.74702   0.00000  Uiso   1.00
O775   O     0.55946   0.90387   0.74519   0.00000  Uiso   1.00
O776   O     0.44054   0.76279   0.75481   0.00000  Uiso   1.00
O777   O     0.45181   0.83784   0.81997   0.00000  Uiso   1.00
O778   O     0.54819   0.82883   0.68003   0.00000  Uiso   1.00
O779   O     0.54819   0.82885   0.81217   0.00000  Uiso   1.00
O780   O     0.45181   0.83781   0.68782   0.00000  Uiso   1.00
Zn781  Zn    0.43565   0.83933   0.75521   0.00000  Uiso   1.00
Zn782  Zn    0.56435   0.82734   0.74479   0.00000  Uiso   1.00
Br783  Br    0.85325   0.94335   0.62992   0.00000  Uiso   1.00
Br784  Br    0.81341   0.72332   0.87008   0.00000  Uiso   1.00
Br785  Br    0.90904   0.98177   0.94785   0.00000  Uiso   1.00
Br786  Br    0.75763   0.68489   0.55215   0.00000  Uiso   1.00
Br787  Br    0.93056   0.67122   0.71755   0.00000  Uiso   1.00
Br788  Br    0.73610   0.99544   0.78245   0.00000  Uiso   1.00
Br789  Br    0.68109   0.77968   0.68941   0.00000  Uiso   1.00
Br790  Br    0.98557   0.88698   0.81059   0.00000  Uiso   1.00
C791   C     0.84796   0.93123   0.74942   0.00000  Uiso   1.00
C792   C     0.85163   0.87671   0.90610   0.00000  Uiso   1.00
C793   C     0.83057   0.83515   0.61630   0.00000  Uiso   1.00
C794   C     0.83610   0.83152   0.88370   0.00000  Uiso   1.00
C795   C     0.84496   0.88065   0.59413   0.00000  Uiso   1.00
C796   C     0.82170   0.78601   0.90587   0.00000  Uiso   1.00
C797   C     0.84947   0.87960   0.54704   0.00000  Uiso   1.00
C798   C     0.81720   0.78706   0.95296   0.00000  Uiso   1.00
C799   C     0.83235   0.83382   0.52357   0.00000  Uiso   1.00
C800   C     0.83432   0.83285   0.97643   0.00000  Uiso   1.00
C801   C     0.81313   0.78907   0.54729   0.00000  Uiso   1.00
C802   C     0.81871   0.73543   0.75058   0.00000  Uiso   1.00
C803   C     0.85353   0.87760   0.95271   0.00000  Uiso   1.00
C804   C     0.87152   0.92240   0.52285   0.00000  Uiso   1.00
C805   C     0.79514   0.74427   0.97715   0.00000  Uiso   1.00
C806   C     0.87372   0.92167   0.97627   0.00000  Uiso   1.00
C807   C     0.79295   0.74500   0.52373   0.00000  Uiso   1.00
C808   C     0.85551   0.98465   0.74477   0.00000  Uiso   1.00
C809   C     0.81116   0.68201   0.75523   0.00000  Uiso   1.00
C810   C     0.83414   0.83278   0.83620   0.00000  Uiso   1.00
C811   C     0.83253   0.83388   0.66380   0.00000  Uiso   1.00
C812   C     0.81504   0.78996   0.59390   0.00000  Uiso   1.00
F813   F     0.80339   0.74724   0.61847   0.00000  Uiso   1.00
F814   F     0.86328   0.91943   0.88153   0.00000  Uiso   1.00
F815   F     0.89417   0.96469   0.54370   0.00000  Uiso   1.00
F816   F     0.77250   0.70198   0.95630   0.00000  Uiso   1.00
N817   N     0.98344   0.81932   0.73783   0.00000  Uiso   1.00
N818   N     0.68322   0.84735   0.76217   0.00000  Uiso   1.00
O819   O     0.79642   0.91286   0.75298   0.00000  Uiso   1.00
O820   O     0.87025   0.75381   0.74702   0.00000  Uiso   1.00
O821   O     0.89280   0.90387   0.74519   0.00000  Uiso   1.00
O822   O     0.77387   0.76279   0.75481   0.00000  Uiso   1.00
O823   O     0.78514   0.83784   0.81997   0.00000  Uiso   1.00
O824   O     0.88153   0.82883   0.68003   0.00000  Uiso   1.00
O825   O     0.88152   0.82885   0.81217   0.00000  Uiso   1.00
O826   O     0.78515   0.83781   0.68782   0.00000  Uiso   1.00
Zn827  Zn    0.76898   0.83933   0.75521   0.00000  Uiso   1.00
Zn828  Zn    0.89769   0.82734   0.74479   0.00000  Uiso   1.00
loop_
_geom_bond_atom_site_label_1
_geom_bond_atom_site_label_2
_geom_bond_distance
_geom_bond_site_symmetry_2
_ccdc_geom_bond_type
Br1    C13     1.935   .     S
Br2    C14     1.935   .     S
Br3    C24     1.933   .     S
Br4    C25     1.933   .     S
Br5    C302    1.950   1_545 S
Br6    C165    1.950   .     S
Br7    N127    1.875   1_455 S
Br8    N82     1.875   .     S
C9     O37     1.284   .     A
C9     C26     1.405   .     S
C9     O39     1.293   .     A
C10    C12     1.385   .     A
C10    C21     1.393   .     A
C10    F32     1.359   .     S
C11    C13     1.393   .     A
C11    C29     1.421   .     S
C11    C30     1.385   .     A
C12    C28     1.421   .     S
C12    C14     1.393   .     A
C13    C15     1.401   .     A
C14    C16     1.401   .     A
C15    C17     1.423   .     A
C15    C22     1.408   .     A
C16    C23     1.408   .     A
C16    C18     1.423   .     A
C17    C19     1.424   .     A
C17    C432    1.403   1_554 S
C18    C21     1.424   .     A
C18    C431    1.403   .     S
C19    C25     1.411   .     A
C19    C30     1.393   .     A
C20    C27     1.405   .     S
C20    O38     1.284   .     A
C20    O40     1.293   .     A
C21    C24     1.411   .     A
C22    F33     1.357   .     S
C22    C438    1.386   1_554 S
C23    F34     1.357   .     S
C23    C439    1.386   .     S
C24    C436    1.386   .     S
C25    C437    1.386   1_554 S
C26    Br143   1.950   .     S
C26    C165    1.354   .     S
C27    C302    1.354   1_545 S
C27    Br282   1.950   1_545 S
C28    O43     1.290   .     A
C28    O41     1.291   .     A
C29    O42     1.291   .     A
C29    O44     1.290   .     A
C30    F31     1.359   .     S
N35    Zn46    2.032   .     S
N35    Br53    1.875   .     S
N35    N82     1.290   .     S
N36    Zn45    2.032   .     S
N36    N127    1.290   1_455 S
N36    Br100   1.875   1_455 S
O37    Zn45    1.998   .     S
O38    Zn46    1.998   .     S
O39    Zn46    2.001   .     S
O40    Zn45    2.001   .     S
O41    Zn45    1.994   .     S
O42    Zn46    1.994   .     S
O43    Zn46    2.020   .     S
O44    Zn45    2.020   .     S
Br47   C59     1.935   .     S
Br48   C60     1.935   .     S
Br49   C70     1.933   .     S
Br50   C71     1.933   .     S
Br51   C348    1.950   1_545 S
Br52   C211    1.950   .     S
Br54   N128    1.875   .     S
C55    O83     1.284   .     A
C55    C72     1.405   .     S
C55    O85     1.293   .     A
C56    C58     1.385   .     A
C56    C67     1.393   .     A
C56    F78     1.359   .     S
C57    C59     1.393   .     A
C57    C75     1.421   .     S
C57    C76     1.385   .     A
C58    C74     1.421   .     S
C58    C60     1.393   .     A
C59    C61     1.401   .     A
C60    C62     1.401   .     A
C61    C63     1.423   .     A
C61    C68     1.408   .     A
C62    C69     1.408   .     A
C62    C64     1.423   .     A
C63    C65     1.424   .     A
C63    C478    1.403   1_554 S
C64    C67     1.424   .     A
C64    C477    1.403   .     S
C65    C71     1.411   .     A
C65    C76     1.393   .     A
C66    C73     1.405   .     S
C66    O84     1.284   .     A
C66    O86     1.293   .     A
C67    C70     1.411   .     A
C68    F79     1.357   .     S
C68    C484    1.386   1_554 S
C69    F80     1.357   .     S
C69    C485    1.386   .     S
C70    C482    1.386   .     S
C71    C483    1.386   1_554 S
C72    Br189   1.950   .     S
C72    C211    1.354   .     S
C73    C348    1.354   1_545 S
C73    Br328   1.950   1_545 S
C74    O89     1.290   .     A
C74    O87     1.291   .     A
C75    O88     1.291   .     A
C75    O90     1.290   .     A
C76    F77     1.359   .     S
N81    Zn92    2.032   .     S
N81    Br99    1.875   .     S
N81    N128    1.290   .     S
N82    Zn91    2.032   .     S
O83    Zn91    1.998   .     S
O84    Zn92    1.998   .     S
O85    Zn92    2.001   .     S
O86    Zn91    2.001   .     S
O87    Zn91    1.994   .     S
O88    Zn92    1.994   .     S
O89    Zn92    2.020   .     S
O90    Zn91    2.020   .     S
Br93   C105    1.935   .     S
Br94   C106    1.935   .     S
Br95   C116    1.933   .     S
Br96   C117    1.933   .     S
Br97   C394    1.950   1_545 S
Br98   C257    1.950   .     S
Br100  N36     1.875   1_655 S
C101   O129    1.284   .     A
C101   C118    1.405   .     S
C101   O131    1.293   .     A
C102   C104    1.385   .     A
C102   C113    1.393   .     A
C102   F124    1.359   .     S
C103   C105    1.393   .     A
C103   C121    1.421   .     S
C103   C122    1.385   .     A
C104   C120    1.421   .     S
C104   C106    1.393   .     A
C105   C107    1.401   .     A
C106   C108    1.401   .     A
C107   C109    1.423   .     A
C107   C114    1.408   .     A
C108   C115    1.408   .     A
C108   C110    1.423   .     A
C109   C111    1.424   .     A
C109   C524    1.403   1_554 S
C110   C113    1.424   .     A
C110   C523    1.403   .     S
C111   C117    1.411   .     A
C111   C122    1.393   .     A
C112   C119    1.405   .     S
C112   O130    1.284   .     A
C112   O132    1.293   .     A
C113   C116    1.411   .     A
C114   F125    1.357   .     S
C114   C530    1.386   1_554 S
C115   F126    1.357   .     S
C115   C531    1.386   .     S
C116   C528    1.386   .     S
C117   C529    1.386   1_554 S
C118   Br235   1.950   .     S
C118   C257    1.354   .     S
C119   C394    1.354   1_545 S
C119   Br374   1.950   1_545 S
C120   O135    1.290   .     A
C120   O133    1.291   .     A
C121   O134    1.291   .     A
C121   O136    1.290   .     A
C122   F123    1.359   .     S
N127   Zn138   2.032   .     S
N127   Br7     1.875   1_655 S
N127   N36     1.290   1_655 S
N128   Zn137   2.032   .     S
O129   Zn137   1.998   .     S
O130   Zn138   1.998   .     S
O131   Zn138   2.001   .     S
O132   Zn137   2.001   .     S
O133   Zn137   1.994   .     S
O134   Zn138   1.994   .     S
O135   Zn138   2.020   .     S
O136   Zn137   2.020   .     S
Br139  C151    1.935   .     S
Br140  C152    1.935   .     S
Br141  C162    1.933   .     S
Br142  C163    1.933   .     S
Br144  C303    1.950   .     S
Br145  N265    1.875   1_455 S
Br146  N220    1.875   .     S
C147   O175    1.284   .     A
C147   C164    1.405   .     S
C147   O177    1.293   .     A
C148   C150    1.385   .     A
C148   C159    1.393   .     A
C148   F170    1.359   .     S
C149   C151    1.393   .     A
C149   C167    1.421   .     S
C149   C168    1.385   .     A
C150   C166    1.421   .     S
C150   C152    1.393   .     A
C151   C153    1.401   .     A
C152   C154    1.401   .     A
C153   C155    1.423   .     A
C153   C160    1.408   .     A
C154   C161    1.408   .     A
C154   C156    1.423   .     A
C155   C157    1.424   .     A
C155   C570    1.403   1_554 S
C156   C159    1.424   .     A
C156   C569    1.403   .     S
C157   C163    1.411   .     A
C157   C168    1.393   .     A
C158   C165    1.405   .     S
C158   O176    1.284   .     A
C158   O178    1.293   .     A
C159   C162    1.411   .     A
C160   F171    1.357   .     S
C160   C576    1.386   1_554 S
C161   F172    1.357   .     S
C161   C577    1.386   .     S
C162   C574    1.386   .     S
C163   C575    1.386   1_554 S
C164   Br281   1.950   .     S
C164   C303    1.354   .     S
C166   O181    1.290   .     A
C166   O179    1.291   .     A
C167   O180    1.291   .     A
C167   O182    1.290   .     A
C168   F169    1.359   .     S
N173   Zn184   2.032   .     S
N173   Br191   1.875   .     S
N173   N220    1.290   .     S
N174   Zn183   2.032   .     S
N174   N265    1.290   1_455 S
N174   Br238   1.875   1_455 S
O175   Zn183   1.998   .     S
O176   Zn184   1.998   .     S
O177   Zn184   2.001   .     S
O178   Zn183   2.001   .     S
O179   Zn183   1.994   .     S
O180   Zn184   1.994   .     S
O181   Zn184   2.020   .     S
O182   Zn183   2.020   .     S
Br185  C197    1.935   .     S
Br186  C198    1.935   .     S
Br187  C208    1.933   .     S
Br188  C209    1.933   .     S
Br190  C349    1.950   .     S
Br192  N266    1.875   .     S
C193   O221    1.284   .     A
C193   C210    1.405   .     S
C193   O223    1.293   .     A
C194   C196    1.385   .     A
C194   C205    1.393   .     A
C194   F216    1.359   .     S
C195   C197    1.393   .     A
C195   C213    1.421   .     S
C195   C214    1.385   .     A
C196   C212    1.421   .     S
C196   C198    1.393   .     A
C197   C199    1.401   .     A
C198   C200    1.401   .     A
C199   C201    1.423   .     A
C199   C206    1.408   .     A
C200   C207    1.408   .     A
C200   C202    1.423   .     A
C201   C203    1.424   .     A
C201   C616    1.403   1_554 S
C202   C205    1.424   .     A
C202   C615    1.403   .     S
C203   C209    1.411   .     A
C203   C214    1.393   .     A
C204   C211    1.405   .     S
C204   O222    1.284   .     A
C204   O224    1.293   .     A
C205   C208    1.411   .     A
C206   F217    1.357   .     S
C206   C622    1.386   1_554 S
C207   F218    1.357   .     S
C207   C623    1.386   .     S
C208   C620    1.386   .     S
C209   C621    1.386   1_554 S
C210   Br327   1.950   .     S
C210   C349    1.354   .     S
C212   O227    1.290   .     A
C212   O225    1.291   .     A
C213   O226    1.291   .     A
C213   O228    1.290   .     A
C214   F215    1.359   .     S
N219   Zn230   2.032   .     S
N219   Br237   1.875   .     S
N219   N266    1.290   .     S
N220   Zn229   2.032   .     S
O221   Zn229   1.998   .     S
O222   Zn230   1.998   .     S
O223   Zn230   2.001   .     S
O224   Zn229   2.001   .     S
O225   Zn229   1.994   .     S
O226   Zn230   1.994   .     S
O227   Zn230   2.020   .     S
O228   Zn229   2.020   .     S
Br231  C243    1.935   .     S
Br232  C244    1.935   .     S
Br233  C254    1.933   .     S
Br234  C255    1.933   .     S
Br236  C395    1.950   .     S
Br238  N174    1.875   1_655 S
C239   O267    1.284   .     A
C239   C256    1.405   .     S
C239   O269    1.293   .     A
C240   C242    1.385   .     A
C240   C251    1.393   .     A
C240   F262    1.359   .     S
C241   C243    1.393   .     A
C241   C259    1.421   .     S
C241   C260    1.385   .     A
C242   C258    1.421   .     S
C242   C244    1.393   .     A
C243   C245    1.401   .     A
C244   C246    1.401   .     A
C245   C247    1.423   .     A
C245   C252    1.408   .     A
C246   C253    1.408   .     A
C246   C248    1.423   .     A
C247   C249    1.424   .     A
C247   C662    1.403   1_554 S
C248   C251    1.424   .     A
C248   C661    1.403   .     S
C249   C255    1.411   .     A
C249   C260    1.393   .     A
C250   C257    1.405   .     S
C250   O268    1.284   .     A
C250   O270    1.293   .     A
C251   C254    1.411   .     A
C252   F263    1.357   .     S
C252   C668    1.386   1_554 S
C253   F264    1.357   .     S
C253   C669    1.386   .     S
C254   C666    1.386   .     S
C255   C667    1.386   1_554 S
C256   Br373   1.950   .     S
C256   C395    1.354   .     S
C258   O273    1.290   .     A
C258   O271    1.291   .     A
C259   O272    1.291   .     A
C259   O274    1.290   .     A
C260   F261    1.359   .     S
N265   Zn276   2.032   .     S
N265   Br145   1.875   1_655 S
N265   N174    1.290   1_655 S
N266   Zn275   2.032   .     S
O267   Zn275   1.998   .     S
O268   Zn276   1.998   .     S
O269   Zn276   2.001   .     S
O270   Zn275   2.001   .     S
O271   Zn275   1.994   .     S
O272   Zn276   1.994   .     S
O273   Zn276   2.020   .     S
O274   Zn275   2.020   .     S
Br277  C289    1.935   .     S
Br278  C290    1.935   .     S
Br279  C300    1.933   .     S
Br280  C301    1.933   .     S
Br282  C27     1.950   1_565 S
Br283  N403    1.875   1_455 S
Br284  N358    1.875   .     S
C285   O313    1.284   .     A
C285   C302    1.405   .     S
C285   O315    1.293   .     A
C286   C288    1.385   .     A
C286   C297    1.393   .     A
C286   F308    1.359   .     S
C287   C289    1.393   .     A
C287   C305    1.421   .     S
C287   C306    1.385   .     A
C288   C304    1.421   .     S
C288   C290    1.393   .     A
C289   C291    1.401   .     A
C290   C292    1.401   .     A
C291   C293    1.423   .     A
C291   C298    1.408   .     A
C292   C299    1.408   .     A
C292   C294    1.423   .     A
C293   C295    1.424   .     A
C293   C708    1.403   1_554 S
C294   C297    1.424   .     A
C294   C707    1.403   .     S
C295   C301    1.411   .     A
C295   C306    1.393   .     A
C296   C303    1.405   .     S
C296   O314    1.284   .     A
C296   O316    1.293   .     A
C297   C300    1.411   .     A
C298   F309    1.357   .     S
C298   C714    1.386   1_554 S
C299   F310    1.357   .     S
C299   C715    1.386   .     S
C300   C712    1.386   .     S
C301   C713    1.386   1_554 S
C302   Br5     1.950   1_565 S
C302   C27     1.354   1_565 S
C304   O319    1.290   .     A
C304   O317    1.291   .     A
C305   O318    1.291   .     A
C305   O320    1.290   .     A
C306   F307    1.359   .     S
N311   Zn322   2.032   .     S
N311   Br329   1.875   .     S
N311   N358    1.290   .     S
N312   Zn321   2.032   .     S
N312   N403    1.290   1_455 S
N312   Br376   1.875   1_455 S
O313   Zn321   1.998   .     S
O314   Zn322   1.998   .     S
O315   Zn322   2.001   .     S
O316   Zn321   2.001   .     S
O317   Zn321   1.994   .     S
O318   Zn322   1.994   .     S
O319   Zn322   2.020   .     S
O320   Zn321   2.020   .     S
Br323  C335    1.935   .     S
Br324  C336    1.935   .     S
Br325  C346    1.933   .     S
Br326  C347    1.933   .     S
Br328  C73     1.950   1_565 S
Br330  N404    1.875   .     S
C331   O359    1.284   .     A
C331   C348    1.405   .     S
C331   O361    1.293   .     A
C332   C334    1.385   .     A
C332   C343    1.393   .     A
C332   F354    1.359   .     S
C333   C335    1.393   .     A
C333   C351    1.421   .     S
C333   C352    1.385   .     A
C334   C350    1.421   .     S
C334   C336    1.393   .     A
C335   C337    1.401   .     A
C336   C338    1.401   .     A
C337   C339    1.423   .     A
C337   C344    1.408   .     A
C338   C345    1.408   .     A
C338   C340    1.423   .     A
C339   C341    1.424   .     A
C339   C754    1.403   1_554 S
C340   C343    1.424   .     A
C340   C753    1.403   .     S
C341   C347    1.411   .     A
C341   C352    1.393   .     A
C342   C349    1.405   .     S
C342   O360    1.284   .     A
C342   O362    1.293   .     A
C343   C346    1.411   .     A
C344   F355    1.357   .     S
C344   C760    1.386   1_554 S
C345   F356    1.357   .     S
C345   C761    1.386   .     S
C346   C758    1.386   .     S
C347   C759    1.386   1_554 S
C348   Br51    1.950   1_565 S
C348   C73     1.354   1_565 S
C350   O365    1.290   .     A
C350   O363    1.291   .     A
C351   O364    1.291   .     A
C351   O366    1.290   .     A
C352   F353    1.359   .     S
N357   Zn368   2.032   .     S
N357   Br375   1.875   .     S
N357   N404    1.290   .     S
N358   Zn367   2.032   .     S
O359   Zn367   1.998   .     S
O360   Zn368   1.998   .     S
O361   Zn368   2.001   .     S
O362   Zn367   2.001   .     S
O363   Zn367   1.994   .     S
O364   Zn368   1.994   .     S
O365   Zn368   2.020   .     S
O366   Zn367   2.020   .     S
Br369  C381    1.935   .     S
Br370  C382    1.935   .     S
Br371  C392    1.933   .     S
Br372  C393    1.933   .     S
Br374  C119    1.950   1_565 S
Br376  N312    1.875   1_655 S
C377   O405    1.284   .     A
C377   C394    1.405   .     S
C377   O407    1.293   .     A
C378   C380    1.385   .     A
C378   C389    1.393   .     A
C378   F400    1.359   .     S
C379   C381    1.393   .     A
C379   C397    1.421   .     S
C379   C398    1.385   .     A
C380   C396    1.421   .     S
C380   C382    1.393   .     A
C381   C383    1.401   .     A
C382   C384    1.401   .     A
C383   C385    1.423   .     A
C383   C390    1.408   .     A
C384   C391    1.408   .     A
C384   C386    1.423   .     A
C385   C387    1.424   .     A
C385   C800    1.403   1_554 S
C386   C389    1.424   .     A
C386   C799    1.403   .     S
C387   C393    1.411   .     A
C387   C398    1.393   .     A
C388   C395    1.405   .     S
C388   O406    1.284   .     A
C388   O408    1.293   .     A
C389   C392    1.411   .     A
C390   F401    1.357   .     S
C390   C806    1.386   1_554 S
C391   F402    1.357   .     S
C391   C807    1.386   .     S
C392   C804    1.386   .     S
C393   C805    1.386   1_554 S
C394   Br97    1.950   1_565 S
C394   C119    1.354   1_565 S
C396   O411    1.290   .     A
C396   O409    1.291   .     A
C397   O410    1.291   .     A
C397   O412    1.290   .     A
C398   F399    1.359   .     S
N403   Zn414   2.032   .     S
N403   Br283   1.875   1_655 S
N403   N312    1.290   1_655 S
N404   Zn413   2.032   .     S
O405   Zn413   1.998   .     S
O406   Zn414   1.998   .     S
O407   Zn414   2.001   .     S
O408   Zn413   2.001   .     S
O409   Zn413   1.994   .     S
O410   Zn414   1.994   .     S
O411   Zn414   2.020   .     S
O412   Zn413   2.020   .     S
Br415  C427    1.935   .     S
Br416  C428    1.935   .     S
Br417  C438    1.933   .     S
Br418  C439    1.933   .     S
Br419  C716    1.950   1_545 S
Br420  C579    1.950   .     S
Br421  N541    1.875   1_455 S
Br422  N496    1.875   .     S
C423   O451    1.284   .     A
C423   C440    1.405   .     S
C423   O453    1.293   .     A
C424   C426    1.385   .     A
C424   C435    1.393   .     A
C424   F446    1.359   .     S
C425   C427    1.393   .     A
C425   C443    1.421   .     S
C425   C444    1.385   .     A
C426   C442    1.421   .     S
C426   C428    1.393   .     A
C427   C429    1.401   .     A
C428   C430    1.401   .     A
C429   C431    1.423   .     A
C429   C436    1.408   .     A
C430   C437    1.408   .     A
C430   C432    1.423   .     A
C431   C433    1.424   .     A
C432   C435    1.424   .     A
C432   C17     1.403   1_556 S
C433   C439    1.411   .     A
C433   C444    1.393   .     A
C434   C441    1.405   .     S
C434   O452    1.284   .     A
C434   O454    1.293   .     A
C435   C438    1.411   .     A
C436   F447    1.357   .     S
C437   F448    1.357   .     S
C437   C25     1.386   1_556 S
C438   C22     1.386   1_556 S
C440   Br557   1.950   .     S
C440   C579    1.354   .     S
C441   C716    1.354   1_545 S
C441   Br696   1.950   1_545 S
C442   O457    1.290   .     A
C442   O455    1.291   .     A
C443   O456    1.291   .     A
C443   O458    1.290   .     A
C444   F445    1.359   .     S
N449   Zn460   2.032   .     S
N449   Br467   1.875   .     S
N449   N496    1.290   .     S
N450   Zn459   2.032   .     S
N450   N541    1.290   1_455 S
N450   Br514   1.875   1_455 S
O451   Zn459   1.998   .     S
O452   Zn460   1.998   .     S
O453   Zn460   2.001   .     S
O454   Zn459   2.001   .     S
O455   Zn459   1.994   .     S
O456   Zn460   1.994   .     S
O457   Zn460   2.020   .     S
O458   Zn459   2.020   .     S
Br461  C473    1.935   .     S
Br462  C474    1.935   .     S
Br463  C484    1.933   .     S
Br464  C485    1.933   .     S
Br465  C762    1.950   1_545 S
Br466  C625    1.950   .     S
Br468  N542    1.875   .     S
C469   O497    1.284   .     A
C469   C486    1.405   .     S
C469   O499    1.293   .     A
C470   C472    1.385   .     A
C470   C481    1.393   .     A
C470   F492    1.359   .     S
C471   C473    1.393   .     A
C471   C489    1.421   .     S
C471   C490    1.385   .     A
C472   C488    1.421   .     S
C472   C474    1.393   .     A
C473   C475    1.401   .     A
C474   C476    1.401   .     A
C475   C477    1.423   .     A
C475   C482    1.408   .     A
C476   C483    1.408   .     A
C476   C478    1.423   .     A
C477   C479    1.424   .     A
C478   C481    1.424   .     A
C478   C63     1.403   1_556 S
C479   C485    1.411   .     A
C479   C490    1.393   .     A
C480   C487    1.405   .     S
C480   O498    1.284   .     A
C480   O500    1.293   .     A
C481   C484    1.411   .     A
C482   F493    1.357   .     S
C483   F494    1.357   .     S
C483   C71     1.386   1_556 S
C484   C68     1.386   1_556 S
C486   Br603   1.950   .     S
C486   C625    1.354   .     S
C487   C762    1.354   1_545 S
C487   Br742   1.950   1_545 S
C488   O503    1.290   .     A
C488   O501    1.291   .     A
C489   O502    1.291   .     A
C489   O504    1.290   .     A
C490   F491    1.359   .     S
N495   Zn506   2.032   .     S
N495   Br513   1.875   .     S
N495   N542    1.290   .     S
N496   Zn505   2.032   .     S
O497   Zn505   1.998   .     S
O498   Zn506   1.998   .     S
O499   Zn506   2.001   .     S
O500   Zn505   2.001   .     S
O501   Zn505   1.994   .     S
O502   Zn506   1.994   .     S
O503   Zn506   2.020   .     S
O504   Zn505   2.020   .     S
Br507  C519    1.935   .     S
Br508  C520    1.935   .     S
Br509  C530    1.933   .     S
Br510  C531    1.933   .     S
Br511  C808    1.950   1_545 S
Br512  C671    1.950   .     S
Br514  N450    1.875   1_655 S
C515   O543    1.284   .     A
C515   C532    1.405   .     S
C515   O545    1.293   .     A
C516   C518    1.385   .     A
C516   C527    1.393   .     A
C516   F538    1.359   .     S
C517   C519    1.393   .     A
C517   C535    1.421   .     S
C517   C536    1.385   .     A
C518   C534    1.421   .     S
C518   C520    1.393   .     A
C519   C521    1.401   .     A
C520   C522    1.401   .     A
C521   C523    1.423   .     A
C521   C528    1.408   .     A
C522   C529    1.408   .     A
C522   C524    1.423   .     A
C523   C525    1.424   .     A
C524   C527    1.424   .     A
C524   C109    1.403   1_556 S
C525   C531    1.411   .     A
C525   C536    1.393   .     A
C526   C533    1.405   .     S
C526   O544    1.284   .     A
C526   O546    1.293   .     A
C527   C530    1.411   .     A
C528   F539    1.357   .     S
C529   F540    1.357   .     S
C529   C117    1.386   1_556 S
C530   C114    1.386   1_556 S
C532   Br649   1.950   .     S
C532   C671    1.354   .     S
C533   C808    1.354   1_545 S
C533   Br788   1.950   1_545 S
C534   O549    1.290   .     A
C534   O547    1.291   .     A
C535   O548    1.291   .     A
C535   O550    1.290   .     A
C536   F537    1.359   .     S
N541   Zn552   2.032   .     S
N541   Br421   1.875   1_655 S
N541   N450    1.290   1_655 S
N542   Zn551   2.032   .     S
O543   Zn551   1.998   .     S
O544   Zn552   1.998   .     S
O545   Zn552   2.001   .     S
O546   Zn551   2.001   .     S
O547   Zn551   1.994   .     S
O548   Zn552   1.994   .     S
O549   Zn552   2.020   .     S
O550   Zn551   2.020   .     S
Br553  C565    1.935   .     S
Br554  C566    1.935   .     S
Br555  C576    1.933   .     S
Br556  C577    1.933   .     S
Br558  C717    1.950   .     S
Br559  N679    1.875   1_455 S
Br560  N634    1.875   .     S
C561   O589    1.284   .     A
C561   C578    1.405   .     S
C561   O591    1.293   .     A
C562   C564    1.385   .     A
C562   C573    1.393   .     A
C562   F584    1.359   .     S
C563   C565    1.393   .     A
C563   C581    1.421   .     S
C563   C582    1.385   .     A
C564   C580    1.421   .     S
C564   C566    1.393   .     A
C565   C567    1.401   .     A
C566   C568    1.401   .     A
C567   C569    1.423   .     A
C567   C574    1.408   .     A
C568   C575    1.408   .     A
C568   C570    1.423   .     A
C569   C571    1.424   .     A
C570   C573    1.424   .     A
C570   C155    1.403   1_556 S
C571   C577    1.411   .     A
C571   C582    1.393   .     A
C572   C579    1.405   .     S
C572   O590    1.284   .     A
C572   O592    1.293   .     A
C573   C576    1.411   .     A
C574   F585    1.357   .     S
C575   F586    1.357   .     S
C575   C163    1.386   1_556 S
C576   C160    1.386   1_556 S
C578   Br695   1.950   .     S
C578   C717    1.354   .     S
C580   O595    1.290   .     A
C580   O593    1.291   .     A
C581   O594    1.291   .     A
C581   O596    1.290   .     A
C582   F583    1.359   .     S
N587   Zn598   2.032   .     S
N587   Br605   1.875   .     S
N587   N634    1.290   .     S
N588   Zn597   2.032   .     S
N588   N679    1.290   1_455 S
N588   Br652   1.875   1_455 S
O589   Zn597   1.998   .     S
O590   Zn598   1.998   .     S
O591   Zn598   2.001   .     S
O592   Zn597   2.001   .     S
O593   Zn597   1.994   .     S
O594   Zn598   1.994   .     S
O595   Zn598   2.020   .     S
O596   Zn597   2.020   .     S
Br599  C611    1.935   .     S
Br600  C612    1.935   .     S
Br601  C622    1.933   .     S
Br602  C623    1.933   .     S
Br604  C763    1.950   .     S
Br606  N680    1.875   .     S
C607   O635    1.284   .     A
C607   C624    1.405   .     S
C607   O637    1.293   .     A
C608   C610    1.385   .     A
C608   C619    1.393   .     A
C608   F630    1.359   .     S
C609   C611    1.393   .     A
C609   C627    1.421   .     S
C609   C628    1.385   .     A
C610   C626    1.421   .     S
C610   C612    1.393   .     A
C611   C613    1.401   .     A
C612   C614    1.401   .     A
C613   C615    1.423   .     A
C613   C620    1.408   .     A
C614   C621    1.408   .     A
C614   C616    1.423   .     A
C615   C617    1.424   .     A
C616   C619    1.424   .     A
C616   C201    1.403   1_556 S
C617   C623    1.411   .     A
C617   C628    1.393   .     A
C618   C625    1.405   .     S
C618   O636    1.284   .     A
C618   O638    1.293   .     A
C619   C622    1.411   .     A
C620   F631    1.357   .     S
C621   F632    1.357   .     S
C621   C209    1.386   1_556 S
C622   C206    1.386   1_556 S
C624   Br741   1.950   .     S
C624   C763    1.354   .     S
C626   O641    1.290   .     A
C626   O639    1.291   .     A
C627   O640    1.291   .     A
C627   O642    1.290   .     A
C628   F629    1.359   .     S
N633   Zn644   2.032   .     S
N633   Br651   1.875   .     S
N633   N680    1.290   .     S
N634   Zn643   2.032   .     S
O635   Zn643   1.998   .     S
O636   Zn644   1.998   .     S
O637   Zn644   2.001   .     S
O638   Zn643   2.001   .     S
O639   Zn643   1.994   .     S
O640   Zn644   1.994   .     S
O641   Zn644   2.020   .     S
O642   Zn643   2.020   .     S
Br645  C657    1.935   .     S
Br646  C658    1.935   .     S
Br647  C668    1.933   .     S
Br648  C669    1.933   .     S
Br650  C809    1.950   .     S
Br652  N588    1.875   1_655 S
C653   O681    1.284   .     A
C653   C670    1.405   .     S
C653   O683    1.293   .     A
C654   C656    1.385   .     A
C654   C665    1.393   .     A
C654   F676    1.359   .     S
C655   C657    1.393   .     A
C655   C673    1.421   .     S
C655   C674    1.385   .     A
C656   C672    1.421   .     S
C656   C658    1.393   .     A
C657   C659    1.401   .     A
C658   C660    1.401   .     A
C659   C661    1.423   .     A
C659   C666    1.408   .     A
C660   C667    1.408   .     A
C660   C662    1.423   .     A
C661   C663    1.424   .     A
C662   C665    1.424   .     A
C662   C247    1.403   1_556 S
C663   C669    1.411   .     A
C663   C674    1.393   .     A
C664   C671    1.405   .     S
C664   O682    1.284   .     A
C664   O684    1.293   .     A
C665   C668    1.411   .     A
C666   F677    1.357   .     S
C667   F678    1.357   .     S
C667   C255    1.386   1_556 S
C668   C252    1.386   1_556 S
C670   Br787   1.950   .     S
C670   C809    1.354   .     S
C672   O687    1.290   .     A
C672   O685    1.291   .     A
C673   O686    1.291   .     A
C673   O688    1.290   .     A
C674   F675    1.359   .     S
N679   Zn690   2.032   .     S
N679   Br559   1.875   1_655 S
N679   N588    1.290   1_655 S
N680   Zn689   2.032   .     S
O681   Zn689   1.998   .     S
O682   Zn690   1.998   .     S
O683   Zn690   2.001   .     S
O684   Zn689   2.001   .     S
O685   Zn689   1.994   .     S
O686   Zn690   1.994   .     S
O687   Zn690   2.020   .     S
O688   Zn689   2.020   .     S
Br691  C703    1.935   .     S
Br692  C704    1.935   .     S
Br693  C714    1.933   .     S
Br694  C715    1.933   .     S
Br696  C441    1.950   1_565 S
Br697  N817    1.875   1_455 S
Br698  N772    1.875   .     S
C699   O727    1.284   .     A
C699   C716    1.405   .     S
C699   O729    1.293   .     A
C700   C702    1.385   .     A
C700   C711    1.393   .     A
C700   F722    1.359   .     S
C701   C703    1.393   .     A
C701   C719    1.421   .     S
C701   C720    1.385   .     A
C702   C718    1.421   .     S
C702   C704    1.393   .     A
C703   C705    1.401   .     A
C704   C706    1.401   .     A
C705   C707    1.423   .     A
C705   C712    1.408   .     A
C706   C713    1.408   .     A
C706   C708    1.423   .     A
C707   C709    1.424   .     A
C708   C711    1.424   .     A
C708   C293    1.403   1_556 S
C709   C715    1.411   .     A
C709   C720    1.393   .     A
C710   C717    1.405   .     S
C710   O728    1.284   .     A
C710   O730    1.293   .     A
C711   C714    1.411   .     A
C712   F723    1.357   .     S
C713   F724    1.357   .     S
C713   C301    1.386   1_556 S
C714   C298    1.386   1_556 S
C716   Br419   1.950   1_565 S
C716   C441    1.354   1_565 S
C718   O733    1.290   .     A
C718   O731    1.291   .     A
C719   O732    1.291   .     A
C719   O734    1.290   .     A
C720   F721    1.359   .     S
N725   Zn736   2.032   .     S
N725   Br743   1.875   .     S
N725   N772    1.290   .     S
N726   Zn735   2.032   .     S
N726   N817    1.290   1_455 S
N726   Br790   1.875   1_455 S
O727   Zn735   1.998   .     S
O728   Zn736   1.998   .     S
O729   Zn736   2.001   .     S
O730   Zn735   2.001   .     S
O731   Zn735   1.994   .     S
O732   Zn736   1.994   .     S
O733   Zn736   2.020   .     S
O734   Zn735   2.020   .     S
Br737  C749    1.935   .     S
Br738  C750    1.935   .     S
Br739  C760    1.933   .     S
Br740  C761    1.933   .     S
Br742  C487    1.950   1_565 S
Br744  N818    1.875   .     S
C745   O773    1.284   .     A
C745   C762    1.405   .     S
C745   O775    1.293   .     A
C746   C748    1.385   .     A
C746   C757    1.393   .     A
C746   F768    1.359   .     S
C747   C749    1.393   .     A
C747   C765    1.421   .     S
C747   C766    1.385   .     A
C748   C764    1.421   .     S
C748   C750    1.393   .     A
C749   C751    1.401   .     A
C750   C752    1.401   .     A
C751   C753    1.423   .     A
C751   C758    1.408   .     A
C752   C759    1.408   .     A
C752   C754    1.423   .     A
C753   C755    1.424   .     A
C754   C757    1.424   .     A
C754   C339    1.403   1_556 S
C755   C761    1.411   .     A
C755   C766    1.393   .     A
C756   C763    1.405   .     S
C756   O774    1.284   .     A
C756   O776    1.293   .     A
C757   C760    1.411   .     A
C758   F769    1.357   .     S
C759   F770    1.357   .     S
C759   C347    1.386   1_556 S
C760   C344    1.386   1_556 S
C762   Br465   1.950   1_565 S
C762   C487    1.354   1_565 S
C764   O779    1.290   .     A
C764   O777    1.291   .     A
C765   O778    1.291   .     A
C765   O780    1.290   .     A
C766   F767    1.359   .     S
N771   Zn782   2.032   .     S
N771   Br789   1.875   .     S
N771   N818    1.290   .     S
N772   Zn781   2.032   .     S
O773   Zn781   1.998   .     S
O774   Zn782   1.998   .     S
O775   Zn782   2.001   .     S
O776   Zn781   2.001   .     S
O777   Zn781   1.994   .     S
O778   Zn782   1.994   .     S
O779   Zn782   2.020   .     S
O780   Zn781   2.020   .     S
Br783  C795    1.935   .     S
Br784  C796    1.935   .     S
Br785  C806    1.933   .     S
Br786  C807    1.933   .     S
Br788  C533    1.950   1_565 S
Br790  N726    1.875   1_655 S
C791   O819    1.284   .     A
C791   C808    1.405   .     S
C791   O821    1.293   .     A
C792   C794    1.385   .     A
C792   C803    1.393   .     A
C792   F814    1.359   .     S
C793   C795    1.393   .     A
C793   C811    1.421   .     S
C793   C812    1.385   .     A
C794   C810    1.421   .     S
C794   C796    1.393   .     A
C795   C797    1.401   .     A
C796   C798    1.401   .     A
C797   C799    1.423   .     A
C797   C804    1.408   .     A
C798   C805    1.408   .     A
C798   C800    1.423   .     A
C799   C801    1.424   .     A
C800   C803    1.424   .     A
C800   C385    1.403   1_556 S
C801   C807    1.411   .     A
C801   C812    1.393   .     A
C802   C809    1.405   .     S
C802   O820    1.284   .     A
C802   O822    1.293   .     A
C803   C806    1.411   .     A
C804   F815    1.357   .     S
C805   F816    1.357   .     S
C805   C393    1.386   1_556 S
C806   C390    1.386   1_556 S
C808   Br511   1.950   1_565 S
C808   C533    1.354   1_565 S
C810   O825    1.290   .     A
C810   O823    1.291   .     A
C811   O824    1.291   .     A
C811   O826    1.290   .     A
C812   F813    1.359   .     S
N817   Zn828   2.032   .     S
N817   Br697   1.875   1_655 S
N817   N726    1.290   1_655 S
N818   Zn827   2.032   .     S
O819   Zn827   1.998   .     S
O820   Zn828   1.998   .     S
O821   Zn828   2.001   .     S
O822   Zn827   2.001   .     S
O823   Zn827   1.994   .     S
O824   Zn828   1.994   .     S
O825   Zn828   2.020   .     S
O826   Zn827   2.020   .     S
