data_str_m2_o1_o16_pcu_sym.110
_audit_creation_date              2020-01-03
_audit_creation_method            'Materials Studio'
_symmetry_space_group_name_H-M    'P1'
_symmetry_Int_Tables_number       1
_symmetry_cell_setting            triclinic
loop_
_symmetry_equiv_pos_as_xyz
  x,y,z
_cell_length_a                    28.5276
_cell_length_b                    32.4924
_cell_length_c                    26.7677
_cell_angle_alpha                 89.8548
_cell_angle_beta                  72.3313
_cell_angle_gamma                 89.9857
loop_
_atom_site_label
_atom_site_type_symbol
_atom_site_fract_x
_atom_site_fract_y
_atom_site_fract_z
_atom_site_U_iso_or_equiv
_atom_site_adp_type
_atom_site_occupancy
C1     C     0.16672   0.24598   0.24983   0.00000  Uiso   1.00
C2     C     0.14544   0.16016   0.48931   0.00000  Uiso   1.00
C3     C     0.15566   0.14771   0.43647   0.00000  Uiso   1.00
C4     C     0.18211   0.15586   0.01488   0.00000  Uiso   1.00
C5     C     0.22384   0.13066   0.49135   0.00000  Uiso   1.00
C6     C     0.22981   0.11268   0.44199   0.00000  Uiso   1.00
C7     C     0.19512   0.12006   0.41554   0.00000  Uiso   1.00
C8     C     0.17896   0.17578   0.06309   0.00000  Uiso   1.00
C9     C     0.24860   0.13571   0.07005   0.00000  Uiso   1.00
C10    C     0.12384   0.16146   0.40796   0.00000  Uiso   1.00
C11    C     0.20951   0.31204   0.24911   0.00000  Uiso   1.00
C12    C     0.14029   0.16444   0.35024   0.00000  Uiso   1.00
C13    C     0.20957   0.02128   0.24887   0.00000  Uiso   1.00
C14    C     0.16691   0.04274   0.24905   0.00000  Uiso   1.00
C15    C     0.12430   0.02129   0.24909   0.00000  Uiso   1.00
C16    C     0.12426   0.31205   0.24924   0.00000  Uiso   1.00
C17    C     0.16682   0.29059   0.24940   0.00000  Uiso   1.00
C18    C     0.29907   0.19161   0.28326   0.00000  Uiso   1.00
C19    C     0.01536   0.19157   0.28329   0.00000  Uiso   1.00
C20    C     0.03424   0.14166   0.21681   0.00000  Uiso   1.00
C21    C     0.31795   0.14170   0.21678   0.00000  Uiso   1.00
C22    C     0.16681   0.08735   0.24944   0.00000  Uiso   1.00
C23    C     0.19297   0.16686   0.14981   0.00000  Uiso   1.00
C24    C     0.25765   0.12232   0.01889   0.00000  Uiso   1.00
C25    C     0.20835   0.16106   0.09298   0.00000  Uiso   1.00
C26    C     0.07713   0.17686   0.43534   0.00000  Uiso   1.00
C27    C     0.06308   0.18051   0.48953   0.00000  Uiso   1.00
C28    C     0.09704   0.17272   0.01624   0.00000  Uiso   1.00
Cu29   Cu    0.11978   0.16666   0.25000   0.00000  Uiso   1.00
Cu30   Cu    0.21355   0.16667   0.25000   0.00000  Uiso   1.00
H31    H     0.27239   0.12521   0.09226   0.00000  Uiso   1.00
H32    H     0.24291   0.03729   0.24874   0.00000  Uiso   1.00
H33    H     0.09099   0.03731   0.24913   0.00000  Uiso   1.00
H34    H     0.09093   0.29603   0.24935   0.00000  Uiso   1.00
H35    H     0.27279   0.21162   0.30988   0.00000  Uiso   1.00
H36    H     0.02653   0.21152   0.30992   0.00000  Uiso   1.00
H37    H     0.06050   0.12163   0.19021   0.00000  Uiso   1.00
H38    H     0.30677   0.12172   0.19018   0.00000  Uiso   1.00
H39    H     0.28964   0.10316   0.00272   0.00000  Uiso   1.00
H40    H     0.05150   0.18637   0.41484   0.00000  Uiso   1.00
H41    H     0.08445   0.17479   0.05826   0.00000  Uiso   1.00
H42    H     0.02629   0.19069   0.01074   0.00000  Uiso   1.00
H43    H     0.24281   0.29603   0.24914   0.00000  Uiso   1.00
N44    N     0.04931   0.16666   0.24999   0.00000  Uiso   1.00
N45    N     0.28402   0.16669   0.25000   0.00000  Uiso   1.00
O46    O     0.12708   0.22678   0.25001   0.00000  Uiso   1.00
O47    O     0.20627   0.22679   0.25001   0.00000  Uiso   1.00
O48    O     0.10775   0.16665   0.32549   0.00000  Uiso   1.00
O49    O     0.18694   0.16666   0.32549   0.00000  Uiso   1.00
O50    O     0.12706   0.10654   0.25000   0.00000  Uiso   1.00
O51    O     0.20625   0.10655   0.25000   0.00000  Uiso   1.00
O52    O     0.14640   0.16667   0.17451   0.00000  Uiso   1.00
O53    O     0.22559   0.16668   0.17451   0.00000  Uiso   1.00
Cl54   Cl    0.28025   0.07974   0.41280   0.00000  Uiso   1.00
S55    S     0.15437   0.22675   0.07704   0.00000  Uiso   1.00
O56    O     0.18646   0.25105   0.10157   0.00000  Uiso   1.00
O57    O     0.15461   0.24766   0.02681   0.00000  Uiso   1.00
O58    O     0.09654   0.22757   0.11844   0.00000  Uiso   1.00
H59    H     0.09046   0.20004   0.13485   0.00000  Uiso   1.00
Cl60   Cl    0.19431   0.08559   0.36477   0.00000  Uiso   1.00
C61    C     0.50005   0.24598   0.24983   0.00000  Uiso   1.00
C62    C     0.47878   0.16016   0.48931   0.00000  Uiso   1.00
C63    C     0.48900   0.14771   0.43647   0.00000  Uiso   1.00
C64    C     0.51545   0.15586   0.01488   0.00000  Uiso   1.00
C65    C     0.55717   0.13066   0.49135   0.00000  Uiso   1.00
C66    C     0.56314   0.11268   0.44199   0.00000  Uiso   1.00
C67    C     0.52846   0.12006   0.41554   0.00000  Uiso   1.00
C68    C     0.51229   0.17578   0.06309   0.00000  Uiso   1.00
C69    C     0.58194   0.13571   0.07005   0.00000  Uiso   1.00
C70    C     0.45718   0.16146   0.40796   0.00000  Uiso   1.00
C71    C     0.54284   0.31204   0.24911   0.00000  Uiso   1.00
C72    C     0.47362   0.16444   0.35024   0.00000  Uiso   1.00
C73    C     0.54290   0.02128   0.24887   0.00000  Uiso   1.00
C74    C     0.50025   0.04274   0.24905   0.00000  Uiso   1.00
C75    C     0.45763   0.02129   0.24909   0.00000  Uiso   1.00
C76    C     0.45760   0.31205   0.24924   0.00000  Uiso   1.00
C77    C     0.50016   0.29059   0.24940   0.00000  Uiso   1.00
C78    C     0.63240   0.19161   0.28326   0.00000  Uiso   1.00
C79    C     0.34869   0.19157   0.28329   0.00000  Uiso   1.00
C80    C     0.36757   0.14166   0.21681   0.00000  Uiso   1.00
C81    C     0.65128   0.14170   0.21678   0.00000  Uiso   1.00
C82    C     0.50014   0.08735   0.24944   0.00000  Uiso   1.00
C83    C     0.52631   0.16686   0.14981   0.00000  Uiso   1.00
C84    C     0.59098   0.12232   0.01889   0.00000  Uiso   1.00
C85    C     0.54169   0.16106   0.09298   0.00000  Uiso   1.00
C86    C     0.41046   0.17686   0.43534   0.00000  Uiso   1.00
C87    C     0.39642   0.18051   0.48953   0.00000  Uiso   1.00
C88    C     0.43038   0.17272   0.01624   0.00000  Uiso   1.00
Cu89   Cu    0.45311   0.16666   0.25000   0.00000  Uiso   1.00
Cu90   Cu    0.54689   0.16667   0.25000   0.00000  Uiso   1.00
H91    H     0.60572   0.12521   0.09226   0.00000  Uiso   1.00
H92    H     0.57624   0.03729   0.24874   0.00000  Uiso   1.00
H93    H     0.42432   0.03731   0.24913   0.00000  Uiso   1.00
H94    H     0.42427   0.29603   0.24935   0.00000  Uiso   1.00
H95    H     0.60613   0.21162   0.30988   0.00000  Uiso   1.00
H96    H     0.35986   0.21152   0.30992   0.00000  Uiso   1.00
H97    H     0.39384   0.12163   0.19021   0.00000  Uiso   1.00
H98    H     0.64010   0.12172   0.19018   0.00000  Uiso   1.00
H99    H     0.62297   0.10316   0.00272   0.00000  Uiso   1.00
H100   H     0.38484   0.18637   0.41484   0.00000  Uiso   1.00
H101   H     0.41779   0.17479   0.05826   0.00000  Uiso   1.00
H102   H     0.35963   0.19069   0.01074   0.00000  Uiso   1.00
H103   H     0.57614   0.29603   0.24914   0.00000  Uiso   1.00
N104   N     0.38265   0.16666   0.24999   0.00000  Uiso   1.00
N105   N     0.61735   0.16669   0.25000   0.00000  Uiso   1.00
O106   O     0.46042   0.22678   0.25001   0.00000  Uiso   1.00
O107   O     0.53961   0.22679   0.25001   0.00000  Uiso   1.00
O108   O     0.44108   0.16665   0.32549   0.00000  Uiso   1.00
O109   O     0.52027   0.16666   0.32549   0.00000  Uiso   1.00
O110   O     0.46039   0.10654   0.25000   0.00000  Uiso   1.00
O111   O     0.53958   0.10655   0.25000   0.00000  Uiso   1.00
O112   O     0.47973   0.16667   0.17451   0.00000  Uiso   1.00
O113   O     0.55892   0.16668   0.17451   0.00000  Uiso   1.00
Cl114  Cl    0.61358   0.07974   0.41280   0.00000  Uiso   1.00
S115   S     0.48770   0.22675   0.07704   0.00000  Uiso   1.00
O116   O     0.51979   0.25105   0.10157   0.00000  Uiso   1.00
O117   O     0.48795   0.24766   0.02681   0.00000  Uiso   1.00
O118   O     0.42987   0.22757   0.11844   0.00000  Uiso   1.00
H119   H     0.42379   0.20004   0.13485   0.00000  Uiso   1.00
Cl120  Cl    0.52765   0.08559   0.36477   0.00000  Uiso   1.00
C121   C     0.83339   0.24598   0.24983   0.00000  Uiso   1.00
C122   C     0.81211   0.16016   0.48931   0.00000  Uiso   1.00
C123   C     0.82233   0.14771   0.43647   0.00000  Uiso   1.00
C124   C     0.84878   0.15586   0.01488   0.00000  Uiso   1.00
C125   C     0.89050   0.13066   0.49135   0.00000  Uiso   1.00
C126   C     0.89648   0.11268   0.44199   0.00000  Uiso   1.00
C127   C     0.86179   0.12006   0.41554   0.00000  Uiso   1.00
C128   C     0.84563   0.17578   0.06309   0.00000  Uiso   1.00
C129   C     0.91527   0.13571   0.07005   0.00000  Uiso   1.00
C130   C     0.79051   0.16146   0.40796   0.00000  Uiso   1.00
C131   C     0.87617   0.31204   0.24911   0.00000  Uiso   1.00
C132   C     0.80695   0.16444   0.35024   0.00000  Uiso   1.00
C133   C     0.87623   0.02128   0.24887   0.00000  Uiso   1.00
C134   C     0.83358   0.04274   0.24905   0.00000  Uiso   1.00
C135   C     0.79097   0.02129   0.24909   0.00000  Uiso   1.00
C136   C     0.79093   0.31205   0.24924   0.00000  Uiso   1.00
C137   C     0.83349   0.29059   0.24940   0.00000  Uiso   1.00
C138   C     0.96573   0.19161   0.28326   0.00000  Uiso   1.00
C139   C     0.68203   0.19157   0.28329   0.00000  Uiso   1.00
C140   C     0.70090   0.14166   0.21681   0.00000  Uiso   1.00
C141   C     0.98461   0.14170   0.21678   0.00000  Uiso   1.00
C142   C     0.83347   0.08735   0.24944   0.00000  Uiso   1.00
C143   C     0.85964   0.16686   0.14981   0.00000  Uiso   1.00
C144   C     0.92432   0.12232   0.01889   0.00000  Uiso   1.00
C145   C     0.87502   0.16106   0.09298   0.00000  Uiso   1.00
C146   C     0.74380   0.17686   0.43534   0.00000  Uiso   1.00
C147   C     0.72975   0.18051   0.48953   0.00000  Uiso   1.00
C148   C     0.76371   0.17272   0.01624   0.00000  Uiso   1.00
Cu149  Cu    0.78645   0.16666   0.25000   0.00000  Uiso   1.00
Cu150  Cu    0.88022   0.16667   0.25000   0.00000  Uiso   1.00
H151   H     0.93906   0.12521   0.09226   0.00000  Uiso   1.00
H152   H     0.90957   0.03729   0.24874   0.00000  Uiso   1.00
H153   H     0.75765   0.03731   0.24913   0.00000  Uiso   1.00
H154   H     0.75760   0.29603   0.24935   0.00000  Uiso   1.00
H155   H     0.93946   0.21162   0.30988   0.00000  Uiso   1.00
H156   H     0.69319   0.21152   0.30992   0.00000  Uiso   1.00
H157   H     0.72717   0.12163   0.19021   0.00000  Uiso   1.00
H158   H     0.97344   0.12172   0.19018   0.00000  Uiso   1.00
H159   H     0.95630   0.10316   0.00272   0.00000  Uiso   1.00
H160   H     0.71817   0.18637   0.41484   0.00000  Uiso   1.00
H161   H     0.75112   0.17479   0.05826   0.00000  Uiso   1.00
H162   H     0.69296   0.19069   0.01074   0.00000  Uiso   1.00
H163   H     0.90947   0.29603   0.24914   0.00000  Uiso   1.00
N164   N     0.71598   0.16666   0.24999   0.00000  Uiso   1.00
N165   N     0.95069   0.16669   0.25000   0.00000  Uiso   1.00
O166   O     0.79375   0.22678   0.25001   0.00000  Uiso   1.00
O167   O     0.87294   0.22679   0.25001   0.00000  Uiso   1.00
O168   O     0.77441   0.16665   0.32549   0.00000  Uiso   1.00
O169   O     0.85360   0.16666   0.32549   0.00000  Uiso   1.00
O170   O     0.79373   0.10654   0.25000   0.00000  Uiso   1.00
O171   O     0.87292   0.10655   0.25000   0.00000  Uiso   1.00
O172   O     0.81306   0.16667   0.17451   0.00000  Uiso   1.00
O173   O     0.89225   0.16668   0.17451   0.00000  Uiso   1.00
Cl174  Cl    0.94691   0.07974   0.41280   0.00000  Uiso   1.00
S175   S     0.82103   0.22675   0.07704   0.00000  Uiso   1.00
O176   O     0.85312   0.25105   0.10157   0.00000  Uiso   1.00
O177   O     0.82128   0.24766   0.02681   0.00000  Uiso   1.00
O178   O     0.76321   0.22757   0.11844   0.00000  Uiso   1.00
H179   H     0.75712   0.20004   0.13485   0.00000  Uiso   1.00
Cl180  Cl    0.86098   0.08559   0.36477   0.00000  Uiso   1.00
C181   C     0.16672   0.57932   0.24983   0.00000  Uiso   1.00
C182   C     0.14544   0.49349   0.48931   0.00000  Uiso   1.00
C183   C     0.15566   0.48104   0.43647   0.00000  Uiso   1.00
C184   C     0.18211   0.48920   0.01488   0.00000  Uiso   1.00
C185   C     0.22384   0.46400   0.49135   0.00000  Uiso   1.00
C186   C     0.22981   0.44602   0.44199   0.00000  Uiso   1.00
C187   C     0.19512   0.45339   0.41554   0.00000  Uiso   1.00
C188   C     0.17896   0.50912   0.06309   0.00000  Uiso   1.00
C189   C     0.24860   0.46905   0.07005   0.00000  Uiso   1.00
C190   C     0.12384   0.49479   0.40796   0.00000  Uiso   1.00
C191   C     0.20951   0.64538   0.24911   0.00000  Uiso   1.00
C192   C     0.14029   0.49778   0.35024   0.00000  Uiso   1.00
C193   C     0.20957   0.35461   0.24887   0.00000  Uiso   1.00
C194   C     0.16691   0.37607   0.24905   0.00000  Uiso   1.00
C195   C     0.12430   0.35462   0.24909   0.00000  Uiso   1.00
C196   C     0.12426   0.64538   0.24924   0.00000  Uiso   1.00
C197   C     0.16682   0.62393   0.24940   0.00000  Uiso   1.00
C198   C     0.29907   0.52494   0.28326   0.00000  Uiso   1.00
C199   C     0.01536   0.52490   0.28329   0.00000  Uiso   1.00
C200   C     0.03424   0.47499   0.21681   0.00000  Uiso   1.00
C201   C     0.31795   0.47503   0.21678   0.00000  Uiso   1.00
C202   C     0.16681   0.42068   0.24944   0.00000  Uiso   1.00
C203   C     0.19297   0.50019   0.14981   0.00000  Uiso   1.00
C204   C     0.25765   0.45566   0.01889   0.00000  Uiso   1.00
C205   C     0.20835   0.49439   0.09298   0.00000  Uiso   1.00
C206   C     0.07713   0.51020   0.43534   0.00000  Uiso   1.00
C207   C     0.06308   0.51384   0.48953   0.00000  Uiso   1.00
C208   C     0.09704   0.50605   0.01624   0.00000  Uiso   1.00
Cu209  Cu    0.11978   0.49999   0.25000   0.00000  Uiso   1.00
Cu210  Cu    0.21355   0.50001   0.25000   0.00000  Uiso   1.00
H211   H     0.27239   0.45854   0.09226   0.00000  Uiso   1.00
H212   H     0.24291   0.37062   0.24874   0.00000  Uiso   1.00
H213   H     0.09099   0.37064   0.24913   0.00000  Uiso   1.00
H214   H     0.09093   0.62936   0.24935   0.00000  Uiso   1.00
H215   H     0.27279   0.54495   0.30988   0.00000  Uiso   1.00
H216   H     0.02653   0.54485   0.30992   0.00000  Uiso   1.00
H217   H     0.06050   0.45496   0.19021   0.00000  Uiso   1.00
H218   H     0.30677   0.45506   0.19018   0.00000  Uiso   1.00
H219   H     0.28964   0.43649   0.00272   0.00000  Uiso   1.00
H220   H     0.05150   0.51971   0.41484   0.00000  Uiso   1.00
H221   H     0.08445   0.50812   0.05826   0.00000  Uiso   1.00
H222   H     0.02629   0.52402   0.01074   0.00000  Uiso   1.00
H223   H     0.24281   0.62936   0.24914   0.00000  Uiso   1.00
N224   N     0.04931   0.49999   0.24999   0.00000  Uiso   1.00
N225   N     0.28402   0.50002   0.25000   0.00000  Uiso   1.00
O226   O     0.12708   0.56011   0.25001   0.00000  Uiso   1.00
O227   O     0.20627   0.56012   0.25001   0.00000  Uiso   1.00
O228   O     0.10775   0.49998   0.32549   0.00000  Uiso   1.00
O229   O     0.18694   0.49999   0.32549   0.00000  Uiso   1.00
O230   O     0.12706   0.43988   0.25000   0.00000  Uiso   1.00
O231   O     0.20625   0.43989   0.25000   0.00000  Uiso   1.00
O232   O     0.14640   0.50001   0.17451   0.00000  Uiso   1.00
O233   O     0.22559   0.50002   0.17451   0.00000  Uiso   1.00
Cl234  Cl    0.28025   0.41307   0.41280   0.00000  Uiso   1.00
S235   S     0.15437   0.56008   0.07704   0.00000  Uiso   1.00
O236   O     0.18646   0.58439   0.10157   0.00000  Uiso   1.00
O237   O     0.15461   0.58100   0.02681   0.00000  Uiso   1.00
O238   O     0.09654   0.56090   0.11844   0.00000  Uiso   1.00
H239   H     0.09046   0.53337   0.13485   0.00000  Uiso   1.00
Cl240  Cl    0.19431   0.41892   0.36477   0.00000  Uiso   1.00
C241   C     0.50005   0.57932   0.24983   0.00000  Uiso   1.00
C242   C     0.47878   0.49349   0.48931   0.00000  Uiso   1.00
C243   C     0.48900   0.48104   0.43647   0.00000  Uiso   1.00
C244   C     0.51545   0.48920   0.01488   0.00000  Uiso   1.00
C245   C     0.55717   0.46400   0.49135   0.00000  Uiso   1.00
C246   C     0.56314   0.44602   0.44199   0.00000  Uiso   1.00
C247   C     0.52846   0.45339   0.41554   0.00000  Uiso   1.00
C248   C     0.51229   0.50912   0.06309   0.00000  Uiso   1.00
C249   C     0.58194   0.46905   0.07005   0.00000  Uiso   1.00
C250   C     0.45718   0.49479   0.40796   0.00000  Uiso   1.00
C251   C     0.54284   0.64538   0.24911   0.00000  Uiso   1.00
C252   C     0.47362   0.49778   0.35024   0.00000  Uiso   1.00
C253   C     0.54290   0.35461   0.24887   0.00000  Uiso   1.00
C254   C     0.50025   0.37607   0.24905   0.00000  Uiso   1.00
C255   C     0.45763   0.35462   0.24909   0.00000  Uiso   1.00
C256   C     0.45760   0.64538   0.24924   0.00000  Uiso   1.00
C257   C     0.50016   0.62393   0.24940   0.00000  Uiso   1.00
C258   C     0.63240   0.52494   0.28326   0.00000  Uiso   1.00
C259   C     0.34869   0.52490   0.28329   0.00000  Uiso   1.00
C260   C     0.36757   0.47499   0.21681   0.00000  Uiso   1.00
C261   C     0.65128   0.47503   0.21678   0.00000  Uiso   1.00
C262   C     0.50014   0.42068   0.24944   0.00000  Uiso   1.00
C263   C     0.52631   0.50019   0.14981   0.00000  Uiso   1.00
C264   C     0.59098   0.45566   0.01889   0.00000  Uiso   1.00
C265   C     0.54169   0.49439   0.09298   0.00000  Uiso   1.00
C266   C     0.41046   0.51020   0.43534   0.00000  Uiso   1.00
C267   C     0.39642   0.51384   0.48953   0.00000  Uiso   1.00
C268   C     0.43038   0.50605   0.01624   0.00000  Uiso   1.00
Cu269  Cu    0.45311   0.49999   0.25000   0.00000  Uiso   1.00
Cu270  Cu    0.54689   0.50001   0.25000   0.00000  Uiso   1.00
H271   H     0.60572   0.45854   0.09226   0.00000  Uiso   1.00
H272   H     0.57624   0.37062   0.24874   0.00000  Uiso   1.00
H273   H     0.42432   0.37064   0.24913   0.00000  Uiso   1.00
H274   H     0.42427   0.62936   0.24935   0.00000  Uiso   1.00
H275   H     0.60613   0.54495   0.30988   0.00000  Uiso   1.00
H276   H     0.35986   0.54485   0.30992   0.00000  Uiso   1.00
H277   H     0.39384   0.45496   0.19021   0.00000  Uiso   1.00
H278   H     0.64010   0.45506   0.19018   0.00000  Uiso   1.00
H279   H     0.62297   0.43649   0.00272   0.00000  Uiso   1.00
H280   H     0.38484   0.51971   0.41484   0.00000  Uiso   1.00
H281   H     0.41779   0.50812   0.05826   0.00000  Uiso   1.00
H282   H     0.35963   0.52402   0.01074   0.00000  Uiso   1.00
H283   H     0.57614   0.62936   0.24914   0.00000  Uiso   1.00
N284   N     0.38265   0.49999   0.24999   0.00000  Uiso   1.00
N285   N     0.61735   0.50002   0.25000   0.00000  Uiso   1.00
O286   O     0.46042   0.56011   0.25001   0.00000  Uiso   1.00
O287   O     0.53961   0.56012   0.25001   0.00000  Uiso   1.00
O288   O     0.44108   0.49998   0.32549   0.00000  Uiso   1.00
O289   O     0.52027   0.49999   0.32549   0.00000  Uiso   1.00
O290   O     0.46039   0.43988   0.25000   0.00000  Uiso   1.00
O291   O     0.53958   0.43989   0.25000   0.00000  Uiso   1.00
O292   O     0.47973   0.50001   0.17451   0.00000  Uiso   1.00
O293   O     0.55892   0.50002   0.17451   0.00000  Uiso   1.00
Cl294  Cl    0.61358   0.41307   0.41280   0.00000  Uiso   1.00
S295   S     0.48770   0.56008   0.07704   0.00000  Uiso   1.00
O296   O     0.51979   0.58439   0.10157   0.00000  Uiso   1.00
O297   O     0.48795   0.58100   0.02681   0.00000  Uiso   1.00
O298   O     0.42987   0.56090   0.11844   0.00000  Uiso   1.00
H299   H     0.42379   0.53337   0.13485   0.00000  Uiso   1.00
Cl300  Cl    0.52765   0.41892   0.36477   0.00000  Uiso   1.00
C301   C     0.83339   0.57932   0.24983   0.00000  Uiso   1.00
C302   C     0.81211   0.49349   0.48931   0.00000  Uiso   1.00
C303   C     0.82233   0.48104   0.43647   0.00000  Uiso   1.00
C304   C     0.84878   0.48920   0.01488   0.00000  Uiso   1.00
C305   C     0.89050   0.46400   0.49135   0.00000  Uiso   1.00
C306   C     0.89648   0.44602   0.44199   0.00000  Uiso   1.00
C307   C     0.86179   0.45339   0.41554   0.00000  Uiso   1.00
C308   C     0.84563   0.50912   0.06309   0.00000  Uiso   1.00
C309   C     0.91527   0.46905   0.07005   0.00000  Uiso   1.00
C310   C     0.79051   0.49479   0.40796   0.00000  Uiso   1.00
C311   C     0.87617   0.64538   0.24911   0.00000  Uiso   1.00
C312   C     0.80695   0.49778   0.35024   0.00000  Uiso   1.00
C313   C     0.87623   0.35461   0.24887   0.00000  Uiso   1.00
C314   C     0.83358   0.37607   0.24905   0.00000  Uiso   1.00
C315   C     0.79097   0.35462   0.24909   0.00000  Uiso   1.00
C316   C     0.79093   0.64538   0.24924   0.00000  Uiso   1.00
C317   C     0.83349   0.62393   0.24940   0.00000  Uiso   1.00
C318   C     0.96573   0.52494   0.28326   0.00000  Uiso   1.00
C319   C     0.68203   0.52490   0.28329   0.00000  Uiso   1.00
C320   C     0.70090   0.47499   0.21681   0.00000  Uiso   1.00
C321   C     0.98461   0.47503   0.21678   0.00000  Uiso   1.00
C322   C     0.83347   0.42068   0.24944   0.00000  Uiso   1.00
C323   C     0.85964   0.50019   0.14981   0.00000  Uiso   1.00
C324   C     0.92432   0.45566   0.01889   0.00000  Uiso   1.00
C325   C     0.87502   0.49439   0.09298   0.00000  Uiso   1.00
C326   C     0.74380   0.51020   0.43534   0.00000  Uiso   1.00
C327   C     0.72975   0.51384   0.48953   0.00000  Uiso   1.00
C328   C     0.76371   0.50605   0.01624   0.00000  Uiso   1.00
Cu329  Cu    0.78645   0.49999   0.25000   0.00000  Uiso   1.00
Cu330  Cu    0.88022   0.50001   0.25000   0.00000  Uiso   1.00
H331   H     0.93906   0.45854   0.09226   0.00000  Uiso   1.00
H332   H     0.90957   0.37062   0.24874   0.00000  Uiso   1.00
H333   H     0.75765   0.37064   0.24913   0.00000  Uiso   1.00
H334   H     0.75760   0.62936   0.24935   0.00000  Uiso   1.00
H335   H     0.93946   0.54495   0.30988   0.00000  Uiso   1.00
H336   H     0.69319   0.54485   0.30992   0.00000  Uiso   1.00
H337   H     0.72717   0.45496   0.19021   0.00000  Uiso   1.00
H338   H     0.97344   0.45506   0.19018   0.00000  Uiso   1.00
H339   H     0.95630   0.43649   0.00272   0.00000  Uiso   1.00
H340   H     0.71817   0.51971   0.41484   0.00000  Uiso   1.00
H341   H     0.75112   0.50812   0.05826   0.00000  Uiso   1.00
H342   H     0.69296   0.52402   0.01074   0.00000  Uiso   1.00
H343   H     0.90947   0.62936   0.24914   0.00000  Uiso   1.00
N344   N     0.71598   0.49999   0.24999   0.00000  Uiso   1.00
N345   N     0.95069   0.50002   0.25000   0.00000  Uiso   1.00
O346   O     0.79375   0.56011   0.25001   0.00000  Uiso   1.00
O347   O     0.87294   0.56012   0.25001   0.00000  Uiso   1.00
O348   O     0.77441   0.49998   0.32549   0.00000  Uiso   1.00
O349   O     0.85360   0.49999   0.32549   0.00000  Uiso   1.00
O350   O     0.79373   0.43988   0.25000   0.00000  Uiso   1.00
O351   O     0.87292   0.43989   0.25000   0.00000  Uiso   1.00
O352   O     0.81306   0.50001   0.17451   0.00000  Uiso   1.00
O353   O     0.89225   0.50002   0.17451   0.00000  Uiso   1.00
Cl354  Cl    0.94691   0.41307   0.41280   0.00000  Uiso   1.00
S355   S     0.82103   0.56008   0.07704   0.00000  Uiso   1.00
O356   O     0.85312   0.58439   0.10157   0.00000  Uiso   1.00
O357   O     0.82128   0.58100   0.02681   0.00000  Uiso   1.00
O358   O     0.76321   0.56090   0.11844   0.00000  Uiso   1.00
H359   H     0.75712   0.53337   0.13485   0.00000  Uiso   1.00
Cl360  Cl    0.86098   0.41892   0.36477   0.00000  Uiso   1.00
C361   C     0.16672   0.91265   0.24983   0.00000  Uiso   1.00
C362   C     0.14544   0.82682   0.48931   0.00000  Uiso   1.00
C363   C     0.15566   0.81437   0.43647   0.00000  Uiso   1.00
C364   C     0.18211   0.82253   0.01488   0.00000  Uiso   1.00
C365   C     0.22384   0.79733   0.49135   0.00000  Uiso   1.00
C366   C     0.22981   0.77935   0.44199   0.00000  Uiso   1.00
C367   C     0.19512   0.78672   0.41554   0.00000  Uiso   1.00
C368   C     0.17896   0.84245   0.06309   0.00000  Uiso   1.00
C369   C     0.24860   0.80238   0.07005   0.00000  Uiso   1.00
C370   C     0.12384   0.82813   0.40796   0.00000  Uiso   1.00
C371   C     0.20951   0.97871   0.24911   0.00000  Uiso   1.00
C372   C     0.14029   0.83111   0.35024   0.00000  Uiso   1.00
C373   C     0.20957   0.68794   0.24887   0.00000  Uiso   1.00
C374   C     0.16691   0.70940   0.24905   0.00000  Uiso   1.00
C375   C     0.12430   0.68796   0.24909   0.00000  Uiso   1.00
C376   C     0.12426   0.97871   0.24924   0.00000  Uiso   1.00
C377   C     0.16682   0.95726   0.24940   0.00000  Uiso   1.00
C378   C     0.29907   0.85828   0.28326   0.00000  Uiso   1.00
C379   C     0.01536   0.85823   0.28329   0.00000  Uiso   1.00
C380   C     0.03424   0.80832   0.21681   0.00000  Uiso   1.00
C381   C     0.31795   0.80837   0.21678   0.00000  Uiso   1.00
C382   C     0.16681   0.75402   0.24944   0.00000  Uiso   1.00
C383   C     0.19297   0.83353   0.14981   0.00000  Uiso   1.00
C384   C     0.25765   0.78899   0.01889   0.00000  Uiso   1.00
C385   C     0.20835   0.82773   0.09298   0.00000  Uiso   1.00
C386   C     0.07713   0.84353   0.43534   0.00000  Uiso   1.00
C387   C     0.06308   0.84717   0.48953   0.00000  Uiso   1.00
C388   C     0.09704   0.83938   0.01624   0.00000  Uiso   1.00
Cu389  Cu    0.11978   0.83333   0.25000   0.00000  Uiso   1.00
Cu390  Cu    0.21355   0.83334   0.25000   0.00000  Uiso   1.00
H391   H     0.27239   0.79188   0.09226   0.00000  Uiso   1.00
H392   H     0.24291   0.70396   0.24874   0.00000  Uiso   1.00
H393   H     0.09099   0.70398   0.24913   0.00000  Uiso   1.00
H394   H     0.09093   0.96270   0.24935   0.00000  Uiso   1.00
H395   H     0.27279   0.87829   0.30988   0.00000  Uiso   1.00
H396   H     0.02653   0.87818   0.30992   0.00000  Uiso   1.00
H397   H     0.06050   0.78829   0.19021   0.00000  Uiso   1.00
H398   H     0.30677   0.78839   0.19018   0.00000  Uiso   1.00
H399   H     0.28964   0.76982   0.00272   0.00000  Uiso   1.00
H400   H     0.05150   0.85304   0.41484   0.00000  Uiso   1.00
H401   H     0.08445   0.84146   0.05826   0.00000  Uiso   1.00
H402   H     0.02629   0.85736   0.01074   0.00000  Uiso   1.00
H403   H     0.24281   0.96270   0.24914   0.00000  Uiso   1.00
N404   N     0.04931   0.83332   0.24999   0.00000  Uiso   1.00
N405   N     0.28402   0.83335   0.25000   0.00000  Uiso   1.00
O406   O     0.12708   0.89345   0.25001   0.00000  Uiso   1.00
O407   O     0.20627   0.89346   0.25001   0.00000  Uiso   1.00
O408   O     0.10775   0.83332   0.32549   0.00000  Uiso   1.00
O409   O     0.18694   0.83333   0.32549   0.00000  Uiso   1.00
O410   O     0.12706   0.77321   0.25000   0.00000  Uiso   1.00
O411   O     0.20625   0.77322   0.25000   0.00000  Uiso   1.00
O412   O     0.14640   0.83334   0.17451   0.00000  Uiso   1.00
O413   O     0.22559   0.83335   0.17451   0.00000  Uiso   1.00
Cl414  Cl    0.28025   0.74641   0.41280   0.00000  Uiso   1.00
S415   S     0.15437   0.89341   0.07704   0.00000  Uiso   1.00
O416   O     0.18646   0.91772   0.10157   0.00000  Uiso   1.00
O417   O     0.15461   0.91433   0.02681   0.00000  Uiso   1.00
O418   O     0.09654   0.89423   0.11844   0.00000  Uiso   1.00
H419   H     0.09046   0.86670   0.13485   0.00000  Uiso   1.00
Cl420  Cl    0.19431   0.75226   0.36477   0.00000  Uiso   1.00
C421   C     0.50005   0.91265   0.24983   0.00000  Uiso   1.00
C422   C     0.47878   0.82682   0.48931   0.00000  Uiso   1.00
C423   C     0.48900   0.81437   0.43647   0.00000  Uiso   1.00
C424   C     0.51545   0.82253   0.01488   0.00000  Uiso   1.00
C425   C     0.55717   0.79733   0.49135   0.00000  Uiso   1.00
C426   C     0.56314   0.77935   0.44199   0.00000  Uiso   1.00
C427   C     0.52846   0.78672   0.41554   0.00000  Uiso   1.00
C428   C     0.51229   0.84245   0.06309   0.00000  Uiso   1.00
C429   C     0.58194   0.80238   0.07005   0.00000  Uiso   1.00
C430   C     0.45718   0.82813   0.40796   0.00000  Uiso   1.00
C431   C     0.54284   0.97871   0.24911   0.00000  Uiso   1.00
C432   C     0.47362   0.83111   0.35024   0.00000  Uiso   1.00
C433   C     0.54290   0.68794   0.24887   0.00000  Uiso   1.00
C434   C     0.50025   0.70940   0.24905   0.00000  Uiso   1.00
C435   C     0.45763   0.68796   0.24909   0.00000  Uiso   1.00
C436   C     0.45760   0.97871   0.24924   0.00000  Uiso   1.00
C437   C     0.50016   0.95726   0.24940   0.00000  Uiso   1.00
C438   C     0.63240   0.85828   0.28326   0.00000  Uiso   1.00
C439   C     0.34869   0.85823   0.28329   0.00000  Uiso   1.00
C440   C     0.36757   0.80832   0.21681   0.00000  Uiso   1.00
C441   C     0.65128   0.80837   0.21678   0.00000  Uiso   1.00
C442   C     0.50014   0.75402   0.24944   0.00000  Uiso   1.00
C443   C     0.52631   0.83353   0.14981   0.00000  Uiso   1.00
C444   C     0.59098   0.78899   0.01889   0.00000  Uiso   1.00
C445   C     0.54169   0.82773   0.09298   0.00000  Uiso   1.00
C446   C     0.41046   0.84353   0.43534   0.00000  Uiso   1.00
C447   C     0.39642   0.84717   0.48953   0.00000  Uiso   1.00
C448   C     0.43038   0.83938   0.01624   0.00000  Uiso   1.00
Cu449  Cu    0.45311   0.83333   0.25000   0.00000  Uiso   1.00
Cu450  Cu    0.54689   0.83334   0.25000   0.00000  Uiso   1.00
H451   H     0.60572   0.79188   0.09226   0.00000  Uiso   1.00
H452   H     0.57624   0.70396   0.24874   0.00000  Uiso   1.00
H453   H     0.42432   0.70398   0.24913   0.00000  Uiso   1.00
H454   H     0.42427   0.96270   0.24935   0.00000  Uiso   1.00
H455   H     0.60613   0.87829   0.30988   0.00000  Uiso   1.00
H456   H     0.35986   0.87818   0.30992   0.00000  Uiso   1.00
H457   H     0.39384   0.78829   0.19021   0.00000  Uiso   1.00
H458   H     0.64010   0.78839   0.19018   0.00000  Uiso   1.00
H459   H     0.62297   0.76982   0.00272   0.00000  Uiso   1.00
H460   H     0.38484   0.85304   0.41484   0.00000  Uiso   1.00
H461   H     0.41779   0.84146   0.05826   0.00000  Uiso   1.00
H462   H     0.35963   0.85736   0.01074   0.00000  Uiso   1.00
H463   H     0.57614   0.96270   0.24914   0.00000  Uiso   1.00
N464   N     0.38265   0.83332   0.24999   0.00000  Uiso   1.00
N465   N     0.61735   0.83335   0.25000   0.00000  Uiso   1.00
O466   O     0.46042   0.89345   0.25001   0.00000  Uiso   1.00
O467   O     0.53961   0.89346   0.25001   0.00000  Uiso   1.00
O468   O     0.44108   0.83332   0.32549   0.00000  Uiso   1.00
O469   O     0.52027   0.83333   0.32549   0.00000  Uiso   1.00
O470   O     0.46039   0.77321   0.25000   0.00000  Uiso   1.00
O471   O     0.53958   0.77322   0.25000   0.00000  Uiso   1.00
O472   O     0.47973   0.83334   0.17451   0.00000  Uiso   1.00
O473   O     0.55892   0.83335   0.17451   0.00000  Uiso   1.00
Cl474  Cl    0.61358   0.74641   0.41280   0.00000  Uiso   1.00
S475   S     0.48770   0.89341   0.07704   0.00000  Uiso   1.00
O476   O     0.51979   0.91772   0.10157   0.00000  Uiso   1.00
O477   O     0.48795   0.91433   0.02681   0.00000  Uiso   1.00
O478   O     0.42987   0.89423   0.11844   0.00000  Uiso   1.00
H479   H     0.42379   0.86670   0.13485   0.00000  Uiso   1.00
Cl480  Cl    0.52765   0.75226   0.36477   0.00000  Uiso   1.00
C481   C     0.83339   0.91265   0.24983   0.00000  Uiso   1.00
C482   C     0.81211   0.82682   0.48931   0.00000  Uiso   1.00
C483   C     0.82233   0.81437   0.43647   0.00000  Uiso   1.00
C484   C     0.84878   0.82253   0.01488   0.00000  Uiso   1.00
C485   C     0.89050   0.79733   0.49135   0.00000  Uiso   1.00
C486   C     0.89648   0.77935   0.44199   0.00000  Uiso   1.00
C487   C     0.86179   0.78672   0.41554   0.00000  Uiso   1.00
C488   C     0.84563   0.84245   0.06309   0.00000  Uiso   1.00
C489   C     0.91527   0.80238   0.07005   0.00000  Uiso   1.00
C490   C     0.79051   0.82813   0.40796   0.00000  Uiso   1.00
C491   C     0.87617   0.97871   0.24911   0.00000  Uiso   1.00
C492   C     0.80695   0.83111   0.35024   0.00000  Uiso   1.00
C493   C     0.87623   0.68794   0.24887   0.00000  Uiso   1.00
C494   C     0.83358   0.70940   0.24905   0.00000  Uiso   1.00
C495   C     0.79097   0.68796   0.24909   0.00000  Uiso   1.00
C496   C     0.79093   0.97871   0.24924   0.00000  Uiso   1.00
C497   C     0.83349   0.95726   0.24940   0.00000  Uiso   1.00
C498   C     0.96573   0.85828   0.28326   0.00000  Uiso   1.00
C499   C     0.68203   0.85823   0.28329   0.00000  Uiso   1.00
C500   C     0.70090   0.80832   0.21681   0.00000  Uiso   1.00
C501   C     0.98461   0.80837   0.21678   0.00000  Uiso   1.00
C502   C     0.83347   0.75402   0.24944   0.00000  Uiso   1.00
C503   C     0.85964   0.83353   0.14981   0.00000  Uiso   1.00
C504   C     0.92432   0.78899   0.01889   0.00000  Uiso   1.00
C505   C     0.87502   0.82773   0.09298   0.00000  Uiso   1.00
C506   C     0.74380   0.84353   0.43534   0.00000  Uiso   1.00
C507   C     0.72975   0.84717   0.48953   0.00000  Uiso   1.00
C508   C     0.76371   0.83938   0.01624   0.00000  Uiso   1.00
Cu509  Cu    0.78645   0.83333   0.25000   0.00000  Uiso   1.00
Cu510  Cu    0.88022   0.83334   0.25000   0.00000  Uiso   1.00
H511   H     0.93906   0.79188   0.09226   0.00000  Uiso   1.00
H512   H     0.90957   0.70396   0.24874   0.00000  Uiso   1.00
H513   H     0.75765   0.70398   0.24913   0.00000  Uiso   1.00
H514   H     0.75760   0.96270   0.24935   0.00000  Uiso   1.00
H515   H     0.93946   0.87829   0.30988   0.00000  Uiso   1.00
H516   H     0.69319   0.87818   0.30992   0.00000  Uiso   1.00
H517   H     0.72717   0.78829   0.19021   0.00000  Uiso   1.00
H518   H     0.97344   0.78839   0.19018   0.00000  Uiso   1.00
H519   H     0.95630   0.76982   0.00272   0.00000  Uiso   1.00
H520   H     0.71817   0.85304   0.41484   0.00000  Uiso   1.00
H521   H     0.75112   0.84146   0.05826   0.00000  Uiso   1.00
H522   H     0.69296   0.85736   0.01074   0.00000  Uiso   1.00
H523   H     0.90947   0.96270   0.24914   0.00000  Uiso   1.00
N524   N     0.71598   0.83332   0.24999   0.00000  Uiso   1.00
N525   N     0.95069   0.83335   0.25000   0.00000  Uiso   1.00
O526   O     0.79375   0.89345   0.25001   0.00000  Uiso   1.00
O527   O     0.87294   0.89346   0.25001   0.00000  Uiso   1.00
O528   O     0.77441   0.83332   0.32549   0.00000  Uiso   1.00
O529   O     0.85360   0.83333   0.32549   0.00000  Uiso   1.00
O530   O     0.79373   0.77321   0.25000   0.00000  Uiso   1.00
O531   O     0.87292   0.77322   0.25000   0.00000  Uiso   1.00
O532   O     0.81306   0.83334   0.17451   0.00000  Uiso   1.00
O533   O     0.89225   0.83335   0.17451   0.00000  Uiso   1.00
Cl534  Cl    0.94691   0.74641   0.41280   0.00000  Uiso   1.00
S535   S     0.82103   0.89341   0.07704   0.00000  Uiso   1.00
O536   O     0.85312   0.91772   0.10157   0.00000  Uiso   1.00
O537   O     0.82128   0.91433   0.02681   0.00000  Uiso   1.00
O538   O     0.76321   0.89423   0.11844   0.00000  Uiso   1.00
H539   H     0.75712   0.86670   0.13485   0.00000  Uiso   1.00
Cl540  Cl    0.86098   0.75226   0.36477   0.00000  Uiso   1.00
C541   C     0.16672   0.24598   0.74983   0.00000  Uiso   1.00
C542   C     0.14544   0.16016   0.98931   0.00000  Uiso   1.00
C543   C     0.15566   0.14771   0.93647   0.00000  Uiso   1.00
C544   C     0.18211   0.15586   0.51488   0.00000  Uiso   1.00
C545   C     0.22384   0.13066   0.99135   0.00000  Uiso   1.00
C546   C     0.22981   0.11268   0.94199   0.00000  Uiso   1.00
C547   C     0.19512   0.12006   0.91554   0.00000  Uiso   1.00
C548   C     0.17896   0.17578   0.56309   0.00000  Uiso   1.00
C549   C     0.24860   0.13571   0.57005   0.00000  Uiso   1.00
C550   C     0.12384   0.16146   0.90796   0.00000  Uiso   1.00
C551   C     0.20951   0.31204   0.74911   0.00000  Uiso   1.00
C552   C     0.14029   0.16444   0.85024   0.00000  Uiso   1.00
C553   C     0.20957   0.02128   0.74887   0.00000  Uiso   1.00
C554   C     0.16691   0.04274   0.74905   0.00000  Uiso   1.00
C555   C     0.12430   0.02129   0.74909   0.00000  Uiso   1.00
C556   C     0.12426   0.31205   0.74924   0.00000  Uiso   1.00
C557   C     0.16682   0.29059   0.74940   0.00000  Uiso   1.00
C558   C     0.29907   0.19161   0.78326   0.00000  Uiso   1.00
C559   C     0.01536   0.19157   0.78329   0.00000  Uiso   1.00
C560   C     0.03424   0.14166   0.71681   0.00000  Uiso   1.00
C561   C     0.31795   0.14170   0.71678   0.00000  Uiso   1.00
C562   C     0.16681   0.08735   0.74944   0.00000  Uiso   1.00
C563   C     0.19297   0.16686   0.64981   0.00000  Uiso   1.00
C564   C     0.25765   0.12232   0.51889   0.00000  Uiso   1.00
C565   C     0.20835   0.16106   0.59298   0.00000  Uiso   1.00
C566   C     0.07713   0.17686   0.93534   0.00000  Uiso   1.00
C567   C     0.06308   0.18051   0.98953   0.00000  Uiso   1.00
C568   C     0.09704   0.17272   0.51624   0.00000  Uiso   1.00
Cu569  Cu    0.11978   0.16666   0.75000   0.00000  Uiso   1.00
Cu570  Cu    0.21355   0.16667   0.75000   0.00000  Uiso   1.00
H571   H     0.27239   0.12521   0.59226   0.00000  Uiso   1.00
H572   H     0.24291   0.03729   0.74874   0.00000  Uiso   1.00
H573   H     0.09099   0.03731   0.74913   0.00000  Uiso   1.00
H574   H     0.09093   0.29603   0.74935   0.00000  Uiso   1.00
H575   H     0.27279   0.21162   0.80988   0.00000  Uiso   1.00
H576   H     0.02653   0.21152   0.80992   0.00000  Uiso   1.00
H577   H     0.06050   0.12163   0.69021   0.00000  Uiso   1.00
H578   H     0.30677   0.12172   0.69018   0.00000  Uiso   1.00
H579   H     0.28964   0.10316   0.50272   0.00000  Uiso   1.00
H580   H     0.05150   0.18637   0.91484   0.00000  Uiso   1.00
H581   H     0.08445   0.17479   0.55826   0.00000  Uiso   1.00
H582   H     0.02629   0.19069   0.51074   0.00000  Uiso   1.00
H583   H     0.24281   0.29603   0.74914   0.00000  Uiso   1.00
N584   N     0.04931   0.16666   0.74999   0.00000  Uiso   1.00
N585   N     0.28402   0.16669   0.75000   0.00000  Uiso   1.00
O586   O     0.12708   0.22678   0.75001   0.00000  Uiso   1.00
O587   O     0.20627   0.22679   0.75001   0.00000  Uiso   1.00
O588   O     0.10775   0.16665   0.82549   0.00000  Uiso   1.00
O589   O     0.18694   0.16666   0.82549   0.00000  Uiso   1.00
O590   O     0.12706   0.10654   0.75000   0.00000  Uiso   1.00
O591   O     0.20625   0.10655   0.75000   0.00000  Uiso   1.00
O592   O     0.14640   0.16667   0.67451   0.00000  Uiso   1.00
O593   O     0.22559   0.16668   0.67451   0.00000  Uiso   1.00
Cl594  Cl    0.28025   0.07974   0.91280   0.00000  Uiso   1.00
S595   S     0.15437   0.22675   0.57704   0.00000  Uiso   1.00
O596   O     0.18646   0.25105   0.60157   0.00000  Uiso   1.00
O597   O     0.15461   0.24766   0.52681   0.00000  Uiso   1.00
O598   O     0.09654   0.22757   0.61844   0.00000  Uiso   1.00
H599   H     0.09046   0.20004   0.63485   0.00000  Uiso   1.00
Cl600  Cl    0.19431   0.08559   0.86477   0.00000  Uiso   1.00
C601   C     0.50005   0.24598   0.74983   0.00000  Uiso   1.00
C602   C     0.47878   0.16016   0.98931   0.00000  Uiso   1.00
C603   C     0.48900   0.14771   0.93647   0.00000  Uiso   1.00
C604   C     0.51545   0.15586   0.51488   0.00000  Uiso   1.00
C605   C     0.55717   0.13066   0.99135   0.00000  Uiso   1.00
C606   C     0.56314   0.11268   0.94199   0.00000  Uiso   1.00
C607   C     0.52846   0.12006   0.91554   0.00000  Uiso   1.00
C608   C     0.51229   0.17578   0.56309   0.00000  Uiso   1.00
C609   C     0.58194   0.13571   0.57005   0.00000  Uiso   1.00
C610   C     0.45718   0.16146   0.90796   0.00000  Uiso   1.00
C611   C     0.54284   0.31204   0.74911   0.00000  Uiso   1.00
C612   C     0.47362   0.16444   0.85024   0.00000  Uiso   1.00
C613   C     0.54290   0.02128   0.74887   0.00000  Uiso   1.00
C614   C     0.50025   0.04274   0.74905   0.00000  Uiso   1.00
C615   C     0.45763   0.02129   0.74909   0.00000  Uiso   1.00
C616   C     0.45760   0.31205   0.74924   0.00000  Uiso   1.00
C617   C     0.50016   0.29059   0.74940   0.00000  Uiso   1.00
C618   C     0.63240   0.19161   0.78326   0.00000  Uiso   1.00
C619   C     0.34869   0.19157   0.78329   0.00000  Uiso   1.00
C620   C     0.36757   0.14166   0.71681   0.00000  Uiso   1.00
C621   C     0.65128   0.14170   0.71678   0.00000  Uiso   1.00
C622   C     0.50014   0.08735   0.74944   0.00000  Uiso   1.00
C623   C     0.52631   0.16686   0.64981   0.00000  Uiso   1.00
C624   C     0.59098   0.12232   0.51889   0.00000  Uiso   1.00
C625   C     0.54169   0.16106   0.59298   0.00000  Uiso   1.00
C626   C     0.41046   0.17686   0.93534   0.00000  Uiso   1.00
C627   C     0.39642   0.18051   0.98953   0.00000  Uiso   1.00
C628   C     0.43038   0.17272   0.51624   0.00000  Uiso   1.00
Cu629  Cu    0.45311   0.16666   0.75000   0.00000  Uiso   1.00
Cu630  Cu    0.54689   0.16667   0.75000   0.00000  Uiso   1.00
H631   H     0.60572   0.12521   0.59226   0.00000  Uiso   1.00
H632   H     0.57624   0.03729   0.74874   0.00000  Uiso   1.00
H633   H     0.42432   0.03731   0.74913   0.00000  Uiso   1.00
H634   H     0.42427   0.29603   0.74935   0.00000  Uiso   1.00
H635   H     0.60613   0.21162   0.80988   0.00000  Uiso   1.00
H636   H     0.35986   0.21152   0.80992   0.00000  Uiso   1.00
H637   H     0.39384   0.12163   0.69021   0.00000  Uiso   1.00
H638   H     0.64010   0.12172   0.69018   0.00000  Uiso   1.00
H639   H     0.62297   0.10316   0.50272   0.00000  Uiso   1.00
H640   H     0.38484   0.18637   0.91484   0.00000  Uiso   1.00
H641   H     0.41779   0.17479   0.55826   0.00000  Uiso   1.00
H642   H     0.35963   0.19069   0.51074   0.00000  Uiso   1.00
H643   H     0.57614   0.29603   0.74914   0.00000  Uiso   1.00
N644   N     0.38265   0.16666   0.74999   0.00000  Uiso   1.00
N645   N     0.61735   0.16669   0.75000   0.00000  Uiso   1.00
O646   O     0.46042   0.22678   0.75001   0.00000  Uiso   1.00
O647   O     0.53961   0.22679   0.75001   0.00000  Uiso   1.00
O648   O     0.44108   0.16665   0.82549   0.00000  Uiso   1.00
O649   O     0.52027   0.16666   0.82549   0.00000  Uiso   1.00
O650   O     0.46039   0.10654   0.75000   0.00000  Uiso   1.00
O651   O     0.53958   0.10655   0.75000   0.00000  Uiso   1.00
O652   O     0.47973   0.16667   0.67451   0.00000  Uiso   1.00
O653   O     0.55892   0.16668   0.67451   0.00000  Uiso   1.00
Cl654  Cl    0.61358   0.07974   0.91280   0.00000  Uiso   1.00
S655   S     0.48770   0.22675   0.57704   0.00000  Uiso   1.00
O656   O     0.51979   0.25105   0.60157   0.00000  Uiso   1.00
O657   O     0.48795   0.24766   0.52681   0.00000  Uiso   1.00
O658   O     0.42987   0.22757   0.61844   0.00000  Uiso   1.00
H659   H     0.42379   0.20004   0.63485   0.00000  Uiso   1.00
Cl660  Cl    0.52765   0.08559   0.86477   0.00000  Uiso   1.00
C661   C     0.83339   0.24598   0.74983   0.00000  Uiso   1.00
C662   C     0.81211   0.16016   0.98931   0.00000  Uiso   1.00
C663   C     0.82233   0.14771   0.93647   0.00000  Uiso   1.00
C664   C     0.84878   0.15586   0.51488   0.00000  Uiso   1.00
C665   C     0.89050   0.13066   0.99135   0.00000  Uiso   1.00
C666   C     0.89648   0.11268   0.94199   0.00000  Uiso   1.00
C667   C     0.86179   0.12006   0.91554   0.00000  Uiso   1.00
C668   C     0.84563   0.17578   0.56309   0.00000  Uiso   1.00
C669   C     0.91527   0.13571   0.57005   0.00000  Uiso   1.00
C670   C     0.79051   0.16146   0.90796   0.00000  Uiso   1.00
C671   C     0.87617   0.31204   0.74911   0.00000  Uiso   1.00
C672   C     0.80695   0.16444   0.85024   0.00000  Uiso   1.00
C673   C     0.87623   0.02128   0.74887   0.00000  Uiso   1.00
C674   C     0.83358   0.04274   0.74905   0.00000  Uiso   1.00
C675   C     0.79097   0.02129   0.74909   0.00000  Uiso   1.00
C676   C     0.79093   0.31205   0.74924   0.00000  Uiso   1.00
C677   C     0.83349   0.29059   0.74940   0.00000  Uiso   1.00
C678   C     0.96573   0.19161   0.78326   0.00000  Uiso   1.00
C679   C     0.68203   0.19157   0.78329   0.00000  Uiso   1.00
C680   C     0.70090   0.14166   0.71681   0.00000  Uiso   1.00
C681   C     0.98461   0.14170   0.71678   0.00000  Uiso   1.00
C682   C     0.83347   0.08735   0.74944   0.00000  Uiso   1.00
C683   C     0.85964   0.16686   0.64981   0.00000  Uiso   1.00
C684   C     0.92432   0.12232   0.51889   0.00000  Uiso   1.00
C685   C     0.87502   0.16106   0.59298   0.00000  Uiso   1.00
C686   C     0.74380   0.17686   0.93534   0.00000  Uiso   1.00
C687   C     0.72975   0.18051   0.98953   0.00000  Uiso   1.00
C688   C     0.76371   0.17272   0.51624   0.00000  Uiso   1.00
Cu689  Cu    0.78645   0.16666   0.75000   0.00000  Uiso   1.00
Cu690  Cu    0.88022   0.16667   0.75000   0.00000  Uiso   1.00
H691   H     0.93906   0.12521   0.59226   0.00000  Uiso   1.00
H692   H     0.90957   0.03729   0.74874   0.00000  Uiso   1.00
H693   H     0.75765   0.03731   0.74913   0.00000  Uiso   1.00
H694   H     0.75760   0.29603   0.74935   0.00000  Uiso   1.00
H695   H     0.93946   0.21162   0.80988   0.00000  Uiso   1.00
H696   H     0.69319   0.21152   0.80992   0.00000  Uiso   1.00
H697   H     0.72717   0.12163   0.69021   0.00000  Uiso   1.00
H698   H     0.97344   0.12172   0.69018   0.00000  Uiso   1.00
H699   H     0.95630   0.10316   0.50272   0.00000  Uiso   1.00
H700   H     0.71817   0.18637   0.91484   0.00000  Uiso   1.00
H701   H     0.75112   0.17479   0.55826   0.00000  Uiso   1.00
H702   H     0.69296   0.19069   0.51074   0.00000  Uiso   1.00
H703   H     0.90947   0.29603   0.74914   0.00000  Uiso   1.00
N704   N     0.71598   0.16666   0.74999   0.00000  Uiso   1.00
N705   N     0.95069   0.16669   0.75000   0.00000  Uiso   1.00
O706   O     0.79375   0.22678   0.75001   0.00000  Uiso   1.00
O707   O     0.87294   0.22679   0.75001   0.00000  Uiso   1.00
O708   O     0.77441   0.16665   0.82549   0.00000  Uiso   1.00
O709   O     0.85360   0.16666   0.82549   0.00000  Uiso   1.00
O710   O     0.79373   0.10654   0.75000   0.00000  Uiso   1.00
O711   O     0.87292   0.10655   0.75000   0.00000  Uiso   1.00
O712   O     0.81306   0.16667   0.67451   0.00000  Uiso   1.00
O713   O     0.89225   0.16668   0.67451   0.00000  Uiso   1.00
Cl714  Cl    0.94691   0.07974   0.91280   0.00000  Uiso   1.00
S715   S     0.82103   0.22675   0.57704   0.00000  Uiso   1.00
O716   O     0.85312   0.25105   0.60157   0.00000  Uiso   1.00
O717   O     0.82128   0.24766   0.52681   0.00000  Uiso   1.00
O718   O     0.76321   0.22757   0.61844   0.00000  Uiso   1.00
H719   H     0.75712   0.20004   0.63485   0.00000  Uiso   1.00
Cl720  Cl    0.86098   0.08559   0.86477   0.00000  Uiso   1.00
C721   C     0.16672   0.57932   0.74983   0.00000  Uiso   1.00
C722   C     0.14544   0.49349   0.98931   0.00000  Uiso   1.00
C723   C     0.15566   0.48104   0.93647   0.00000  Uiso   1.00
C724   C     0.18211   0.48920   0.51488   0.00000  Uiso   1.00
C725   C     0.22384   0.46400   0.99135   0.00000  Uiso   1.00
C726   C     0.22981   0.44602   0.94199   0.00000  Uiso   1.00
C727   C     0.19512   0.45339   0.91554   0.00000  Uiso   1.00
C728   C     0.17896   0.50912   0.56309   0.00000  Uiso   1.00
C729   C     0.24860   0.46905   0.57005   0.00000  Uiso   1.00
C730   C     0.12384   0.49479   0.90796   0.00000  Uiso   1.00
C731   C     0.20951   0.64538   0.74911   0.00000  Uiso   1.00
C732   C     0.14029   0.49778   0.85024   0.00000  Uiso   1.00
C733   C     0.20957   0.35461   0.74887   0.00000  Uiso   1.00
C734   C     0.16691   0.37607   0.74905   0.00000  Uiso   1.00
C735   C     0.12430   0.35462   0.74909   0.00000  Uiso   1.00
C736   C     0.12426   0.64538   0.74924   0.00000  Uiso   1.00
C737   C     0.16682   0.62393   0.74940   0.00000  Uiso   1.00
C738   C     0.29907   0.52494   0.78326   0.00000  Uiso   1.00
C739   C     0.01536   0.52490   0.78329   0.00000  Uiso   1.00
C740   C     0.03424   0.47499   0.71681   0.00000  Uiso   1.00
C741   C     0.31795   0.47503   0.71678   0.00000  Uiso   1.00
C742   C     0.16681   0.42068   0.74944   0.00000  Uiso   1.00
C743   C     0.19297   0.50019   0.64981   0.00000  Uiso   1.00
C744   C     0.25765   0.45566   0.51889   0.00000  Uiso   1.00
C745   C     0.20835   0.49439   0.59298   0.00000  Uiso   1.00
C746   C     0.07713   0.51020   0.93534   0.00000  Uiso   1.00
C747   C     0.06308   0.51384   0.98953   0.00000  Uiso   1.00
C748   C     0.09704   0.50605   0.51624   0.00000  Uiso   1.00
Cu749  Cu    0.11978   0.49999   0.75000   0.00000  Uiso   1.00
Cu750  Cu    0.21355   0.50001   0.75000   0.00000  Uiso   1.00
H751   H     0.27239   0.45854   0.59226   0.00000  Uiso   1.00
H752   H     0.24291   0.37062   0.74874   0.00000  Uiso   1.00
H753   H     0.09099   0.37064   0.74913   0.00000  Uiso   1.00
H754   H     0.09093   0.62936   0.74935   0.00000  Uiso   1.00
H755   H     0.27279   0.54495   0.80988   0.00000  Uiso   1.00
H756   H     0.02653   0.54485   0.80992   0.00000  Uiso   1.00
H757   H     0.06050   0.45496   0.69021   0.00000  Uiso   1.00
H758   H     0.30677   0.45506   0.69018   0.00000  Uiso   1.00
H759   H     0.28964   0.43649   0.50272   0.00000  Uiso   1.00
H760   H     0.05150   0.51971   0.91484   0.00000  Uiso   1.00
H761   H     0.08445   0.50812   0.55826   0.00000  Uiso   1.00
H762   H     0.02629   0.52402   0.51074   0.00000  Uiso   1.00
H763   H     0.24281   0.62936   0.74914   0.00000  Uiso   1.00
N764   N     0.04931   0.49999   0.74999   0.00000  Uiso   1.00
N765   N     0.28402   0.50002   0.75000   0.00000  Uiso   1.00
O766   O     0.12708   0.56011   0.75001   0.00000  Uiso   1.00
O767   O     0.20627   0.56012   0.75001   0.00000  Uiso   1.00
O768   O     0.10775   0.49998   0.82549   0.00000  Uiso   1.00
O769   O     0.18694   0.49999   0.82549   0.00000  Uiso   1.00
O770   O     0.12706   0.43988   0.75000   0.00000  Uiso   1.00
O771   O     0.20625   0.43989   0.75000   0.00000  Uiso   1.00
O772   O     0.14640   0.50001   0.67451   0.00000  Uiso   1.00
O773   O     0.22559   0.50002   0.67451   0.00000  Uiso   1.00
Cl774  Cl    0.28025   0.41307   0.91280   0.00000  Uiso   1.00
S775   S     0.15437   0.56008   0.57704   0.00000  Uiso   1.00
O776   O     0.18646   0.58439   0.60157   0.00000  Uiso   1.00
O777   O     0.15461   0.58100   0.52681   0.00000  Uiso   1.00
O778   O     0.09654   0.56090   0.61844   0.00000  Uiso   1.00
H779   H     0.09046   0.53337   0.63485   0.00000  Uiso   1.00
Cl780  Cl    0.19431   0.41892   0.86477   0.00000  Uiso   1.00
C781   C     0.50005   0.57932   0.74983   0.00000  Uiso   1.00
C782   C     0.47878   0.49349   0.98931   0.00000  Uiso   1.00
C783   C     0.48900   0.48104   0.93647   0.00000  Uiso   1.00
C784   C     0.51545   0.48920   0.51488   0.00000  Uiso   1.00
C785   C     0.55717   0.46400   0.99135   0.00000  Uiso   1.00
C786   C     0.56314   0.44602   0.94199   0.00000  Uiso   1.00
C787   C     0.52846   0.45339   0.91554   0.00000  Uiso   1.00
C788   C     0.51229   0.50912   0.56309   0.00000  Uiso   1.00
C789   C     0.58194   0.46905   0.57005   0.00000  Uiso   1.00
C790   C     0.45718   0.49479   0.90796   0.00000  Uiso   1.00
C791   C     0.54284   0.64538   0.74911   0.00000  Uiso   1.00
C792   C     0.47362   0.49778   0.85024   0.00000  Uiso   1.00
C793   C     0.54290   0.35461   0.74887   0.00000  Uiso   1.00
C794   C     0.50025   0.37607   0.74905   0.00000  Uiso   1.00
C795   C     0.45763   0.35462   0.74909   0.00000  Uiso   1.00
C796   C     0.45760   0.64538   0.74924   0.00000  Uiso   1.00
C797   C     0.50016   0.62393   0.74940   0.00000  Uiso   1.00
C798   C     0.63240   0.52494   0.78326   0.00000  Uiso   1.00
C799   C     0.34869   0.52490   0.78329   0.00000  Uiso   1.00
C800   C     0.36757   0.47499   0.71681   0.00000  Uiso   1.00
C801   C     0.65128   0.47503   0.71678   0.00000  Uiso   1.00
C802   C     0.50014   0.42068   0.74944   0.00000  Uiso   1.00
C803   C     0.52631   0.50019   0.64981   0.00000  Uiso   1.00
C804   C     0.59098   0.45566   0.51889   0.00000  Uiso   1.00
C805   C     0.54169   0.49439   0.59298   0.00000  Uiso   1.00
C806   C     0.41046   0.51020   0.93534   0.00000  Uiso   1.00
C807   C     0.39642   0.51384   0.98953   0.00000  Uiso   1.00
C808   C     0.43038   0.50605   0.51624   0.00000  Uiso   1.00
Cu809  Cu    0.45311   0.49999   0.75000   0.00000  Uiso   1.00
Cu810  Cu    0.54689   0.50001   0.75000   0.00000  Uiso   1.00
H811   H     0.60572   0.45854   0.59226   0.00000  Uiso   1.00
H812   H     0.57624   0.37062   0.74874   0.00000  Uiso   1.00
H813   H     0.42432   0.37064   0.74913   0.00000  Uiso   1.00
H814   H     0.42427   0.62936   0.74935   0.00000  Uiso   1.00
H815   H     0.60613   0.54495   0.80988   0.00000  Uiso   1.00
H816   H     0.35986   0.54485   0.80992   0.00000  Uiso   1.00
H817   H     0.39384   0.45496   0.69021   0.00000  Uiso   1.00
H818   H     0.64010   0.45506   0.69018   0.00000  Uiso   1.00
H819   H     0.62297   0.43649   0.50272   0.00000  Uiso   1.00
H820   H     0.38484   0.51971   0.91484   0.00000  Uiso   1.00
H821   H     0.41779   0.50812   0.55826   0.00000  Uiso   1.00
H822   H     0.35963   0.52402   0.51074   0.00000  Uiso   1.00
H823   H     0.57614   0.62936   0.74914   0.00000  Uiso   1.00
N824   N     0.38265   0.49999   0.74999   0.00000  Uiso   1.00
N825   N     0.61735   0.50002   0.75000   0.00000  Uiso   1.00
O826   O     0.46042   0.56011   0.75001   0.00000  Uiso   1.00
O827   O     0.53961   0.56012   0.75001   0.00000  Uiso   1.00
O828   O     0.44108   0.49998   0.82549   0.00000  Uiso   1.00
O829   O     0.52027   0.49999   0.82549   0.00000  Uiso   1.00
O830   O     0.46039   0.43988   0.75000   0.00000  Uiso   1.00
O831   O     0.53958   0.43989   0.75000   0.00000  Uiso   1.00
O832   O     0.47973   0.50001   0.67451   0.00000  Uiso   1.00
O833   O     0.55892   0.50002   0.67451   0.00000  Uiso   1.00
Cl834  Cl    0.61358   0.41307   0.91280   0.00000  Uiso   1.00
S835   S     0.48770   0.56008   0.57704   0.00000  Uiso   1.00
O836   O     0.51979   0.58439   0.60157   0.00000  Uiso   1.00
O837   O     0.48795   0.58100   0.52681   0.00000  Uiso   1.00
O838   O     0.42987   0.56090   0.61844   0.00000  Uiso   1.00
H839   H     0.42379   0.53337   0.63485   0.00000  Uiso   1.00
Cl840  Cl    0.52765   0.41892   0.86477   0.00000  Uiso   1.00
C841   C     0.83339   0.57932   0.74983   0.00000  Uiso   1.00
C842   C     0.81211   0.49349   0.98931   0.00000  Uiso   1.00
C843   C     0.82233   0.48104   0.93647   0.00000  Uiso   1.00
C844   C     0.84878   0.48920   0.51488   0.00000  Uiso   1.00
C845   C     0.89050   0.46400   0.99135   0.00000  Uiso   1.00
C846   C     0.89648   0.44602   0.94199   0.00000  Uiso   1.00
C847   C     0.86179   0.45339   0.91554   0.00000  Uiso   1.00
C848   C     0.84563   0.50912   0.56309   0.00000  Uiso   1.00
C849   C     0.91527   0.46905   0.57005   0.00000  Uiso   1.00
C850   C     0.79051   0.49479   0.90796   0.00000  Uiso   1.00
C851   C     0.87617   0.64538   0.74911   0.00000  Uiso   1.00
C852   C     0.80695   0.49778   0.85024   0.00000  Uiso   1.00
C853   C     0.87623   0.35461   0.74887   0.00000  Uiso   1.00
C854   C     0.83358   0.37607   0.74905   0.00000  Uiso   1.00
C855   C     0.79097   0.35462   0.74909   0.00000  Uiso   1.00
C856   C     0.79093   0.64538   0.74924   0.00000  Uiso   1.00
C857   C     0.83349   0.62393   0.74940   0.00000  Uiso   1.00
C858   C     0.96573   0.52494   0.78326   0.00000  Uiso   1.00
C859   C     0.68203   0.52490   0.78329   0.00000  Uiso   1.00
C860   C     0.70090   0.47499   0.71681   0.00000  Uiso   1.00
C861   C     0.98461   0.47503   0.71678   0.00000  Uiso   1.00
C862   C     0.83347   0.42068   0.74944   0.00000  Uiso   1.00
C863   C     0.85964   0.50019   0.64981   0.00000  Uiso   1.00
C864   C     0.92432   0.45566   0.51889   0.00000  Uiso   1.00
C865   C     0.87502   0.49439   0.59298   0.00000  Uiso   1.00
C866   C     0.74380   0.51020   0.93534   0.00000  Uiso   1.00
C867   C     0.72975   0.51384   0.98953   0.00000  Uiso   1.00
C868   C     0.76371   0.50605   0.51624   0.00000  Uiso   1.00
Cu869  Cu    0.78645   0.49999   0.75000   0.00000  Uiso   1.00
Cu870  Cu    0.88022   0.50001   0.75000   0.00000  Uiso   1.00
H871   H     0.93906   0.45854   0.59226   0.00000  Uiso   1.00
H872   H     0.90957   0.37062   0.74874   0.00000  Uiso   1.00
H873   H     0.75765   0.37064   0.74913   0.00000  Uiso   1.00
H874   H     0.75760   0.62936   0.74935   0.00000  Uiso   1.00
H875   H     0.93946   0.54495   0.80988   0.00000  Uiso   1.00
H876   H     0.69319   0.54485   0.80992   0.00000  Uiso   1.00
H877   H     0.72717   0.45496   0.69021   0.00000  Uiso   1.00
H878   H     0.97344   0.45506   0.69018   0.00000  Uiso   1.00
H879   H     0.95630   0.43649   0.50272   0.00000  Uiso   1.00
H880   H     0.71817   0.51971   0.91484   0.00000  Uiso   1.00
H881   H     0.75112   0.50812   0.55826   0.00000  Uiso   1.00
H882   H     0.69296   0.52402   0.51074   0.00000  Uiso   1.00
H883   H     0.90947   0.62936   0.74914   0.00000  Uiso   1.00
N884   N     0.71598   0.49999   0.74999   0.00000  Uiso   1.00
N885   N     0.95069   0.50002   0.75000   0.00000  Uiso   1.00
O886   O     0.79375   0.56011   0.75001   0.00000  Uiso   1.00
O887   O     0.87294   0.56012   0.75001   0.00000  Uiso   1.00
O888   O     0.77441   0.49998   0.82549   0.00000  Uiso   1.00
O889   O     0.85360   0.49999   0.82549   0.00000  Uiso   1.00
O890   O     0.79373   0.43988   0.75000   0.00000  Uiso   1.00
O891   O     0.87292   0.43989   0.75000   0.00000  Uiso   1.00
O892   O     0.81306   0.50001   0.67451   0.00000  Uiso   1.00
O893   O     0.89225   0.50002   0.67451   0.00000  Uiso   1.00
Cl894  Cl    0.94691   0.41307   0.91280   0.00000  Uiso   1.00
S895   S     0.82103   0.56008   0.57704   0.00000  Uiso   1.00
O896   O     0.85312   0.58439   0.60157   0.00000  Uiso   1.00
O897   O     0.82128   0.58100   0.52681   0.00000  Uiso   1.00
O898   O     0.76321   0.56090   0.61844   0.00000  Uiso   1.00
H899   H     0.75712   0.53337   0.63485   0.00000  Uiso   1.00
Cl900  Cl    0.86098   0.41892   0.86477   0.00000  Uiso   1.00
C901   C     0.16672   0.91265   0.74983   0.00000  Uiso   1.00
C902   C     0.14544   0.82682   0.98931   0.00000  Uiso   1.00
C903   C     0.15566   0.81437   0.93647   0.00000  Uiso   1.00
C904   C     0.18211   0.82253   0.51488   0.00000  Uiso   1.00
C905   C     0.22384   0.79733   0.99135   0.00000  Uiso   1.00
C906   C     0.22981   0.77935   0.94199   0.00000  Uiso   1.00
C907   C     0.19512   0.78672   0.91554   0.00000  Uiso   1.00
C908   C     0.17896   0.84245   0.56309   0.00000  Uiso   1.00
C909   C     0.24860   0.80238   0.57005   0.00000  Uiso   1.00
C910   C     0.12384   0.82813   0.90796   0.00000  Uiso   1.00
C911   C     0.20951   0.97871   0.74911   0.00000  Uiso   1.00
C912   C     0.14029   0.83111   0.85024   0.00000  Uiso   1.00
C913   C     0.20957   0.68794   0.74887   0.00000  Uiso   1.00
C914   C     0.16691   0.70940   0.74905   0.00000  Uiso   1.00
C915   C     0.12430   0.68796   0.74909   0.00000  Uiso   1.00
C916   C     0.12426   0.97871   0.74924   0.00000  Uiso   1.00
C917   C     0.16682   0.95726   0.74940   0.00000  Uiso   1.00
C918   C     0.29907   0.85828   0.78326   0.00000  Uiso   1.00
C919   C     0.01536   0.85823   0.78329   0.00000  Uiso   1.00
C920   C     0.03424   0.80832   0.71681   0.00000  Uiso   1.00
C921   C     0.31795   0.80837   0.71678   0.00000  Uiso   1.00
C922   C     0.16681   0.75402   0.74944   0.00000  Uiso   1.00
C923   C     0.19297   0.83353   0.64981   0.00000  Uiso   1.00
C924   C     0.25765   0.78899   0.51889   0.00000  Uiso   1.00
C925   C     0.20835   0.82773   0.59298   0.00000  Uiso   1.00
C926   C     0.07713   0.84353   0.93534   0.00000  Uiso   1.00
C927   C     0.06308   0.84717   0.98953   0.00000  Uiso   1.00
C928   C     0.09704   0.83938   0.51624   0.00000  Uiso   1.00
Cu929  Cu    0.11978   0.83333   0.75000   0.00000  Uiso   1.00
Cu930  Cu    0.21355   0.83334   0.75000   0.00000  Uiso   1.00
H931   H     0.27239   0.79188   0.59226   0.00000  Uiso   1.00
H932   H     0.24291   0.70396   0.74874   0.00000  Uiso   1.00
H933   H     0.09099   0.70398   0.74913   0.00000  Uiso   1.00
H934   H     0.09093   0.96270   0.74935   0.00000  Uiso   1.00
H935   H     0.27279   0.87829   0.80988   0.00000  Uiso   1.00
H936   H     0.02653   0.87818   0.80992   0.00000  Uiso   1.00
H937   H     0.06050   0.78829   0.69021   0.00000  Uiso   1.00
H938   H     0.30677   0.78839   0.69018   0.00000  Uiso   1.00
H939   H     0.28964   0.76982   0.50272   0.00000  Uiso   1.00
H940   H     0.05150   0.85304   0.91484   0.00000  Uiso   1.00
H941   H     0.08445   0.84146   0.55826   0.00000  Uiso   1.00
H942   H     0.02629   0.85736   0.51074   0.00000  Uiso   1.00
H943   H     0.24281   0.96270   0.74914   0.00000  Uiso   1.00
N944   N     0.04931   0.83332   0.74999   0.00000  Uiso   1.00
N945   N     0.28402   0.83335   0.75000   0.00000  Uiso   1.00
O946   O     0.12708   0.89345   0.75001   0.00000  Uiso   1.00
O947   O     0.20627   0.89346   0.75001   0.00000  Uiso   1.00
O948   O     0.10775   0.83332   0.82549   0.00000  Uiso   1.00
O949   O     0.18694   0.83333   0.82549   0.00000  Uiso   1.00
O950   O     0.12706   0.77321   0.75000   0.00000  Uiso   1.00
O951   O     0.20625   0.77322   0.75000   0.00000  Uiso   1.00
O952   O     0.14640   0.83334   0.67451   0.00000  Uiso   1.00
O953   O     0.22559   0.83335   0.67451   0.00000  Uiso   1.00
Cl954  Cl    0.28025   0.74641   0.91280   0.00000  Uiso   1.00
S955   S     0.15437   0.89341   0.57704   0.00000  Uiso   1.00
O956   O     0.18646   0.91772   0.60157   0.00000  Uiso   1.00
O957   O     0.15461   0.91433   0.52681   0.00000  Uiso   1.00
O958   O     0.09654   0.89423   0.61844   0.00000  Uiso   1.00
H959   H     0.09046   0.86670   0.63485   0.00000  Uiso   1.00
Cl960  Cl    0.19431   0.75226   0.86477   0.00000  Uiso   1.00
C961   C     0.50005   0.91265   0.74983   0.00000  Uiso   1.00
C962   C     0.47878   0.82682   0.98931   0.00000  Uiso   1.00
C963   C     0.48900   0.81437   0.93647   0.00000  Uiso   1.00
C964   C     0.51545   0.82253   0.51488   0.00000  Uiso   1.00
C965   C     0.55717   0.79733   0.99135   0.00000  Uiso   1.00
C966   C     0.56314   0.77935   0.94199   0.00000  Uiso   1.00
C967   C     0.52846   0.78672   0.91554   0.00000  Uiso   1.00
C968   C     0.51229   0.84245   0.56309   0.00000  Uiso   1.00
C969   C     0.58194   0.80238   0.57005   0.00000  Uiso   1.00
C970   C     0.45718   0.82813   0.90796   0.00000  Uiso   1.00
C971   C     0.54284   0.97871   0.74911   0.00000  Uiso   1.00
C972   C     0.47362   0.83111   0.85024   0.00000  Uiso   1.00
C973   C     0.54290   0.68794   0.74887   0.00000  Uiso   1.00
C974   C     0.50025   0.70940   0.74905   0.00000  Uiso   1.00
C975   C     0.45763   0.68796   0.74909   0.00000  Uiso   1.00
C976   C     0.45760   0.97871   0.74924   0.00000  Uiso   1.00
C977   C     0.50016   0.95726   0.74940   0.00000  Uiso   1.00
C978   C     0.63240   0.85828   0.78326   0.00000  Uiso   1.00
C979   C     0.34869   0.85823   0.78329   0.00000  Uiso   1.00
C980   C     0.36757   0.80832   0.71681   0.00000  Uiso   1.00
C981   C     0.65128   0.80837   0.71678   0.00000  Uiso   1.00
C982   C     0.50014   0.75402   0.74944   0.00000  Uiso   1.00
C983   C     0.52631   0.83353   0.64981   0.00000  Uiso   1.00
C984   C     0.59098   0.78899   0.51889   0.00000  Uiso   1.00
C985   C     0.54169   0.82773   0.59298   0.00000  Uiso   1.00
C986   C     0.41046   0.84353   0.93534   0.00000  Uiso   1.00
C987   C     0.39642   0.84717   0.98953   0.00000  Uiso   1.00
C988   C     0.43038   0.83938   0.51624   0.00000  Uiso   1.00
Cu989  Cu    0.45311   0.83333   0.75000   0.00000  Uiso   1.00
Cu990  Cu    0.54689   0.83334   0.75000   0.00000  Uiso   1.00
H991   H     0.60572   0.79188   0.59226   0.00000  Uiso   1.00
H992   H     0.57624   0.70396   0.74874   0.00000  Uiso   1.00
H993   H     0.42432   0.70398   0.74913   0.00000  Uiso   1.00
H994   H     0.42427   0.96270   0.74935   0.00000  Uiso   1.00
H995   H     0.60613   0.87829   0.80988   0.00000  Uiso   1.00
H996   H     0.35986   0.87818   0.80992   0.00000  Uiso   1.00
H997   H     0.39384   0.78829   0.69021   0.00000  Uiso   1.00
H998   H     0.64010   0.78839   0.69018   0.00000  Uiso   1.00
H999   H     0.62297   0.76982   0.50272   0.00000  Uiso   1.00
H1000  H     0.38484   0.85304   0.91484   0.00000  Uiso   1.00
H1001  H     0.41779   0.84146   0.55826   0.00000  Uiso   1.00
H1002  H     0.35963   0.85736   0.51074   0.00000  Uiso   1.00
H1003  H     0.57614   0.96270   0.74914   0.00000  Uiso   1.00
N1004  N     0.38265   0.83332   0.74999   0.00000  Uiso   1.00
N1005  N     0.61735   0.83335   0.75000   0.00000  Uiso   1.00
O1006  O     0.46042   0.89345   0.75001   0.00000  Uiso   1.00
O1007  O     0.53961   0.89346   0.75001   0.00000  Uiso   1.00
O1008  O     0.44108   0.83332   0.82549   0.00000  Uiso   1.00
O1009  O     0.52027   0.83333   0.82549   0.00000  Uiso   1.00
O1010  O     0.46039   0.77321   0.75000   0.00000  Uiso   1.00
O1011  O     0.53958   0.77322   0.75000   0.00000  Uiso   1.00
O1012  O     0.47973   0.83334   0.67451   0.00000  Uiso   1.00
O1013  O     0.55892   0.83335   0.67451   0.00000  Uiso   1.00
Cl1014 Cl    0.61358   0.74641   0.91280   0.00000  Uiso   1.00
S1015  S     0.48770   0.89341   0.57704   0.00000  Uiso   1.00
O1016  O     0.51979   0.91772   0.60157   0.00000  Uiso   1.00
O1017  O     0.48795   0.91433   0.52681   0.00000  Uiso   1.00
O1018  O     0.42987   0.89423   0.61844   0.00000  Uiso   1.00
H1019  H     0.42379   0.86670   0.63485   0.00000  Uiso   1.00
Cl1020 Cl    0.52765   0.75226   0.86477   0.00000  Uiso   1.00
C1021  C     0.83339   0.91265   0.74983   0.00000  Uiso   1.00
C1022  C     0.81211   0.82682   0.98931   0.00000  Uiso   1.00
C1023  C     0.82233   0.81437   0.93647   0.00000  Uiso   1.00
C1024  C     0.84878   0.82253   0.51488   0.00000  Uiso   1.00
C1025  C     0.89050   0.79733   0.99135   0.00000  Uiso   1.00
C1026  C     0.89648   0.77935   0.94199   0.00000  Uiso   1.00
C1027  C     0.86179   0.78672   0.91554   0.00000  Uiso   1.00
C1028  C     0.84563   0.84245   0.56309   0.00000  Uiso   1.00
C1029  C     0.91527   0.80238   0.57005   0.00000  Uiso   1.00
C1030  C     0.79051   0.82813   0.90796   0.00000  Uiso   1.00
C1031  C     0.87617   0.97871   0.74911   0.00000  Uiso   1.00
C1032  C     0.80695   0.83111   0.85024   0.00000  Uiso   1.00
C1033  C     0.87623   0.68794   0.74887   0.00000  Uiso   1.00
C1034  C     0.83358   0.70940   0.74905   0.00000  Uiso   1.00
C1035  C     0.79097   0.68796   0.74909   0.00000  Uiso   1.00
C1036  C     0.79093   0.97871   0.74924   0.00000  Uiso   1.00
C1037  C     0.83349   0.95726   0.74940   0.00000  Uiso   1.00
C1038  C     0.96573   0.85828   0.78326   0.00000  Uiso   1.00
C1039  C     0.68203   0.85823   0.78329   0.00000  Uiso   1.00
C1040  C     0.70090   0.80832   0.71681   0.00000  Uiso   1.00
C1041  C     0.98461   0.80837   0.71678   0.00000  Uiso   1.00
C1042  C     0.83347   0.75402   0.74944   0.00000  Uiso   1.00
C1043  C     0.85964   0.83353   0.64981   0.00000  Uiso   1.00
C1044  C     0.92432   0.78899   0.51889   0.00000  Uiso   1.00
C1045  C     0.87502   0.82773   0.59298   0.00000  Uiso   1.00
C1046  C     0.74380   0.84353   0.93534   0.00000  Uiso   1.00
C1047  C     0.72975   0.84717   0.98953   0.00000  Uiso   1.00
C1048  C     0.76371   0.83938   0.51624   0.00000  Uiso   1.00
Cu1049 Cu    0.78645   0.83333   0.75000   0.00000  Uiso   1.00
Cu1050 Cu    0.88022   0.83334   0.75000   0.00000  Uiso   1.00
H1051  H     0.93906   0.79188   0.59226   0.00000  Uiso   1.00
H1052  H     0.90957   0.70396   0.74874   0.00000  Uiso   1.00
H1053  H     0.75765   0.70398   0.74913   0.00000  Uiso   1.00
H1054  H     0.75760   0.96270   0.74935   0.00000  Uiso   1.00
H1055  H     0.93946   0.87829   0.80988   0.00000  Uiso   1.00
H1056  H     0.69319   0.87818   0.80992   0.00000  Uiso   1.00
H1057  H     0.72717   0.78829   0.69021   0.00000  Uiso   1.00
H1058  H     0.97344   0.78839   0.69018   0.00000  Uiso   1.00
H1059  H     0.95630   0.76982   0.50272   0.00000  Uiso   1.00
H1060  H     0.71817   0.85304   0.91484   0.00000  Uiso   1.00
H1061  H     0.75112   0.84146   0.55826   0.00000  Uiso   1.00
H1062  H     0.69296   0.85736   0.51074   0.00000  Uiso   1.00
H1063  H     0.90947   0.96270   0.74914   0.00000  Uiso   1.00
N1064  N     0.71598   0.83332   0.74999   0.00000  Uiso   1.00
N1065  N     0.95069   0.83335   0.75000   0.00000  Uiso   1.00
O1066  O     0.79375   0.89345   0.75001   0.00000  Uiso   1.00
O1067  O     0.87294   0.89346   0.75001   0.00000  Uiso   1.00
O1068  O     0.77441   0.83332   0.82549   0.00000  Uiso   1.00
O1069  O     0.85360   0.83333   0.82549   0.00000  Uiso   1.00
O1070  O     0.79373   0.77321   0.75000   0.00000  Uiso   1.00
O1071  O     0.87292   0.77322   0.75000   0.00000  Uiso   1.00
O1072  O     0.81306   0.83334   0.67451   0.00000  Uiso   1.00
O1073  O     0.89225   0.83335   0.67451   0.00000  Uiso   1.00
Cl1074 Cl    0.94691   0.74641   0.91280   0.00000  Uiso   1.00
S1075  S     0.82103   0.89341   0.57704   0.00000  Uiso   1.00
O1076  O     0.85312   0.91772   0.60157   0.00000  Uiso   1.00
O1077  O     0.82128   0.91433   0.52681   0.00000  Uiso   1.00
O1078  O     0.76321   0.89423   0.61844   0.00000  Uiso   1.00
H1079  H     0.75712   0.86670   0.63485   0.00000  Uiso   1.00
Cl1080 Cl    0.86098   0.75226   0.86477   0.00000  Uiso   1.00
loop_
_geom_bond_atom_site_label_1
_geom_bond_atom_site_label_2
_geom_bond_distance
_geom_bond_site_symmetry_2
_ccdc_geom_bond_type
C1     C17     1.449   .     S
C1     O46     1.290   .     A
C1     O47     1.290   .     A
C2     C3      1.415   .     A
C2     C544    1.420   .     S
C2     C568    1.411   .     S
C3     C10     1.423   .     A
C3     C7      1.417   .     A
C4     C8      1.423   .     A
C4     C542    1.420   1_554 S
C4     C545    1.425   1_554 S
C5     C6      1.408   .     A
C5     C544    1.425   .     S
C5     C564    1.406   .     S
C6     C7      1.401   .     A
C6     Cl54    1.774   .     S
C7     Cl60    1.769   .     S
C8     C25     1.406   .     A
C8     S55     1.794   .     S
C9     C24     1.385   .     A
C9     C25     1.396   .     A
C9     H31     1.084   .     S
C10    C26     1.404   .     A
C10    C12     1.475   .     S
C11    H43     1.083   .     S
C11    C17     1.401   .     A
C11    C193    1.383   .     S
C12    O48     1.296   .     A
C12    O49     1.296   .     A
C13    C14     1.401   .     A
C13    H32     1.083   .     S
C13    C371    1.383   1_545 S
C14    C22     1.450   .     S
C14    C15     1.401   .     A
C15    H33     1.083   .     S
C15    C376    1.383   1_545 S
C16    H34     1.083   .     S
C16    C17     1.401   .     A
C16    C195    1.383   .     S
C18    H35     1.082   .     S
C18    N45     1.367   .     A
C18    C79     1.416   .     S
C19    H36     1.082   .     S
C19    N44     1.366   .     A
C19    C138    1.416   1_455 S
C20    H37     1.082   .     S
C20    N44     1.367   .     A
C20    C141    1.416   1_455 S
C21    N45     1.366   .     A
C21    H38     1.082   .     S
C21    C80     1.416   .     S
C22    O50     1.290   .     A
C22    O51     1.291   .     A
C23    O52     1.292   .     A
C23    O53     1.295   .     A
C23    C25     1.462   .     S
C24    H39     1.081   .     S
C24    C545    1.406   1_554 S
C26    C27     1.388   .     A
C26    H40     1.083   .     S
C27    C568    1.391   .     S
C27    H582    1.083   .     S
C28    H41     1.074   .     S
C28    C567    1.391   1_554 S
C28    C542    1.411   1_554 S
Cu29   O46     1.965   .     S
Cu29   Cu30    2.675   .     S
Cu29   O50     1.964   .     S
Cu29   N44     2.010   .     S
Cu29   O48     1.944   .     S
Cu29   O52     1.931   .     S
Cu30   N45     2.010   .     S
Cu30   O49     1.931   .     S
Cu30   O53     1.944   .     S
Cu30   O51     1.965   .     S
Cu30   O47     1.964   .     S
H42    C567    1.083   1_554 S
S55    O56     1.503   .     D
S55    O57     1.503   .     D
S55    O58     1.685   .     S
O58    H59     0.987   .     S
C61    C77     1.449   .     S
C61    O106    1.290   .     A
C61    O107    1.290   .     A
C62    C63     1.415   .     A
C62    C604    1.420   .     S
C62    C628    1.411   .     S
C63    C70     1.423   .     A
C63    C67     1.417   .     A
C64    C68     1.423   .     A
C64    C602    1.420   1_554 S
C64    C605    1.425   1_554 S
C65    C66     1.408   .     A
C65    C604    1.425   .     S
C65    C624    1.406   .     S
C66    C67     1.401   .     A
C66    Cl114   1.774   .     S
C67    Cl120   1.769   .     S
C68    C85     1.406   .     A
C68    S115    1.794   .     S
C69    C84     1.385   .     A
C69    C85     1.396   .     A
C69    H91     1.084   .     S
C70    C86     1.404   .     A
C70    C72     1.475   .     S
C71    H103    1.083   .     S
C71    C77     1.401   .     A
C71    C253    1.383   .     S
C72    O108    1.296   .     A
C72    O109    1.296   .     A
C73    C74     1.401   .     A
C73    H92     1.083   .     S
C73    C431    1.383   1_545 S
C74    C82     1.450   .     S
C74    C75     1.401   .     A
C75    H93     1.083   .     S
C75    C436    1.383   1_545 S
C76    H94     1.083   .     S
C76    C77     1.401   .     A
C76    C255    1.383   .     S
C78    H95     1.082   .     S
C78    N105    1.367   .     A
C78    C139    1.416   .     S
C79    H96     1.082   .     S
C79    N104    1.366   .     A
C80    H97     1.082   .     S
C80    N104    1.367   .     A
C81    N105    1.366   .     A
C81    H98     1.082   .     S
C81    C140    1.416   .     S
C82    O110    1.290   .     A
C82    O111    1.291   .     A
C83    O112    1.292   .     A
C83    O113    1.295   .     A
C83    C85     1.462   .     S
C84    H99     1.081   .     S
C84    C605    1.406   1_554 S
C86    C87     1.388   .     A
C86    H100    1.083   .     S
C87    C628    1.391   .     S
C87    H642    1.083   .     S
C88    H101    1.074   .     S
C88    C627    1.391   1_554 S
C88    C602    1.411   1_554 S
Cu89   O106    1.965   .     S
Cu89   Cu90    2.675   .     S
Cu89   O110    1.964   .     S
Cu89   N104    2.010   .     S
Cu89   O108    1.944   .     S
Cu89   O112    1.931   .     S
Cu90   N105    2.010   .     S
Cu90   O109    1.931   .     S
Cu90   O113    1.944   .     S
Cu90   O111    1.965   .     S
Cu90   O107    1.964   .     S
H102   C627    1.083   1_554 S
S115   O116    1.503   .     D
S115   O117    1.503   .     D
S115   O118    1.685   .     S
O118   H119    0.987   .     S
C121   C137    1.449   .     S
C121   O166    1.290   .     A
C121   O167    1.290   .     A
C122   C123    1.415   .     A
C122   C664    1.420   .     S
C122   C688    1.411   .     S
C123   C130    1.423   .     A
C123   C127    1.417   .     A
C124   C128    1.423   .     A
C124   C662    1.420   1_554 S
C124   C665    1.425   1_554 S
C125   C126    1.408   .     A
C125   C664    1.425   .     S
C125   C684    1.406   .     S
C126   C127    1.401   .     A
C126   Cl174   1.774   .     S
C127   Cl180   1.769   .     S
C128   C145    1.406   .     A
C128   S175    1.794   .     S
C129   C144    1.385   .     A
C129   C145    1.396   .     A
C129   H151    1.084   .     S
C130   C146    1.404   .     A
C130   C132    1.475   .     S
C131   H163    1.083   .     S
C131   C137    1.401   .     A
C131   C313    1.383   .     S
C132   O168    1.296   .     A
C132   O169    1.296   .     A
C133   C134    1.401   .     A
C133   H152    1.083   .     S
C133   C491    1.383   1_545 S
C134   C142    1.450   .     S
C134   C135    1.401   .     A
C135   H153    1.083   .     S
C135   C496    1.383   1_545 S
C136   H154    1.083   .     S
C136   C137    1.401   .     A
C136   C315    1.383   .     S
C138   H155    1.082   .     S
C138   N165    1.367   .     A
C138   C19     1.416   1_655 S
C139   H156    1.082   .     S
C139   N164    1.366   .     A
C140   H157    1.082   .     S
C140   N164    1.367   .     A
C141   N165    1.366   .     A
C141   H158    1.082   .     S
C141   C20     1.416   1_655 S
C142   O170    1.290   .     A
C142   O171    1.291   .     A
C143   O172    1.292   .     A
C143   O173    1.295   .     A
C143   C145    1.462   .     S
C144   H159    1.081   .     S
C144   C665    1.406   1_554 S
C146   C147    1.388   .     A
C146   H160    1.083   .     S
C147   C688    1.391   .     S
C147   H702    1.083   .     S
C148   H161    1.074   .     S
C148   C687    1.391   1_554 S
C148   C662    1.411   1_554 S
Cu149  O166    1.965   .     S
Cu149  Cu150   2.675   .     S
Cu149  O170    1.964   .     S
Cu149  N164    2.010   .     S
Cu149  O168    1.944   .     S
Cu149  O172    1.931   .     S
Cu150  N165    2.010   .     S
Cu150  O169    1.931   .     S
Cu150  O173    1.944   .     S
Cu150  O171    1.965   .     S
Cu150  O167    1.964   .     S
H162   C687    1.083   1_554 S
S175   O176    1.503   .     D
S175   O177    1.503   .     D
S175   O178    1.685   .     S
O178   H179    0.987   .     S
C181   C197    1.449   .     S
C181   O226    1.290   .     A
C181   O227    1.290   .     A
C182   C183    1.415   .     A
C182   C724    1.420   .     S
C182   C748    1.411   .     S
C183   C190    1.423   .     A
C183   C187    1.417   .     A
C184   C188    1.423   .     A
C184   C722    1.420   1_554 S
C184   C725    1.425   1_554 S
C185   C186    1.408   .     A
C185   C724    1.425   .     S
C185   C744    1.406   .     S
C186   C187    1.401   .     A
C186   Cl234   1.774   .     S
C187   Cl240   1.769   .     S
C188   C205    1.406   .     A
C188   S235    1.794   .     S
C189   C204    1.385   .     A
C189   C205    1.396   .     A
C189   H211    1.084   .     S
C190   C206    1.404   .     A
C190   C192    1.475   .     S
C191   H223    1.083   .     S
C191   C197    1.401   .     A
C191   C373    1.383   .     S
C192   O228    1.296   .     A
C192   O229    1.296   .     A
C193   C194    1.401   .     A
C193   H212    1.083   .     S
C194   C202    1.450   .     S
C194   C195    1.401   .     A
C195   H213    1.083   .     S
C196   H214    1.083   .     S
C196   C197    1.401   .     A
C196   C375    1.383   .     S
C198   H215    1.082   .     S
C198   N225    1.367   .     A
C198   C259    1.416   .     S
C199   H216    1.082   .     S
C199   N224    1.366   .     A
C199   C318    1.416   1_455 S
C200   H217    1.082   .     S
C200   N224    1.367   .     A
C200   C321    1.416   1_455 S
C201   N225    1.366   .     A
C201   H218    1.082   .     S
C201   C260    1.416   .     S
C202   O230    1.290   .     A
C202   O231    1.291   .     A
C203   O232    1.292   .     A
C203   O233    1.295   .     A
C203   C205    1.462   .     S
C204   H219    1.081   .     S
C204   C725    1.406   1_554 S
C206   C207    1.388   .     A
C206   H220    1.083   .     S
C207   C748    1.391   .     S
C207   H762    1.083   .     S
C208   H221    1.074   .     S
C208   C747    1.391   1_554 S
C208   C722    1.411   1_554 S
Cu209  O226    1.965   .     S
Cu209  Cu210   2.675   .     S
Cu209  O230    1.964   .     S
Cu209  N224    2.010   .     S
Cu209  O228    1.944   .     S
Cu209  O232    1.931   .     S
Cu210  N225    2.010   .     S
Cu210  O229    1.931   .     S
Cu210  O233    1.944   .     S
Cu210  O231    1.965   .     S
Cu210  O227    1.964   .     S
H222   C747    1.083   1_554 S
S235   O236    1.503   .     D
S235   O237    1.503   .     D
S235   O238    1.685   .     S
O238   H239    0.987   .     S
C241   C257    1.449   .     S
C241   O286    1.290   .     A
C241   O287    1.290   .     A
C242   C243    1.415   .     A
C242   C784    1.420   .     S
C242   C808    1.411   .     S
C243   C250    1.423   .     A
C243   C247    1.417   .     A
C244   C248    1.423   .     A
C244   C782    1.420   1_554 S
C244   C785    1.425   1_554 S
C245   C246    1.408   .     A
C245   C784    1.425   .     S
C245   C804    1.406   .     S
C246   C247    1.401   .     A
C246   Cl294   1.774   .     S
C247   Cl300   1.769   .     S
C248   C265    1.406   .     A
C248   S295    1.794   .     S
C249   C264    1.385   .     A
C249   C265    1.396   .     A
C249   H271    1.084   .     S
C250   C266    1.404   .     A
C250   C252    1.475   .     S
C251   H283    1.083   .     S
C251   C257    1.401   .     A
C251   C433    1.383   .     S
C252   O288    1.296   .     A
C252   O289    1.296   .     A
C253   C254    1.401   .     A
C253   H272    1.083   .     S
C254   C262    1.450   .     S
C254   C255    1.401   .     A
C255   H273    1.083   .     S
C256   H274    1.083   .     S
C256   C257    1.401   .     A
C256   C435    1.383   .     S
C258   H275    1.082   .     S
C258   N285    1.367   .     A
C258   C319    1.416   .     S
C259   H276    1.082   .     S
C259   N284    1.366   .     A
C260   H277    1.082   .     S
C260   N284    1.367   .     A
C261   N285    1.366   .     A
C261   H278    1.082   .     S
C261   C320    1.416   .     S
C262   O290    1.290   .     A
C262   O291    1.291   .     A
C263   O292    1.292   .     A
C263   O293    1.295   .     A
C263   C265    1.462   .     S
C264   H279    1.081   .     S
C264   C785    1.406   1_554 S
C266   C267    1.388   .     A
C266   H280    1.083   .     S
C267   C808    1.391   .     S
C267   H822    1.083   .     S
C268   H281    1.074   .     S
C268   C807    1.391   1_554 S
C268   C782    1.411   1_554 S
Cu269  O286    1.965   .     S
Cu269  Cu270   2.675   .     S
Cu269  O290    1.964   .     S
Cu269  N284    2.010   .     S
Cu269  O288    1.944   .     S
Cu269  O292    1.931   .     S
Cu270  N285    2.010   .     S
Cu270  O289    1.931   .     S
Cu270  O293    1.944   .     S
Cu270  O291    1.965   .     S
Cu270  O287    1.964   .     S
H282   C807    1.083   1_554 S
S295   O296    1.503   .     D
S295   O297    1.503   .     D
S295   O298    1.685   .     S
O298   H299    0.987   .     S
C301   C317    1.449   .     S
C301   O346    1.290   .     A
C301   O347    1.290   .     A
C302   C303    1.415   .     A
C302   C844    1.420   .     S
C302   C868    1.411   .     S
C303   C310    1.423   .     A
C303   C307    1.417   .     A
C304   C308    1.423   .     A
C304   C842    1.420   1_554 S
C304   C845    1.425   1_554 S
C305   C306    1.408   .     A
C305   C844    1.425   .     S
C305   C864    1.406   .     S
C306   C307    1.401   .     A
C306   Cl354   1.774   .     S
C307   Cl360   1.769   .     S
C308   C325    1.406   .     A
C308   S355    1.794   .     S
C309   C324    1.385   .     A
C309   C325    1.396   .     A
C309   H331    1.084   .     S
C310   C326    1.404   .     A
C310   C312    1.475   .     S
C311   H343    1.083   .     S
C311   C317    1.401   .     A
C311   C493    1.383   .     S
C312   O348    1.296   .     A
C312   O349    1.296   .     A
C313   C314    1.401   .     A
C313   H332    1.083   .     S
C314   C322    1.450   .     S
C314   C315    1.401   .     A
C315   H333    1.083   .     S
C316   H334    1.083   .     S
C316   C317    1.401   .     A
C316   C495    1.383   .     S
C318   H335    1.082   .     S
C318   N345    1.367   .     A
C318   C199    1.416   1_655 S
C319   H336    1.082   .     S
C319   N344    1.366   .     A
C320   H337    1.082   .     S
C320   N344    1.367   .     A
C321   N345    1.366   .     A
C321   H338    1.082   .     S
C321   C200    1.416   1_655 S
C322   O350    1.290   .     A
C322   O351    1.291   .     A
C323   O352    1.292   .     A
C323   O353    1.295   .     A
C323   C325    1.462   .     S
C324   H339    1.081   .     S
C324   C845    1.406   1_554 S
C326   C327    1.388   .     A
C326   H340    1.083   .     S
C327   C868    1.391   .     S
C327   H882    1.083   .     S
C328   H341    1.074   .     S
C328   C867    1.391   1_554 S
C328   C842    1.411   1_554 S
Cu329  O346    1.965   .     S
Cu329  Cu330   2.675   .     S
Cu329  O350    1.964   .     S
Cu329  N344    2.010   .     S
Cu329  O348    1.944   .     S
Cu329  O352    1.931   .     S
Cu330  N345    2.010   .     S
Cu330  O349    1.931   .     S
Cu330  O353    1.944   .     S
Cu330  O351    1.965   .     S
Cu330  O347    1.964   .     S
H342   C867    1.083   1_554 S
S355   O356    1.503   .     D
S355   O357    1.503   .     D
S355   O358    1.685   .     S
O358   H359    0.987   .     S
C361   C377    1.449   .     S
C361   O406    1.290   .     A
C361   O407    1.290   .     A
C362   C363    1.415   .     A
C362   C904    1.420   .     S
C362   C928    1.411   .     S
C363   C370    1.423   .     A
C363   C367    1.417   .     A
C364   C368    1.423   .     A
C364   C902    1.420   1_554 S
C364   C905    1.425   1_554 S
C365   C366    1.408   .     A
C365   C904    1.425   .     S
C365   C924    1.406   .     S
C366   C367    1.401   .     A
C366   Cl414   1.774   .     S
C367   Cl420   1.769   .     S
C368   C385    1.406   .     A
C368   S415    1.794   .     S
C369   C384    1.385   .     A
C369   C385    1.396   .     A
C369   H391    1.084   .     S
C370   C386    1.404   .     A
C370   C372    1.475   .     S
C371   H403    1.083   .     S
C371   C377    1.401   .     A
C371   C13     1.383   1_565 S
C372   O408    1.296   .     A
C372   O409    1.296   .     A
C373   C374    1.401   .     A
C373   H392    1.083   .     S
C374   C382    1.450   .     S
C374   C375    1.401   .     A
C375   H393    1.083   .     S
C376   H394    1.083   .     S
C376   C377    1.401   .     A
C376   C15     1.383   1_565 S
C378   H395    1.082   .     S
C378   N405    1.367   .     A
C378   C439    1.416   .     S
C379   H396    1.082   .     S
C379   N404    1.366   .     A
C379   C498    1.416   1_455 S
C380   H397    1.082   .     S
C380   N404    1.367   .     A
C380   C501    1.416   1_455 S
C381   N405    1.366   .     A
C381   H398    1.082   .     S
C381   C440    1.416   .     S
C382   O410    1.290   .     A
C382   O411    1.291   .     A
C383   O412    1.292   .     A
C383   O413    1.295   .     A
C383   C385    1.462   .     S
C384   H399    1.081   .     S
C384   C905    1.406   1_554 S
C386   C387    1.388   .     A
C386   H400    1.083   .     S
C387   C928    1.391   .     S
C387   H942    1.083   .     S
C388   H401    1.074   .     S
C388   C927    1.391   1_554 S
C388   C902    1.411   1_554 S
Cu389  O406    1.965   .     S
Cu389  Cu390   2.675   .     S
Cu389  O410    1.964   .     S
Cu389  N404    2.010   .     S
Cu389  O408    1.944   .     S
Cu389  O412    1.931   .     S
Cu390  N405    2.010   .     S
Cu390  O409    1.931   .     S
Cu390  O413    1.944   .     S
Cu390  O411    1.965   .     S
Cu390  O407    1.964   .     S
H402   C927    1.083   1_554 S
S415   O416    1.503   .     D
S415   O417    1.503   .     D
S415   O418    1.685   .     S
O418   H419    0.987   .     S
C421   C437    1.449   .     S
C421   O466    1.290   .     A
C421   O467    1.290   .     A
C422   C423    1.415   .     A
C422   C964    1.420   .     S
C422   C988    1.411   .     S
C423   C430    1.423   .     A
C423   C427    1.417   .     A
C424   C428    1.423   .     A
C424   C962    1.420   1_554 S
C424   C965    1.425   1_554 S
C425   C426    1.408   .     A
C425   C964    1.425   .     S
C425   C984    1.406   .     S
C426   C427    1.401   .     A
C426   Cl474   1.774   .     S
C427   Cl480   1.769   .     S
C428   C445    1.406   .     A
C428   S475    1.794   .     S
C429   C444    1.385   .     A
C429   C445    1.396   .     A
C429   H451    1.084   .     S
C430   C446    1.404   .     A
C430   C432    1.475   .     S
C431   H463    1.083   .     S
C431   C437    1.401   .     A
C431   C73     1.383   1_565 S
C432   O468    1.296   .     A
C432   O469    1.296   .     A
C433   C434    1.401   .     A
C433   H452    1.083   .     S
C434   C442    1.450   .     S
C434   C435    1.401   .     A
C435   H453    1.083   .     S
C436   H454    1.083   .     S
C436   C437    1.401   .     A
C436   C75     1.383   1_565 S
C438   H455    1.082   .     S
C438   N465    1.367   .     A
C438   C499    1.416   .     S
C439   H456    1.082   .     S
C439   N464    1.366   .     A
C440   H457    1.082   .     S
C440   N464    1.367   .     A
C441   N465    1.366   .     A
C441   H458    1.082   .     S
C441   C500    1.416   .     S
C442   O470    1.290   .     A
C442   O471    1.291   .     A
C443   O472    1.292   .     A
C443   O473    1.295   .     A
C443   C445    1.462   .     S
C444   H459    1.081   .     S
C444   C965    1.406   1_554 S
C446   C447    1.388   .     A
C446   H460    1.083   .     S
C447   C988    1.391   .     S
C447   H1002   1.083   .     S
C448   H461    1.074   .     S
C448   C987    1.391   1_554 S
C448   C962    1.411   1_554 S
Cu449  O466    1.965   .     S
Cu449  Cu450   2.675   .     S
Cu449  O470    1.964   .     S
Cu449  N464    2.010   .     S
Cu449  O468    1.944   .     S
Cu449  O472    1.931   .     S
Cu450  N465    2.010   .     S
Cu450  O469    1.931   .     S
Cu450  O473    1.944   .     S
Cu450  O471    1.965   .     S
Cu450  O467    1.964   .     S
H462   C987    1.083   1_554 S
S475   O476    1.503   .     D
S475   O477    1.503   .     D
S475   O478    1.685   .     S
O478   H479    0.987   .     S
C481   C497    1.449   .     S
C481   O526    1.290   .     A
C481   O527    1.290   .     A
C482   C483    1.415   .     A
C482   C1024   1.420   .     S
C482   C1048   1.411   .     S
C483   C490    1.423   .     A
C483   C487    1.417   .     A
C484   C488    1.423   .     A
C484   C1022   1.420   1_554 S
C484   C1025   1.425   1_554 S
C485   C486    1.408   .     A
C485   C1024   1.425   .     S
C485   C1044   1.406   .     S
C486   C487    1.401   .     A
C486   Cl534   1.774   .     S
C487   Cl540   1.769   .     S
C488   C505    1.406   .     A
C488   S535    1.794   .     S
C489   C504    1.385   .     A
C489   C505    1.396   .     A
C489   H511    1.084   .     S
C490   C506    1.404   .     A
C490   C492    1.475   .     S
C491   H523    1.083   .     S
C491   C497    1.401   .     A
C491   C133    1.383   1_565 S
C492   O528    1.296   .     A
C492   O529    1.296   .     A
C493   C494    1.401   .     A
C493   H512    1.083   .     S
C494   C502    1.450   .     S
C494   C495    1.401   .     A
C495   H513    1.083   .     S
C496   H514    1.083   .     S
C496   C497    1.401   .     A
C496   C135    1.383   1_565 S
C498   H515    1.082   .     S
C498   N525    1.367   .     A
C498   C379    1.416   1_655 S
C499   H516    1.082   .     S
C499   N524    1.366   .     A
C500   H517    1.082   .     S
C500   N524    1.367   .     A
C501   N525    1.366   .     A
C501   H518    1.082   .     S
C501   C380    1.416   1_655 S
C502   O530    1.290   .     A
C502   O531    1.291   .     A
C503   O532    1.292   .     A
C503   O533    1.295   .     A
C503   C505    1.462   .     S
C504   H519    1.081   .     S
C504   C1025   1.406   1_554 S
C506   C507    1.388   .     A
C506   H520    1.083   .     S
C507   C1048   1.391   .     S
C507   H1062   1.083   .     S
C508   H521    1.074   .     S
C508   C1047   1.391   1_554 S
C508   C1022   1.411   1_554 S
Cu509  O526    1.965   .     S
Cu509  Cu510   2.675   .     S
Cu509  O530    1.964   .     S
Cu509  N524    2.010   .     S
Cu509  O528    1.944   .     S
Cu509  O532    1.931   .     S
Cu510  N525    2.010   .     S
Cu510  O529    1.931   .     S
Cu510  O533    1.944   .     S
Cu510  O531    1.965   .     S
Cu510  O527    1.964   .     S
H522   C1047   1.083   1_554 S
S535   O536    1.503   .     D
S535   O537    1.503   .     D
S535   O538    1.685   .     S
O538   H539    0.987   .     S
C541   C557    1.449   .     S
C541   O586    1.290   .     A
C541   O587    1.290   .     A
C542   C543    1.415   .     A
C542   C4      1.420   1_556 S
C542   C28     1.411   1_556 S
C543   C550    1.423   .     A
C543   C547    1.417   .     A
C544   C548    1.423   .     A
C545   C546    1.408   .     A
C545   C4      1.425   1_556 S
C545   C24     1.406   1_556 S
C546   C547    1.401   .     A
C546   Cl594   1.774   .     S
C547   Cl600   1.769   .     S
C548   C565    1.406   .     A
C548   S595    1.794   .     S
C549   C564    1.385   .     A
C549   C565    1.396   .     A
C549   H571    1.084   .     S
C550   C566    1.404   .     A
C550   C552    1.475   .     S
C551   H583    1.083   .     S
C551   C557    1.401   .     A
C551   C733    1.383   .     S
C552   O588    1.296   .     A
C552   O589    1.296   .     A
C553   C554    1.401   .     A
C553   H572    1.083   .     S
C553   C911    1.383   1_545 S
C554   C562    1.450   .     S
C554   C555    1.401   .     A
C555   H573    1.083   .     S
C555   C916    1.383   1_545 S
C556   H574    1.083   .     S
C556   C557    1.401   .     A
C556   C735    1.383   .     S
C558   H575    1.082   .     S
C558   N585    1.367   .     A
C558   C619    1.416   .     S
C559   H576    1.082   .     S
C559   N584    1.366   .     A
C559   C678    1.416   1_455 S
C560   H577    1.082   .     S
C560   N584    1.367   .     A
C560   C681    1.416   1_455 S
C561   N585    1.366   .     A
C561   H578    1.082   .     S
C561   C620    1.416   .     S
C562   O590    1.290   .     A
C562   O591    1.291   .     A
C563   O592    1.292   .     A
C563   O593    1.295   .     A
C563   C565    1.462   .     S
C564   H579    1.081   .     S
C566   C567    1.388   .     A
C566   H580    1.083   .     S
C567   C28     1.391   1_556 S
C567   H42     1.083   1_556 S
C568   H581    1.074   .     S
Cu569  O586    1.965   .     S
Cu569  Cu570   2.675   .     S
Cu569  O590    1.964   .     S
Cu569  N584    2.010   .     S
Cu569  O588    1.944   .     S
Cu569  O592    1.931   .     S
Cu570  N585    2.010   .     S
Cu570  O589    1.931   .     S
Cu570  O593    1.944   .     S
Cu570  O591    1.965   .     S
Cu570  O587    1.964   .     S
S595   O596    1.503   .     D
S595   O597    1.503   .     D
S595   O598    1.685   .     S
O598   H599    0.987   .     S
C601   C617    1.449   .     S
C601   O646    1.290   .     A
C601   O647    1.290   .     A
C602   C603    1.415   .     A
C602   C64     1.420   1_556 S
C602   C88     1.411   1_556 S
C603   C610    1.423   .     A
C603   C607    1.417   .     A
C604   C608    1.423   .     A
C605   C606    1.408   .     A
C605   C64     1.425   1_556 S
C605   C84     1.406   1_556 S
C606   C607    1.401   .     A
C606   Cl654   1.774   .     S
C607   Cl660   1.769   .     S
C608   C625    1.406   .     A
C608   S655    1.794   .     S
C609   C624    1.385   .     A
C609   C625    1.396   .     A
C609   H631    1.084   .     S
C610   C626    1.404   .     A
C610   C612    1.475   .     S
C611   H643    1.083   .     S
C611   C617    1.401   .     A
C611   C793    1.383   .     S
C612   O648    1.296   .     A
C612   O649    1.296   .     A
C613   C614    1.401   .     A
C613   H632    1.083   .     S
C613   C971    1.383   1_545 S
C614   C622    1.450   .     S
C614   C615    1.401   .     A
C615   H633    1.083   .     S
C615   C976    1.383   1_545 S
C616   H634    1.083   .     S
C616   C617    1.401   .     A
C616   C795    1.383   .     S
C618   H635    1.082   .     S
C618   N645    1.367   .     A
C618   C679    1.416   .     S
C619   H636    1.082   .     S
C619   N644    1.366   .     A
C620   H637    1.082   .     S
C620   N644    1.367   .     A
C621   N645    1.366   .     A
C621   H638    1.082   .     S
C621   C680    1.416   .     S
C622   O650    1.290   .     A
C622   O651    1.291   .     A
C623   O652    1.292   .     A
C623   O653    1.295   .     A
C623   C625    1.462   .     S
C624   H639    1.081   .     S
C626   C627    1.388   .     A
C626   H640    1.083   .     S
C627   C88     1.391   1_556 S
C627   H102    1.083   1_556 S
C628   H641    1.074   .     S
Cu629  O646    1.965   .     S
Cu629  Cu630   2.675   .     S
Cu629  O650    1.964   .     S
Cu629  N644    2.010   .     S
Cu629  O648    1.944   .     S
Cu629  O652    1.931   .     S
Cu630  N645    2.010   .     S
Cu630  O649    1.931   .     S
Cu630  O653    1.944   .     S
Cu630  O651    1.965   .     S
Cu630  O647    1.964   .     S
S655   O656    1.503   .     D
S655   O657    1.503   .     D
S655   O658    1.685   .     S
O658   H659    0.987   .     S
C661   C677    1.449   .     S
C661   O706    1.290   .     A
C661   O707    1.290   .     A
C662   C663    1.415   .     A
C662   C124    1.420   1_556 S
C662   C148    1.411   1_556 S
C663   C670    1.423   .     A
C663   C667    1.417   .     A
C664   C668    1.423   .     A
C665   C666    1.408   .     A
C665   C124    1.425   1_556 S
C665   C144    1.406   1_556 S
C666   C667    1.401   .     A
C666   Cl714   1.774   .     S
C667   Cl720   1.769   .     S
C668   C685    1.406   .     A
C668   S715    1.794   .     S
C669   C684    1.385   .     A
C669   C685    1.396   .     A
C669   H691    1.084   .     S
C670   C686    1.404   .     A
C670   C672    1.475   .     S
C671   H703    1.083   .     S
C671   C677    1.401   .     A
C671   C853    1.383   .     S
C672   O708    1.296   .     A
C672   O709    1.296   .     A
C673   C674    1.401   .     A
C673   H692    1.083   .     S
C673   C1031   1.383   1_545 S
C674   C682    1.450   .     S
C674   C675    1.401   .     A
C675   H693    1.083   .     S
C675   C1036   1.383   1_545 S
C676   H694    1.083   .     S
C676   C677    1.401   .     A
C676   C855    1.383   .     S
C678   H695    1.082   .     S
C678   N705    1.367   .     A
C678   C559    1.416   1_655 S
C679   H696    1.082   .     S
C679   N704    1.366   .     A
C680   H697    1.082   .     S
C680   N704    1.367   .     A
C681   N705    1.366   .     A
C681   H698    1.082   .     S
C681   C560    1.416   1_655 S
C682   O710    1.290   .     A
C682   O711    1.291   .     A
C683   O712    1.292   .     A
C683   O713    1.295   .     A
C683   C685    1.462   .     S
C684   H699    1.081   .     S
C686   C687    1.388   .     A
C686   H700    1.083   .     S
C687   C148    1.391   1_556 S
C687   H162    1.083   1_556 S
C688   H701    1.074   .     S
Cu689  O706    1.965   .     S
Cu689  Cu690   2.675   .     S
Cu689  O710    1.964   .     S
Cu689  N704    2.010   .     S
Cu689  O708    1.944   .     S
Cu689  O712    1.931   .     S
Cu690  N705    2.010   .     S
Cu690  O709    1.931   .     S
Cu690  O713    1.944   .     S
Cu690  O711    1.965   .     S
Cu690  O707    1.964   .     S
S715   O716    1.503   .     D
S715   O717    1.503   .     D
S715   O718    1.685   .     S
O718   H719    0.987   .     S
C721   C737    1.449   .     S
C721   O766    1.290   .     A
C721   O767    1.290   .     A
C722   C723    1.415   .     A
C722   C184    1.420   1_556 S
C722   C208    1.411   1_556 S
C723   C730    1.423   .     A
C723   C727    1.417   .     A
C724   C728    1.423   .     A
C725   C726    1.408   .     A
C725   C184    1.425   1_556 S
C725   C204    1.406   1_556 S
C726   C727    1.401   .     A
C726   Cl774   1.774   .     S
C727   Cl780   1.769   .     S
C728   C745    1.406   .     A
C728   S775    1.794   .     S
C729   C744    1.385   .     A
C729   C745    1.396   .     A
C729   H751    1.084   .     S
C730   C746    1.404   .     A
C730   C732    1.475   .     S
C731   H763    1.083   .     S
C731   C737    1.401   .     A
C731   C913    1.383   .     S
C732   O768    1.296   .     A
C732   O769    1.296   .     A
C733   C734    1.401   .     A
C733   H752    1.083   .     S
C734   C742    1.450   .     S
C734   C735    1.401   .     A
C735   H753    1.083   .     S
C736   H754    1.083   .     S
C736   C737    1.401   .     A
C736   C915    1.383   .     S
C738   H755    1.082   .     S
C738   N765    1.367   .     A
C738   C799    1.416   .     S
C739   H756    1.082   .     S
C739   N764    1.366   .     A
C739   C858    1.416   1_455 S
C740   H757    1.082   .     S
C740   N764    1.367   .     A
C740   C861    1.416   1_455 S
C741   N765    1.366   .     A
C741   H758    1.082   .     S
C741   C800    1.416   .     S
C742   O770    1.290   .     A
C742   O771    1.291   .     A
C743   O772    1.292   .     A
C743   O773    1.295   .     A
C743   C745    1.462   .     S
C744   H759    1.081   .     S
C746   C747    1.388   .     A
C746   H760    1.083   .     S
C747   C208    1.391   1_556 S
C747   H222    1.083   1_556 S
C748   H761    1.074   .     S
Cu749  O766    1.965   .     S
Cu749  Cu750   2.675   .     S
Cu749  O770    1.964   .     S
Cu749  N764    2.010   .     S
Cu749  O768    1.944   .     S
Cu749  O772    1.931   .     S
Cu750  N765    2.010   .     S
Cu750  O769    1.931   .     S
Cu750  O773    1.944   .     S
Cu750  O771    1.965   .     S
Cu750  O767    1.964   .     S
S775   O776    1.503   .     D
S775   O777    1.503   .     D
S775   O778    1.685   .     S
O778   H779    0.987   .     S
C781   C797    1.449   .     S
C781   O826    1.290   .     A
C781   O827    1.290   .     A
C782   C783    1.415   .     A
C782   C244    1.420   1_556 S
C782   C268    1.411   1_556 S
C783   C790    1.423   .     A
C783   C787    1.417   .     A
C784   C788    1.423   .     A
C785   C786    1.408   .     A
C785   C244    1.425   1_556 S
C785   C264    1.406   1_556 S
C786   C787    1.401   .     A
C786   Cl834   1.774   .     S
C787   Cl840   1.769   .     S
C788   C805    1.406   .     A
C788   S835    1.794   .     S
C789   C804    1.385   .     A
C789   C805    1.396   .     A
C789   H811    1.084   .     S
C790   C806    1.404   .     A
C790   C792    1.475   .     S
C791   H823    1.083   .     S
C791   C797    1.401   .     A
C791   C973    1.383   .     S
C792   O828    1.296   .     A
C792   O829    1.296   .     A
C793   C794    1.401   .     A
C793   H812    1.083   .     S
C794   C802    1.450   .     S
C794   C795    1.401   .     A
C795   H813    1.083   .     S
C796   H814    1.083   .     S
C796   C797    1.401   .     A
C796   C975    1.383   .     S
C798   H815    1.082   .     S
C798   N825    1.367   .     A
C798   C859    1.416   .     S
C799   H816    1.082   .     S
C799   N824    1.366   .     A
C800   H817    1.082   .     S
C800   N824    1.367   .     A
C801   N825    1.366   .     A
C801   H818    1.082   .     S
C801   C860    1.416   .     S
C802   O830    1.290   .     A
C802   O831    1.291   .     A
C803   O832    1.292   .     A
C803   O833    1.295   .     A
C803   C805    1.462   .     S
C804   H819    1.081   .     S
C806   C807    1.388   .     A
C806   H820    1.083   .     S
C807   C268    1.391   1_556 S
C807   H282    1.083   1_556 S
C808   H821    1.074   .     S
Cu809  O826    1.965   .     S
Cu809  Cu810   2.675   .     S
Cu809  O830    1.964   .     S
Cu809  N824    2.010   .     S
Cu809  O828    1.944   .     S
Cu809  O832    1.931   .     S
Cu810  N825    2.010   .     S
Cu810  O829    1.931   .     S
Cu810  O833    1.944   .     S
Cu810  O831    1.965   .     S
Cu810  O827    1.964   .     S
S835   O836    1.503   .     D
S835   O837    1.503   .     D
S835   O838    1.685   .     S
O838   H839    0.987   .     S
C841   C857    1.449   .     S
C841   O886    1.290   .     A
C841   O887    1.290   .     A
C842   C843    1.415   .     A
C842   C304    1.420   1_556 S
C842   C328    1.411   1_556 S
C843   C850    1.423   .     A
C843   C847    1.417   .     A
C844   C848    1.423   .     A
C845   C846    1.408   .     A
C845   C304    1.425   1_556 S
C845   C324    1.406   1_556 S
C846   C847    1.401   .     A
C846   Cl894   1.774   .     S
C847   Cl900   1.769   .     S
C848   C865    1.406   .     A
C848   S895    1.794   .     S
C849   C864    1.385   .     A
C849   C865    1.396   .     A
C849   H871    1.084   .     S
C850   C866    1.404   .     A
C850   C852    1.475   .     S
C851   H883    1.083   .     S
C851   C857    1.401   .     A
C851   C1033   1.383   .     S
C852   O888    1.296   .     A
C852   O889    1.296   .     A
C853   C854    1.401   .     A
C853   H872    1.083   .     S
C854   C862    1.450   .     S
C854   C855    1.401   .     A
C855   H873    1.083   .     S
C856   H874    1.083   .     S
C856   C857    1.401   .     A
C856   C1035   1.383   .     S
C858   H875    1.082   .     S
C858   N885    1.367   .     A
C858   C739    1.416   1_655 S
C859   H876    1.082   .     S
C859   N884    1.366   .     A
C860   H877    1.082   .     S
C860   N884    1.367   .     A
C861   N885    1.366   .     A
C861   H878    1.082   .     S
C861   C740    1.416   1_655 S
C862   O890    1.290   .     A
C862   O891    1.291   .     A
C863   O892    1.292   .     A
C863   O893    1.295   .     A
C863   C865    1.462   .     S
C864   H879    1.081   .     S
C866   C867    1.388   .     A
C866   H880    1.083   .     S
C867   C328    1.391   1_556 S
C867   H342    1.083   1_556 S
C868   H881    1.074   .     S
Cu869  O886    1.965   .     S
Cu869  Cu870   2.675   .     S
Cu869  O890    1.964   .     S
Cu869  N884    2.010   .     S
Cu869  O888    1.944   .     S
Cu869  O892    1.931   .     S
Cu870  N885    2.010   .     S
Cu870  O889    1.931   .     S
Cu870  O893    1.944   .     S
Cu870  O891    1.965   .     S
Cu870  O887    1.964   .     S
S895   O896    1.503   .     D
S895   O897    1.503   .     D
S895   O898    1.685   .     S
O898   H899    0.987   .     S
C901   C917    1.449   .     S
C901   O946    1.290   .     A
C901   O947    1.290   .     A
C902   C903    1.415   .     A
C902   C364    1.420   1_556 S
C902   C388    1.411   1_556 S
C903   C910    1.423   .     A
C903   C907    1.417   .     A
C904   C908    1.423   .     A
C905   C906    1.408   .     A
C905   C364    1.425   1_556 S
C905   C384    1.406   1_556 S
C906   C907    1.401   .     A
C906   Cl954   1.774   .     S
C907   Cl960   1.769   .     S
C908   C925    1.406   .     A
C908   S955    1.794   .     S
C909   C924    1.385   .     A
C909   C925    1.396   .     A
C909   H931    1.084   .     S
C910   C926    1.404   .     A
C910   C912    1.475   .     S
C911   H943    1.083   .     S
C911   C917    1.401   .     A
C911   C553    1.383   1_565 S
C912   O948    1.296   .     A
C912   O949    1.296   .     A
C913   C914    1.401   .     A
C913   H932    1.083   .     S
C914   C922    1.450   .     S
C914   C915    1.401   .     A
C915   H933    1.083   .     S
C916   H934    1.083   .     S
C916   C917    1.401   .     A
C916   C555    1.383   1_565 S
C918   H935    1.082   .     S
C918   N945    1.367   .     A
C918   C979    1.416   .     S
C919   H936    1.082   .     S
C919   N944    1.366   .     A
C919   C1038   1.416   1_455 S
C920   H937    1.082   .     S
C920   N944    1.367   .     A
C920   C1041   1.416   1_455 S
C921   N945    1.366   .     A
C921   H938    1.082   .     S
C921   C980    1.416   .     S
C922   O950    1.290   .     A
C922   O951    1.291   .     A
C923   O952    1.292   .     A
C923   O953    1.295   .     A
C923   C925    1.462   .     S
C924   H939    1.081   .     S
C926   C927    1.388   .     A
C926   H940    1.083   .     S
C927   C388    1.391   1_556 S
C927   H402    1.083   1_556 S
C928   H941    1.074   .     S
Cu929  O946    1.965   .     S
Cu929  Cu930   2.675   .     S
Cu929  O950    1.964   .     S
Cu929  N944    2.010   .     S
Cu929  O948    1.944   .     S
Cu929  O952    1.931   .     S
Cu930  N945    2.010   .     S
Cu930  O949    1.931   .     S
Cu930  O953    1.944   .     S
Cu930  O951    1.965   .     S
Cu930  O947    1.964   .     S
S955   O956    1.503   .     D
S955   O957    1.503   .     D
S955   O958    1.685   .     S
O958   H959    0.987   .     S
C961   C977    1.449   .     S
C961   O1006   1.290   .     A
C961   O1007   1.290   .     A
C962   C963    1.415   .     A
C962   C424    1.420   1_556 S
C962   C448    1.411   1_556 S
C963   C970    1.423   .     A
C963   C967    1.417   .     A
C964   C968    1.423   .     A
C965   C966    1.408   .     A
C965   C424    1.425   1_556 S
C965   C444    1.406   1_556 S
C966   C967    1.401   .     A
C966   Cl1014  1.774   .     S
C967   Cl1020  1.769   .     S
C968   C985    1.406   .     A
C968   S1015   1.794   .     S
C969   C984    1.385   .     A
C969   C985    1.396   .     A
C969   H991    1.084   .     S
C970   C986    1.404   .     A
C970   C972    1.475   .     S
C971   H1003   1.083   .     S
C971   C977    1.401   .     A
C971   C613    1.383   1_565 S
C972   O1008   1.296   .     A
C972   O1009   1.296   .     A
C973   C974    1.401   .     A
C973   H992    1.083   .     S
C974   C982    1.450   .     S
C974   C975    1.401   .     A
C975   H993    1.083   .     S
C976   H994    1.083   .     S
C976   C977    1.401   .     A
C976   C615    1.383   1_565 S
C978   H995    1.082   .     S
C978   N1005   1.367   .     A
C978   C1039   1.416   .     S
C979   H996    1.082   .     S
C979   N1004   1.366   .     A
C980   H997    1.082   .     S
C980   N1004   1.367   .     A
C981   N1005   1.366   .     A
C981   H998    1.082   .     S
C981   C1040   1.416   .     S
C982   O1010   1.290   .     A
C982   O1011   1.291   .     A
C983   O1012   1.292   .     A
C983   O1013   1.295   .     A
C983   C985    1.462   .     S
C984   H999    1.081   .     S
C986   C987    1.388   .     A
C986   H1000   1.083   .     S
C987   C448    1.391   1_556 S
C987   H462    1.083   1_556 S
C988   H1001   1.074   .     S
Cu989  O1006   1.965   .     S
Cu989  Cu990   2.675   .     S
Cu989  O1010   1.964   .     S
Cu989  N1004   2.010   .     S
Cu989  O1008   1.944   .     S
Cu989  O1012   1.931   .     S
Cu990  N1005   2.010   .     S
Cu990  O1009   1.931   .     S
Cu990  O1013   1.944   .     S
Cu990  O1011   1.965   .     S
Cu990  O1007   1.964   .     S
S1015  O1016   1.503   .     D
S1015  O1017   1.503   .     D
S1015  O1018   1.685   .     S
O1018  H1019   0.987   .     S
C1021  C1037   1.449   .     S
C1021  O1066   1.290   .     A
C1021  O1067   1.290   .     A
C1022  C1023   1.415   .     A
C1022  C484    1.420   1_556 S
C1022  C508    1.411   1_556 S
C1023  C1030   1.423   .     A
C1023  C1027   1.417   .     A
C1024  C1028   1.423   .     A
C1025  C1026   1.408   .     A
C1025  C484    1.425   1_556 S
C1025  C504    1.406   1_556 S
C1026  C1027   1.401   .     A
C1026  Cl1074  1.774   .     S
C1027  Cl1080  1.769   .     S
C1028  C1045   1.406   .     A
C1028  S1075   1.794   .     S
C1029  C1044   1.385   .     A
C1029  C1045   1.396   .     A
C1029  H1051   1.084   .     S
C1030  C1046   1.404   .     A
C1030  C1032   1.475   .     S
C1031  H1063   1.083   .     S
C1031  C1037   1.401   .     A
C1031  C673    1.383   1_565 S
C1032  O1068   1.296   .     A
C1032  O1069   1.296   .     A
C1033  C1034   1.401   .     A
C1033  H1052   1.083   .     S
C1034  C1042   1.450   .     S
C1034  C1035   1.401   .     A
C1035  H1053   1.083   .     S
C1036  H1054   1.083   .     S
C1036  C1037   1.401   .     A
C1036  C675    1.383   1_565 S
C1038  H1055   1.082   .     S
C1038  N1065   1.367   .     A
C1038  C919    1.416   1_655 S
C1039  H1056   1.082   .     S
C1039  N1064   1.366   .     A
C1040  H1057   1.082   .     S
C1040  N1064   1.367   .     A
C1041  N1065   1.366   .     A
C1041  H1058   1.082   .     S
C1041  C920    1.416   1_655 S
C1042  O1070   1.290   .     A
C1042  O1071   1.291   .     A
C1043  O1072   1.292   .     A
C1043  O1073   1.295   .     A
C1043  C1045   1.462   .     S
C1044  H1059   1.081   .     S
C1046  C1047   1.388   .     A
C1046  H1060   1.083   .     S
C1047  C508    1.391   1_556 S
C1047  H522    1.083   1_556 S
C1048  H1061   1.074   .     S
Cu1049 O1066   1.965   .     S
Cu1049 Cu1050  2.675   .     S
Cu1049 O1070   1.964   .     S
Cu1049 N1064   2.010   .     S
Cu1049 O1068   1.944   .     S
Cu1049 O1072   1.931   .     S
Cu1050 N1065   2.010   .     S
Cu1050 O1069   1.931   .     S
Cu1050 O1073   1.944   .     S
Cu1050 O1071   1.965   .     S
Cu1050 O1067   1.964   .     S
S1075  O1076   1.503   .     D
S1075  O1077   1.503   .     D
S1075  O1078   1.685   .     S
O1078  H1079   0.987   .     S
