data_str_m2_o1_o17_pcu_sym.65
_audit_creation_date              2020-01-03
_audit_creation_method            'Materials Studio'
_symmetry_space_group_name_H-M    'P1'
_symmetry_Int_Tables_number       1
_symmetry_cell_setting            triclinic
loop_
_symmetry_equiv_pos_as_xyz
  x,y,z
_cell_length_a                    32.4557
_cell_length_b                    28.5729
_cell_length_c                    30.0694
_cell_angle_alpha                 89.9634
_cell_angle_beta                  90.1330
_cell_angle_gamma                 89.9518
loop_
_atom_site_label
_atom_site_type_symbol
_atom_site_fract_x
_atom_site_fract_y
_atom_site_fract_z
_atom_site_U_iso_or_equiv
_atom_site_adp_type
_atom_site_occupancy
O1     O     0.10655   0.20625   0.24999   0.00000  Uiso   1.00
O2     O     0.22679   0.12709   0.25000   0.00000  Uiso   1.00
O3     O     0.22679   0.20625   0.25000   0.00000  Uiso   1.00
O4     O     0.10655   0.12709   0.24999   0.00000  Uiso   1.00
C5     C     0.08736   0.16668   0.24979   0.00000  Uiso   1.00
C6     C     0.24597   0.16665   0.25021   0.00000  Uiso   1.00
O7     O     0.16666   0.20627   0.18513   0.00000  Uiso   1.00
O8     O     0.16668   0.12707   0.31487   0.00000  Uiso   1.00
O9     O     0.16668   0.20627   0.31487   0.00000  Uiso   1.00
O10    O     0.16666   0.12707   0.18513   0.00000  Uiso   1.00
C11    C     0.16710   0.16668   0.16456   0.00000  Uiso   1.00
C12    C     0.16624   0.16665   0.33544   0.00000  Uiso   1.00
Cu13   Cu    0.16667   0.21355   0.25000   0.00000  Uiso   1.00
Cu14   Cu    0.16667   0.11978   0.25000   0.00000  Uiso   1.00
C15    C     0.20175   0.17293   0.40598   0.00000  Uiso   1.00
C16    C     0.13158   0.16041   0.09402   0.00000  Uiso   1.00
C17    C     0.16470   0.16661   0.38353   0.00000  Uiso   1.00
C18    C     0.16864   0.16672   0.11647   0.00000  Uiso   1.00
C19    C     0.12737   0.16034   0.40663   0.00000  Uiso   1.00
C20    C     0.20596   0.17299   0.09337   0.00000  Uiso   1.00
C21    C     0.12822   0.16039   0.45371   0.00000  Uiso   1.00
C22    C     0.20511   0.17295   0.04629   0.00000  Uiso   1.00
C23    C     0.16622   0.16666   0.47652   0.00000  Uiso   1.00
C24    C     0.16711   0.16667   0.02348   0.00000  Uiso   1.00
C25    C     0.20330   0.17294   0.45240   0.00000  Uiso   1.00
C26    C     0.13004   0.16040   0.04760   0.00000  Uiso   1.00
C27    C     0.09187   0.15435   0.47845   0.00000  Uiso   1.00
C28    C     0.24146   0.17899   0.02155   0.00000  Uiso   1.00
C29    C     0.09225   0.15432   0.02484   0.00000  Uiso   1.00
C30    C     0.24108   0.17901   0.47516   0.00000  Uiso   1.00
C31    C     0.02134   0.12414   0.25063   0.00000  Uiso   1.00
C32    C     0.31200   0.20919   0.24937   0.00000  Uiso   1.00
C33    C     0.31207   0.12413   0.25077   0.00000  Uiso   1.00
C34    C     0.02126   0.20921   0.24923   0.00000  Uiso   1.00
C35    C     0.29058   0.16665   0.25014   0.00000  Uiso   1.00
C36    C     0.04275   0.16668   0.24986   0.00000  Uiso   1.00
C37    C     0.14036   0.02484   0.22312   0.00000  Uiso   1.00
C38    C     0.19297   0.30849   0.27688   0.00000  Uiso   1.00
C39    C     0.19297   0.02476   0.27688   0.00000  Uiso   1.00
C40    C     0.14036   0.30858   0.22312   0.00000  Uiso   1.00
N41    N     0.16667   0.28402   0.25000   0.00000  Uiso   1.00
N42    N     0.16667   0.04931   0.25000   0.00000  Uiso   1.00
H43    H     0.22944   0.17759   0.38643   0.00000  Uiso   1.00
H44    H     0.10389   0.15574   0.11357   0.00000  Uiso   1.00
C45    C     0.08701   0.15418   0.38153   0.00000  Uiso   1.00
H46    H     0.09034   0.15529   0.34495   0.00000  Uiso   1.00
H47    H     0.07318   0.11977   0.38995   0.00000  Uiso   1.00
H48    H     0.06531   0.18268   0.39063   0.00000  Uiso   1.00
C49    C     0.24632   0.17915   0.11847   0.00000  Uiso   1.00
H50    H     0.24300   0.17805   0.15505   0.00000  Uiso   1.00
H51    H     0.26802   0.15066   0.10937   0.00000  Uiso   1.00
H52    H     0.26016   0.21356   0.11005   0.00000  Uiso   1.00
H53    H     0.06256   0.14956   0.46192   0.00000  Uiso   1.00
H54    H     0.27077   0.18378   0.03808   0.00000  Uiso   1.00
C55    C     0.05189   0.14782   0.04911   0.00000  Uiso   1.00
H56    H     0.02548   0.14355   0.02589   0.00000  Uiso   1.00
H57    H     0.05338   0.11598   0.07025   0.00000  Uiso   1.00
H58    H     0.04548   0.17889   0.07017   0.00000  Uiso   1.00
C59    C     0.28145   0.18551   0.45089   0.00000  Uiso   1.00
H60    H     0.30785   0.18978   0.47410   0.00000  Uiso   1.00
H61    H     0.28785   0.15444   0.42983   0.00000  Uiso   1.00
H62    H     0.27996   0.21736   0.42975   0.00000  Uiso   1.00
H63    H     0.03740   0.09089   0.25116   0.00000  Uiso   1.00
H64    H     0.29593   0.24244   0.24884   0.00000  Uiso   1.00
H65    H     0.29607   0.09087   0.25139   0.00000  Uiso   1.00
H66    H     0.03726   0.24246   0.24861   0.00000  Uiso   1.00
H67    H     0.11929   0.04356   0.20157   0.00000  Uiso   1.00
H68    H     0.21404   0.28978   0.29843   0.00000  Uiso   1.00
H69    H     0.21404   0.04340   0.29842   0.00000  Uiso   1.00
H70    H     0.11929   0.28993   0.20158   0.00000  Uiso   1.00
O71    O     0.43988   0.20625   0.24999   0.00000  Uiso   1.00
O72    O     0.56012   0.12709   0.25000   0.00000  Uiso   1.00
O73    O     0.56012   0.20625   0.25000   0.00000  Uiso   1.00
O74    O     0.43988   0.12709   0.24999   0.00000  Uiso   1.00
C75    C     0.42070   0.16668   0.24979   0.00000  Uiso   1.00
C76    C     0.57930   0.16665   0.25021   0.00000  Uiso   1.00
O77    O     0.49999   0.20627   0.18513   0.00000  Uiso   1.00
O78    O     0.50001   0.12707   0.31487   0.00000  Uiso   1.00
O79    O     0.50001   0.20627   0.31487   0.00000  Uiso   1.00
O80    O     0.49999   0.12707   0.18513   0.00000  Uiso   1.00
C81    C     0.50043   0.16668   0.16456   0.00000  Uiso   1.00
C82    C     0.49957   0.16665   0.33544   0.00000  Uiso   1.00
Cu83   Cu    0.50000   0.21355   0.25000   0.00000  Uiso   1.00
Cu84   Cu    0.50000   0.11978   0.25000   0.00000  Uiso   1.00
C85    C     0.53509   0.17293   0.40598   0.00000  Uiso   1.00
C86    C     0.46491   0.16041   0.09402   0.00000  Uiso   1.00
C87    C     0.49803   0.16661   0.38353   0.00000  Uiso   1.00
C88    C     0.50197   0.16672   0.11647   0.00000  Uiso   1.00
C89    C     0.46071   0.16034   0.40663   0.00000  Uiso   1.00
C90    C     0.53929   0.17299   0.09337   0.00000  Uiso   1.00
C91    C     0.46155   0.16039   0.45371   0.00000  Uiso   1.00
C92    C     0.53845   0.17295   0.04629   0.00000  Uiso   1.00
C93    C     0.49955   0.16666   0.47652   0.00000  Uiso   1.00
C94    C     0.50045   0.16667   0.02348   0.00000  Uiso   1.00
C95    C     0.53663   0.17294   0.45240   0.00000  Uiso   1.00
C96    C     0.46337   0.16040   0.04760   0.00000  Uiso   1.00
C97    C     0.42520   0.15435   0.47845   0.00000  Uiso   1.00
C98    C     0.57480   0.17899   0.02155   0.00000  Uiso   1.00
C99    C     0.42559   0.15432   0.02484   0.00000  Uiso   1.00
C100   C     0.57441   0.17901   0.47516   0.00000  Uiso   1.00
C101   C     0.35467   0.12414   0.25063   0.00000  Uiso   1.00
C102   C     0.64533   0.20919   0.24937   0.00000  Uiso   1.00
C103   C     0.64541   0.12413   0.25077   0.00000  Uiso   1.00
C104   C     0.35459   0.20921   0.24923   0.00000  Uiso   1.00
C105   C     0.62392   0.16665   0.25014   0.00000  Uiso   1.00
C106   C     0.37608   0.16668   0.24986   0.00000  Uiso   1.00
C107   C     0.47370   0.02484   0.22312   0.00000  Uiso   1.00
C108   C     0.52630   0.30849   0.27688   0.00000  Uiso   1.00
C109   C     0.52630   0.02476   0.27688   0.00000  Uiso   1.00
C110   C     0.47370   0.30858   0.22312   0.00000  Uiso   1.00
N111   N     0.50000   0.28402   0.25000   0.00000  Uiso   1.00
N112   N     0.50000   0.04931   0.25000   0.00000  Uiso   1.00
H113   H     0.56278   0.17759   0.38643   0.00000  Uiso   1.00
H114   H     0.43722   0.15574   0.11357   0.00000  Uiso   1.00
C115   C     0.42034   0.15418   0.38153   0.00000  Uiso   1.00
H116   H     0.42367   0.15529   0.34495   0.00000  Uiso   1.00
H117   H     0.40651   0.11977   0.38995   0.00000  Uiso   1.00
H118   H     0.39865   0.18268   0.39063   0.00000  Uiso   1.00
C119   C     0.57965   0.17915   0.11847   0.00000  Uiso   1.00
H120   H     0.57633   0.17805   0.15505   0.00000  Uiso   1.00
H121   H     0.60135   0.15066   0.10937   0.00000  Uiso   1.00
H122   H     0.59349   0.21356   0.11005   0.00000  Uiso   1.00
H123   H     0.39589   0.14956   0.46192   0.00000  Uiso   1.00
H124   H     0.60411   0.18378   0.03808   0.00000  Uiso   1.00
C125   C     0.38522   0.14782   0.04911   0.00000  Uiso   1.00
H126   H     0.35881   0.14355   0.02589   0.00000  Uiso   1.00
H127   H     0.38671   0.11598   0.07025   0.00000  Uiso   1.00
H128   H     0.37882   0.17889   0.07017   0.00000  Uiso   1.00
C129   C     0.61478   0.18551   0.45089   0.00000  Uiso   1.00
H130   H     0.64119   0.18978   0.47410   0.00000  Uiso   1.00
H131   H     0.62118   0.15444   0.42983   0.00000  Uiso   1.00
H132   H     0.61329   0.21736   0.42975   0.00000  Uiso   1.00
H133   H     0.37074   0.09089   0.25116   0.00000  Uiso   1.00
H134   H     0.62926   0.24244   0.24884   0.00000  Uiso   1.00
H135   H     0.62940   0.09087   0.25139   0.00000  Uiso   1.00
H136   H     0.37060   0.24246   0.24861   0.00000  Uiso   1.00
H137   H     0.45262   0.04356   0.20157   0.00000  Uiso   1.00
H138   H     0.54738   0.28978   0.29843   0.00000  Uiso   1.00
H139   H     0.54738   0.04340   0.29842   0.00000  Uiso   1.00
H140   H     0.45262   0.28993   0.20158   0.00000  Uiso   1.00
O141   O     0.77321   0.20625   0.24999   0.00000  Uiso   1.00
O142   O     0.89345   0.12709   0.25000   0.00000  Uiso   1.00
O143   O     0.89345   0.20625   0.25000   0.00000  Uiso   1.00
O144   O     0.77321   0.12709   0.24999   0.00000  Uiso   1.00
C145   C     0.75403   0.16668   0.24979   0.00000  Uiso   1.00
C146   C     0.91264   0.16665   0.25021   0.00000  Uiso   1.00
O147   O     0.83332   0.20627   0.18513   0.00000  Uiso   1.00
O148   O     0.83334   0.12707   0.31487   0.00000  Uiso   1.00
O149   O     0.83334   0.20627   0.31487   0.00000  Uiso   1.00
O150   O     0.83332   0.12707   0.18513   0.00000  Uiso   1.00
C151   C     0.83376   0.16668   0.16456   0.00000  Uiso   1.00
C152   C     0.83290   0.16665   0.33544   0.00000  Uiso   1.00
Cu153  Cu    0.83333   0.21355   0.25000   0.00000  Uiso   1.00
Cu154  Cu    0.83333   0.11978   0.25000   0.00000  Uiso   1.00
C155   C     0.86842   0.17293   0.40598   0.00000  Uiso   1.00
C156   C     0.79825   0.16041   0.09402   0.00000  Uiso   1.00
C157   C     0.83136   0.16661   0.38353   0.00000  Uiso   1.00
C158   C     0.83530   0.16672   0.11647   0.00000  Uiso   1.00
C159   C     0.79404   0.16034   0.40663   0.00000  Uiso   1.00
C160   C     0.87263   0.17299   0.09337   0.00000  Uiso   1.00
C161   C     0.79489   0.16039   0.45371   0.00000  Uiso   1.00
C162   C     0.87178   0.17295   0.04629   0.00000  Uiso   1.00
C163   C     0.83289   0.16666   0.47652   0.00000  Uiso   1.00
C164   C     0.83378   0.16667   0.02348   0.00000  Uiso   1.00
C165   C     0.86996   0.17294   0.45240   0.00000  Uiso   1.00
C166   C     0.79670   0.16040   0.04760   0.00000  Uiso   1.00
C167   C     0.75854   0.15435   0.47845   0.00000  Uiso   1.00
C168   C     0.90813   0.17899   0.02155   0.00000  Uiso   1.00
C169   C     0.75892   0.15432   0.02484   0.00000  Uiso   1.00
C170   C     0.90775   0.17901   0.47516   0.00000  Uiso   1.00
C171   C     0.68800   0.12414   0.25063   0.00000  Uiso   1.00
C172   C     0.97866   0.20919   0.24937   0.00000  Uiso   1.00
C173   C     0.97874   0.12413   0.25077   0.00000  Uiso   1.00
C174   C     0.68793   0.20921   0.24923   0.00000  Uiso   1.00
C175   C     0.95725   0.16665   0.25014   0.00000  Uiso   1.00
C176   C     0.70942   0.16668   0.24986   0.00000  Uiso   1.00
C177   C     0.80703   0.02484   0.22312   0.00000  Uiso   1.00
C178   C     0.85964   0.30849   0.27688   0.00000  Uiso   1.00
C179   C     0.85964   0.02476   0.27688   0.00000  Uiso   1.00
C180   C     0.80703   0.30858   0.22312   0.00000  Uiso   1.00
N181   N     0.83333   0.28402   0.25000   0.00000  Uiso   1.00
N182   N     0.83333   0.04931   0.25000   0.00000  Uiso   1.00
H183   H     0.89611   0.17759   0.38643   0.00000  Uiso   1.00
H184   H     0.77055   0.15574   0.11357   0.00000  Uiso   1.00
C185   C     0.75368   0.15418   0.38153   0.00000  Uiso   1.00
H186   H     0.75700   0.15529   0.34495   0.00000  Uiso   1.00
H187   H     0.73984   0.11977   0.38995   0.00000  Uiso   1.00
H188   H     0.73198   0.18268   0.39063   0.00000  Uiso   1.00
C189   C     0.91299   0.17915   0.11847   0.00000  Uiso   1.00
H190   H     0.90966   0.17805   0.15505   0.00000  Uiso   1.00
H191   H     0.93468   0.15066   0.10937   0.00000  Uiso   1.00
H192   H     0.92682   0.21356   0.11005   0.00000  Uiso   1.00
H193   H     0.72923   0.14956   0.46192   0.00000  Uiso   1.00
H194   H     0.93744   0.18378   0.03808   0.00000  Uiso   1.00
C195   C     0.71855   0.14782   0.04911   0.00000  Uiso   1.00
H196   H     0.69215   0.14355   0.02589   0.00000  Uiso   1.00
H197   H     0.72004   0.11598   0.07025   0.00000  Uiso   1.00
H198   H     0.71215   0.17889   0.07017   0.00000  Uiso   1.00
C199   C     0.94811   0.18551   0.45089   0.00000  Uiso   1.00
H200   H     0.97452   0.18978   0.47410   0.00000  Uiso   1.00
H201   H     0.95452   0.15444   0.42983   0.00000  Uiso   1.00
H202   H     0.94662   0.21736   0.42975   0.00000  Uiso   1.00
H203   H     0.70407   0.09089   0.25116   0.00000  Uiso   1.00
H204   H     0.96260   0.24244   0.24884   0.00000  Uiso   1.00
H205   H     0.96274   0.09087   0.25139   0.00000  Uiso   1.00
H206   H     0.70393   0.24246   0.24861   0.00000  Uiso   1.00
H207   H     0.78596   0.04356   0.20157   0.00000  Uiso   1.00
H208   H     0.88071   0.28978   0.29843   0.00000  Uiso   1.00
H209   H     0.88071   0.04340   0.29842   0.00000  Uiso   1.00
H210   H     0.78596   0.28993   0.20158   0.00000  Uiso   1.00
O211   O     0.10655   0.53958   0.24999   0.00000  Uiso   1.00
O212   O     0.22679   0.46042   0.25000   0.00000  Uiso   1.00
O213   O     0.22679   0.53958   0.25000   0.00000  Uiso   1.00
O214   O     0.10655   0.46042   0.24999   0.00000  Uiso   1.00
C215   C     0.08736   0.50001   0.24979   0.00000  Uiso   1.00
C216   C     0.24597   0.49999   0.25021   0.00000  Uiso   1.00
O217   O     0.16666   0.53960   0.18513   0.00000  Uiso   1.00
O218   O     0.16668   0.46040   0.31487   0.00000  Uiso   1.00
O219   O     0.16668   0.53960   0.31487   0.00000  Uiso   1.00
O220   O     0.16666   0.46040   0.18513   0.00000  Uiso   1.00
C221   C     0.16710   0.50001   0.16456   0.00000  Uiso   1.00
C222   C     0.16624   0.49999   0.33544   0.00000  Uiso   1.00
Cu223  Cu    0.16667   0.54689   0.25000   0.00000  Uiso   1.00
Cu224  Cu    0.16667   0.45311   0.25000   0.00000  Uiso   1.00
C225   C     0.20175   0.50626   0.40598   0.00000  Uiso   1.00
C226   C     0.13158   0.49374   0.09402   0.00000  Uiso   1.00
C227   C     0.16470   0.49994   0.38353   0.00000  Uiso   1.00
C228   C     0.16864   0.50006   0.11647   0.00000  Uiso   1.00
C229   C     0.12737   0.49368   0.40663   0.00000  Uiso   1.00
C230   C     0.20596   0.50632   0.09337   0.00000  Uiso   1.00
C231   C     0.12822   0.49372   0.45371   0.00000  Uiso   1.00
C232   C     0.20511   0.50628   0.04629   0.00000  Uiso   1.00
C233   C     0.16622   0.49999   0.47652   0.00000  Uiso   1.00
C234   C     0.16711   0.50001   0.02348   0.00000  Uiso   1.00
C235   C     0.20330   0.50627   0.45240   0.00000  Uiso   1.00
C236   C     0.13004   0.49373   0.04760   0.00000  Uiso   1.00
C237   C     0.09187   0.48768   0.47845   0.00000  Uiso   1.00
C238   C     0.24146   0.51232   0.02155   0.00000  Uiso   1.00
C239   C     0.09225   0.48765   0.02484   0.00000  Uiso   1.00
C240   C     0.24108   0.51235   0.47516   0.00000  Uiso   1.00
C241   C     0.02134   0.45747   0.25063   0.00000  Uiso   1.00
C242   C     0.31200   0.54253   0.24937   0.00000  Uiso   1.00
C243   C     0.31207   0.45746   0.25077   0.00000  Uiso   1.00
C244   C     0.02126   0.54254   0.24923   0.00000  Uiso   1.00
C245   C     0.29058   0.49999   0.25014   0.00000  Uiso   1.00
C246   C     0.04275   0.50001   0.24986   0.00000  Uiso   1.00
C247   C     0.14036   0.35818   0.22312   0.00000  Uiso   1.00
C248   C     0.19297   0.64182   0.27688   0.00000  Uiso   1.00
C249   C     0.19297   0.35809   0.27688   0.00000  Uiso   1.00
C250   C     0.14036   0.64191   0.22312   0.00000  Uiso   1.00
N251   N     0.16667   0.61736   0.25000   0.00000  Uiso   1.00
N252   N     0.16667   0.38264   0.25000   0.00000  Uiso   1.00
H253   H     0.22944   0.51092   0.38643   0.00000  Uiso   1.00
H254   H     0.10389   0.48908   0.11357   0.00000  Uiso   1.00
C255   C     0.08701   0.48752   0.38153   0.00000  Uiso   1.00
H256   H     0.09034   0.48862   0.34495   0.00000  Uiso   1.00
H257   H     0.07318   0.45310   0.38995   0.00000  Uiso   1.00
H258   H     0.06531   0.51601   0.39063   0.00000  Uiso   1.00
C259   C     0.24632   0.51248   0.11847   0.00000  Uiso   1.00
H260   H     0.24300   0.51138   0.15505   0.00000  Uiso   1.00
H261   H     0.26802   0.48399   0.10937   0.00000  Uiso   1.00
H262   H     0.26016   0.54690   0.11005   0.00000  Uiso   1.00
H263   H     0.06256   0.48289   0.46192   0.00000  Uiso   1.00
H264   H     0.27077   0.51711   0.03808   0.00000  Uiso   1.00
C265   C     0.05189   0.48116   0.04911   0.00000  Uiso   1.00
H266   H     0.02548   0.47689   0.02589   0.00000  Uiso   1.00
H267   H     0.05338   0.44931   0.07025   0.00000  Uiso   1.00
H268   H     0.04548   0.51222   0.07017   0.00000  Uiso   1.00
C269   C     0.28145   0.51884   0.45089   0.00000  Uiso   1.00
H270   H     0.30785   0.52311   0.47410   0.00000  Uiso   1.00
H271   H     0.28785   0.48778   0.42983   0.00000  Uiso   1.00
H272   H     0.27996   0.55069   0.42975   0.00000  Uiso   1.00
H273   H     0.03740   0.42423   0.25116   0.00000  Uiso   1.00
H274   H     0.29593   0.57577   0.24884   0.00000  Uiso   1.00
H275   H     0.29607   0.42421   0.25139   0.00000  Uiso   1.00
H276   H     0.03726   0.57579   0.24861   0.00000  Uiso   1.00
H277   H     0.11929   0.37689   0.20157   0.00000  Uiso   1.00
H278   H     0.21404   0.62311   0.29843   0.00000  Uiso   1.00
H279   H     0.21404   0.37674   0.29842   0.00000  Uiso   1.00
H280   H     0.11929   0.62326   0.20158   0.00000  Uiso   1.00
O281   O     0.43988   0.53958   0.24999   0.00000  Uiso   1.00
O282   O     0.56012   0.46042   0.25000   0.00000  Uiso   1.00
O283   O     0.56012   0.53958   0.25000   0.00000  Uiso   1.00
O284   O     0.43988   0.46042   0.24999   0.00000  Uiso   1.00
C285   C     0.42070   0.50001   0.24979   0.00000  Uiso   1.00
C286   C     0.57930   0.49999   0.25021   0.00000  Uiso   1.00
O287   O     0.49999   0.53960   0.18513   0.00000  Uiso   1.00
O288   O     0.50001   0.46040   0.31487   0.00000  Uiso   1.00
O289   O     0.50001   0.53960   0.31487   0.00000  Uiso   1.00
O290   O     0.49999   0.46040   0.18513   0.00000  Uiso   1.00
C291   C     0.50043   0.50001   0.16456   0.00000  Uiso   1.00
C292   C     0.49957   0.49999   0.33544   0.00000  Uiso   1.00
Cu293  Cu    0.50000   0.54689   0.25000   0.00000  Uiso   1.00
Cu294  Cu    0.50000   0.45311   0.25000   0.00000  Uiso   1.00
C295   C     0.53509   0.50626   0.40598   0.00000  Uiso   1.00
C296   C     0.46491   0.49374   0.09402   0.00000  Uiso   1.00
C297   C     0.49803   0.49994   0.38353   0.00000  Uiso   1.00
C298   C     0.50197   0.50006   0.11647   0.00000  Uiso   1.00
C299   C     0.46071   0.49368   0.40663   0.00000  Uiso   1.00
C300   C     0.53929   0.50632   0.09337   0.00000  Uiso   1.00
C301   C     0.46155   0.49372   0.45371   0.00000  Uiso   1.00
C302   C     0.53845   0.50628   0.04629   0.00000  Uiso   1.00
C303   C     0.49955   0.49999   0.47652   0.00000  Uiso   1.00
C304   C     0.50045   0.50001   0.02348   0.00000  Uiso   1.00
C305   C     0.53663   0.50627   0.45240   0.00000  Uiso   1.00
C306   C     0.46337   0.49373   0.04760   0.00000  Uiso   1.00
C307   C     0.42520   0.48768   0.47845   0.00000  Uiso   1.00
C308   C     0.57480   0.51232   0.02155   0.00000  Uiso   1.00
C309   C     0.42559   0.48765   0.02484   0.00000  Uiso   1.00
C310   C     0.57441   0.51235   0.47516   0.00000  Uiso   1.00
C311   C     0.35467   0.45747   0.25063   0.00000  Uiso   1.00
C312   C     0.64533   0.54253   0.24937   0.00000  Uiso   1.00
C313   C     0.64541   0.45746   0.25077   0.00000  Uiso   1.00
C314   C     0.35459   0.54254   0.24923   0.00000  Uiso   1.00
C315   C     0.62392   0.49999   0.25014   0.00000  Uiso   1.00
C316   C     0.37608   0.50001   0.24986   0.00000  Uiso   1.00
C317   C     0.47370   0.35818   0.22312   0.00000  Uiso   1.00
C318   C     0.52630   0.64182   0.27688   0.00000  Uiso   1.00
C319   C     0.52630   0.35809   0.27688   0.00000  Uiso   1.00
C320   C     0.47370   0.64191   0.22312   0.00000  Uiso   1.00
N321   N     0.50000   0.61736   0.25000   0.00000  Uiso   1.00
N322   N     0.50000   0.38264   0.25000   0.00000  Uiso   1.00
H323   H     0.56278   0.51092   0.38643   0.00000  Uiso   1.00
H324   H     0.43722   0.48908   0.11357   0.00000  Uiso   1.00
C325   C     0.42034   0.48752   0.38153   0.00000  Uiso   1.00
H326   H     0.42367   0.48862   0.34495   0.00000  Uiso   1.00
H327   H     0.40651   0.45310   0.38995   0.00000  Uiso   1.00
H328   H     0.39865   0.51601   0.39063   0.00000  Uiso   1.00
C329   C     0.57965   0.51248   0.11847   0.00000  Uiso   1.00
H330   H     0.57633   0.51138   0.15505   0.00000  Uiso   1.00
H331   H     0.60135   0.48399   0.10937   0.00000  Uiso   1.00
H332   H     0.59349   0.54690   0.11005   0.00000  Uiso   1.00
H333   H     0.39589   0.48289   0.46192   0.00000  Uiso   1.00
H334   H     0.60411   0.51711   0.03808   0.00000  Uiso   1.00
C335   C     0.38522   0.48116   0.04911   0.00000  Uiso   1.00
H336   H     0.35881   0.47689   0.02589   0.00000  Uiso   1.00
H337   H     0.38671   0.44931   0.07025   0.00000  Uiso   1.00
H338   H     0.37882   0.51222   0.07017   0.00000  Uiso   1.00
C339   C     0.61478   0.51884   0.45089   0.00000  Uiso   1.00
H340   H     0.64119   0.52311   0.47410   0.00000  Uiso   1.00
H341   H     0.62118   0.48778   0.42983   0.00000  Uiso   1.00
H342   H     0.61329   0.55069   0.42975   0.00000  Uiso   1.00
H343   H     0.37074   0.42423   0.25116   0.00000  Uiso   1.00
H344   H     0.62926   0.57577   0.24884   0.00000  Uiso   1.00
H345   H     0.62940   0.42421   0.25139   0.00000  Uiso   1.00
H346   H     0.37060   0.57579   0.24861   0.00000  Uiso   1.00
H347   H     0.45262   0.37689   0.20157   0.00000  Uiso   1.00
H348   H     0.54738   0.62311   0.29843   0.00000  Uiso   1.00
H349   H     0.54738   0.37674   0.29842   0.00000  Uiso   1.00
H350   H     0.45262   0.62326   0.20158   0.00000  Uiso   1.00
O351   O     0.77321   0.53958   0.24999   0.00000  Uiso   1.00
O352   O     0.89345   0.46042   0.25000   0.00000  Uiso   1.00
O353   O     0.89345   0.53958   0.25000   0.00000  Uiso   1.00
O354   O     0.77321   0.46042   0.24999   0.00000  Uiso   1.00
C355   C     0.75403   0.50001   0.24979   0.00000  Uiso   1.00
C356   C     0.91264   0.49999   0.25021   0.00000  Uiso   1.00
O357   O     0.83332   0.53960   0.18513   0.00000  Uiso   1.00
O358   O     0.83334   0.46040   0.31487   0.00000  Uiso   1.00
O359   O     0.83334   0.53960   0.31487   0.00000  Uiso   1.00
O360   O     0.83332   0.46040   0.18513   0.00000  Uiso   1.00
C361   C     0.83376   0.50001   0.16456   0.00000  Uiso   1.00
C362   C     0.83290   0.49999   0.33544   0.00000  Uiso   1.00
Cu363  Cu    0.83333   0.54689   0.25000   0.00000  Uiso   1.00
Cu364  Cu    0.83333   0.45311   0.25000   0.00000  Uiso   1.00
C365   C     0.86842   0.50626   0.40598   0.00000  Uiso   1.00
C366   C     0.79825   0.49374   0.09402   0.00000  Uiso   1.00
C367   C     0.83136   0.49994   0.38353   0.00000  Uiso   1.00
C368   C     0.83530   0.50006   0.11647   0.00000  Uiso   1.00
C369   C     0.79404   0.49368   0.40663   0.00000  Uiso   1.00
C370   C     0.87263   0.50632   0.09337   0.00000  Uiso   1.00
C371   C     0.79489   0.49372   0.45371   0.00000  Uiso   1.00
C372   C     0.87178   0.50628   0.04629   0.00000  Uiso   1.00
C373   C     0.83289   0.49999   0.47652   0.00000  Uiso   1.00
C374   C     0.83378   0.50001   0.02348   0.00000  Uiso   1.00
C375   C     0.86996   0.50627   0.45240   0.00000  Uiso   1.00
C376   C     0.79670   0.49373   0.04760   0.00000  Uiso   1.00
C377   C     0.75854   0.48768   0.47845   0.00000  Uiso   1.00
C378   C     0.90813   0.51232   0.02155   0.00000  Uiso   1.00
C379   C     0.75892   0.48765   0.02484   0.00000  Uiso   1.00
C380   C     0.90775   0.51235   0.47516   0.00000  Uiso   1.00
C381   C     0.68800   0.45747   0.25063   0.00000  Uiso   1.00
C382   C     0.97866   0.54253   0.24937   0.00000  Uiso   1.00
C383   C     0.97874   0.45746   0.25077   0.00000  Uiso   1.00
C384   C     0.68793   0.54254   0.24923   0.00000  Uiso   1.00
C385   C     0.95725   0.49999   0.25014   0.00000  Uiso   1.00
C386   C     0.70942   0.50001   0.24986   0.00000  Uiso   1.00
C387   C     0.80703   0.35818   0.22312   0.00000  Uiso   1.00
C388   C     0.85964   0.64182   0.27688   0.00000  Uiso   1.00
C389   C     0.85964   0.35809   0.27688   0.00000  Uiso   1.00
C390   C     0.80703   0.64191   0.22312   0.00000  Uiso   1.00
N391   N     0.83333   0.61736   0.25000   0.00000  Uiso   1.00
N392   N     0.83333   0.38264   0.25000   0.00000  Uiso   1.00
H393   H     0.89611   0.51092   0.38643   0.00000  Uiso   1.00
H394   H     0.77055   0.48908   0.11357   0.00000  Uiso   1.00
C395   C     0.75368   0.48752   0.38153   0.00000  Uiso   1.00
H396   H     0.75700   0.48862   0.34495   0.00000  Uiso   1.00
H397   H     0.73984   0.45310   0.38995   0.00000  Uiso   1.00
H398   H     0.73198   0.51601   0.39063   0.00000  Uiso   1.00
C399   C     0.91299   0.51248   0.11847   0.00000  Uiso   1.00
H400   H     0.90966   0.51138   0.15505   0.00000  Uiso   1.00
H401   H     0.93468   0.48399   0.10937   0.00000  Uiso   1.00
H402   H     0.92682   0.54690   0.11005   0.00000  Uiso   1.00
H403   H     0.72923   0.48289   0.46192   0.00000  Uiso   1.00
H404   H     0.93744   0.51711   0.03808   0.00000  Uiso   1.00
C405   C     0.71855   0.48116   0.04911   0.00000  Uiso   1.00
H406   H     0.69215   0.47689   0.02589   0.00000  Uiso   1.00
H407   H     0.72004   0.44931   0.07025   0.00000  Uiso   1.00
H408   H     0.71215   0.51222   0.07017   0.00000  Uiso   1.00
C409   C     0.94811   0.51884   0.45089   0.00000  Uiso   1.00
H410   H     0.97452   0.52311   0.47410   0.00000  Uiso   1.00
H411   H     0.95452   0.48778   0.42983   0.00000  Uiso   1.00
H412   H     0.94662   0.55069   0.42975   0.00000  Uiso   1.00
H413   H     0.70407   0.42423   0.25116   0.00000  Uiso   1.00
H414   H     0.96260   0.57577   0.24884   0.00000  Uiso   1.00
H415   H     0.96274   0.42421   0.25139   0.00000  Uiso   1.00
H416   H     0.70393   0.57579   0.24861   0.00000  Uiso   1.00
H417   H     0.78596   0.37689   0.20157   0.00000  Uiso   1.00
H418   H     0.88071   0.62311   0.29843   0.00000  Uiso   1.00
H419   H     0.88071   0.37674   0.29842   0.00000  Uiso   1.00
H420   H     0.78596   0.62326   0.20158   0.00000  Uiso   1.00
O421   O     0.10655   0.87291   0.24999   0.00000  Uiso   1.00
O422   O     0.22679   0.79375   0.25000   0.00000  Uiso   1.00
O423   O     0.22679   0.87291   0.25000   0.00000  Uiso   1.00
O424   O     0.10655   0.79375   0.24999   0.00000  Uiso   1.00
C425   C     0.08736   0.83335   0.24979   0.00000  Uiso   1.00
C426   C     0.24597   0.83332   0.25021   0.00000  Uiso   1.00
O427   O     0.16666   0.87293   0.18513   0.00000  Uiso   1.00
O428   O     0.16668   0.79373   0.31487   0.00000  Uiso   1.00
O429   O     0.16668   0.87293   0.31487   0.00000  Uiso   1.00
O430   O     0.16666   0.79373   0.18513   0.00000  Uiso   1.00
C431   C     0.16710   0.83335   0.16456   0.00000  Uiso   1.00
C432   C     0.16624   0.83332   0.33544   0.00000  Uiso   1.00
Cu433  Cu    0.16667   0.88022   0.25000   0.00000  Uiso   1.00
Cu434  Cu    0.16667   0.78645   0.25000   0.00000  Uiso   1.00
C435   C     0.20175   0.83959   0.40598   0.00000  Uiso   1.00
C436   C     0.13158   0.82707   0.09402   0.00000  Uiso   1.00
C437   C     0.16470   0.83328   0.38353   0.00000  Uiso   1.00
C438   C     0.16864   0.83339   0.11647   0.00000  Uiso   1.00
C439   C     0.12737   0.82701   0.40663   0.00000  Uiso   1.00
C440   C     0.20596   0.83966   0.09337   0.00000  Uiso   1.00
C441   C     0.12822   0.82705   0.45371   0.00000  Uiso   1.00
C442   C     0.20511   0.83961   0.04629   0.00000  Uiso   1.00
C443   C     0.16622   0.83333   0.47652   0.00000  Uiso   1.00
C444   C     0.16711   0.83334   0.02348   0.00000  Uiso   1.00
C445   C     0.20330   0.83960   0.45240   0.00000  Uiso   1.00
C446   C     0.13004   0.82706   0.04760   0.00000  Uiso   1.00
C447   C     0.09187   0.82101   0.47845   0.00000  Uiso   1.00
C448   C     0.24146   0.84565   0.02155   0.00000  Uiso   1.00
C449   C     0.09225   0.82099   0.02484   0.00000  Uiso   1.00
C450   C     0.24108   0.84568   0.47516   0.00000  Uiso   1.00
C451   C     0.02134   0.79081   0.25063   0.00000  Uiso   1.00
C452   C     0.31200   0.87586   0.24937   0.00000  Uiso   1.00
C453   C     0.31207   0.79079   0.25077   0.00000  Uiso   1.00
C454   C     0.02126   0.87587   0.24923   0.00000  Uiso   1.00
C455   C     0.29058   0.83332   0.25014   0.00000  Uiso   1.00
C456   C     0.04275   0.83335   0.24986   0.00000  Uiso   1.00
C457   C     0.14036   0.69151   0.22312   0.00000  Uiso   1.00
C458   C     0.19297   0.97516   0.27688   0.00000  Uiso   1.00
C459   C     0.19297   0.69142   0.27688   0.00000  Uiso   1.00
C460   C     0.14036   0.97524   0.22312   0.00000  Uiso   1.00
N461   N     0.16667   0.95069   0.25000   0.00000  Uiso   1.00
N462   N     0.16667   0.71598   0.25000   0.00000  Uiso   1.00
H463   H     0.22944   0.84426   0.38643   0.00000  Uiso   1.00
H464   H     0.10389   0.82241   0.11357   0.00000  Uiso   1.00
C465   C     0.08701   0.82085   0.38153   0.00000  Uiso   1.00
H466   H     0.09034   0.82195   0.34495   0.00000  Uiso   1.00
H467   H     0.07318   0.78644   0.38995   0.00000  Uiso   1.00
H468   H     0.06531   0.84934   0.39063   0.00000  Uiso   1.00
C469   C     0.24632   0.84582   0.11847   0.00000  Uiso   1.00
H470   H     0.24300   0.84471   0.15505   0.00000  Uiso   1.00
H471   H     0.26802   0.81732   0.10937   0.00000  Uiso   1.00
H472   H     0.26016   0.88023   0.11005   0.00000  Uiso   1.00
H473   H     0.06256   0.81622   0.46192   0.00000  Uiso   1.00
H474   H     0.27077   0.85044   0.03808   0.00000  Uiso   1.00
C475   C     0.05189   0.81449   0.04911   0.00000  Uiso   1.00
H476   H     0.02548   0.81022   0.02589   0.00000  Uiso   1.00
H477   H     0.05338   0.78264   0.07025   0.00000  Uiso   1.00
H478   H     0.04548   0.84556   0.07017   0.00000  Uiso   1.00
C479   C     0.28145   0.85218   0.45089   0.00000  Uiso   1.00
H480   H     0.30785   0.85645   0.47410   0.00000  Uiso   1.00
H481   H     0.28785   0.82111   0.42983   0.00000  Uiso   1.00
H482   H     0.27996   0.88402   0.42975   0.00000  Uiso   1.00
H483   H     0.03740   0.75756   0.25116   0.00000  Uiso   1.00
H484   H     0.29593   0.90911   0.24884   0.00000  Uiso   1.00
H485   H     0.29607   0.75754   0.25139   0.00000  Uiso   1.00
H486   H     0.03726   0.90913   0.24861   0.00000  Uiso   1.00
H487   H     0.11929   0.71022   0.20157   0.00000  Uiso   1.00
H488   H     0.21404   0.95644   0.29843   0.00000  Uiso   1.00
H489   H     0.21404   0.71007   0.29842   0.00000  Uiso   1.00
H490   H     0.11929   0.95660   0.20158   0.00000  Uiso   1.00
O491   O     0.43988   0.87291   0.24999   0.00000  Uiso   1.00
O492   O     0.56012   0.79375   0.25000   0.00000  Uiso   1.00
O493   O     0.56012   0.87291   0.25000   0.00000  Uiso   1.00
O494   O     0.43988   0.79375   0.24999   0.00000  Uiso   1.00
C495   C     0.42070   0.83335   0.24979   0.00000  Uiso   1.00
C496   C     0.57930   0.83332   0.25021   0.00000  Uiso   1.00
O497   O     0.49999   0.87293   0.18513   0.00000  Uiso   1.00
O498   O     0.50001   0.79373   0.31487   0.00000  Uiso   1.00
O499   O     0.50001   0.87293   0.31487   0.00000  Uiso   1.00
O500   O     0.49999   0.79373   0.18513   0.00000  Uiso   1.00
C501   C     0.50043   0.83335   0.16456   0.00000  Uiso   1.00
C502   C     0.49957   0.83332   0.33544   0.00000  Uiso   1.00
Cu503  Cu    0.50000   0.88022   0.25000   0.00000  Uiso   1.00
Cu504  Cu    0.50000   0.78645   0.25000   0.00000  Uiso   1.00
C505   C     0.53509   0.83959   0.40598   0.00000  Uiso   1.00
C506   C     0.46491   0.82707   0.09402   0.00000  Uiso   1.00
C507   C     0.49803   0.83328   0.38353   0.00000  Uiso   1.00
C508   C     0.50197   0.83339   0.11647   0.00000  Uiso   1.00
C509   C     0.46071   0.82701   0.40663   0.00000  Uiso   1.00
C510   C     0.53929   0.83966   0.09337   0.00000  Uiso   1.00
C511   C     0.46155   0.82705   0.45371   0.00000  Uiso   1.00
C512   C     0.53845   0.83961   0.04629   0.00000  Uiso   1.00
C513   C     0.49955   0.83333   0.47652   0.00000  Uiso   1.00
C514   C     0.50045   0.83334   0.02348   0.00000  Uiso   1.00
C515   C     0.53663   0.83960   0.45240   0.00000  Uiso   1.00
C516   C     0.46337   0.82706   0.04760   0.00000  Uiso   1.00
C517   C     0.42520   0.82101   0.47845   0.00000  Uiso   1.00
C518   C     0.57480   0.84565   0.02155   0.00000  Uiso   1.00
C519   C     0.42559   0.82099   0.02484   0.00000  Uiso   1.00
C520   C     0.57441   0.84568   0.47516   0.00000  Uiso   1.00
C521   C     0.35467   0.79081   0.25063   0.00000  Uiso   1.00
C522   C     0.64533   0.87586   0.24937   0.00000  Uiso   1.00
C523   C     0.64541   0.79079   0.25077   0.00000  Uiso   1.00
C524   C     0.35459   0.87587   0.24923   0.00000  Uiso   1.00
C525   C     0.62392   0.83332   0.25014   0.00000  Uiso   1.00
C526   C     0.37608   0.83335   0.24986   0.00000  Uiso   1.00
C527   C     0.47370   0.69151   0.22312   0.00000  Uiso   1.00
C528   C     0.52630   0.97516   0.27688   0.00000  Uiso   1.00
C529   C     0.52630   0.69142   0.27688   0.00000  Uiso   1.00
C530   C     0.47370   0.97524   0.22312   0.00000  Uiso   1.00
N531   N     0.50000   0.95069   0.25000   0.00000  Uiso   1.00
N532   N     0.50000   0.71598   0.25000   0.00000  Uiso   1.00
H533   H     0.56278   0.84426   0.38643   0.00000  Uiso   1.00
H534   H     0.43722   0.82241   0.11357   0.00000  Uiso   1.00
C535   C     0.42034   0.82085   0.38153   0.00000  Uiso   1.00
H536   H     0.42367   0.82195   0.34495   0.00000  Uiso   1.00
H537   H     0.40651   0.78644   0.38995   0.00000  Uiso   1.00
H538   H     0.39865   0.84934   0.39063   0.00000  Uiso   1.00
C539   C     0.57965   0.84582   0.11847   0.00000  Uiso   1.00
H540   H     0.57633   0.84471   0.15505   0.00000  Uiso   1.00
H541   H     0.60135   0.81732   0.10937   0.00000  Uiso   1.00
H542   H     0.59349   0.88023   0.11005   0.00000  Uiso   1.00
H543   H     0.39589   0.81622   0.46192   0.00000  Uiso   1.00
H544   H     0.60411   0.85044   0.03808   0.00000  Uiso   1.00
C545   C     0.38522   0.81449   0.04911   0.00000  Uiso   1.00
H546   H     0.35881   0.81022   0.02589   0.00000  Uiso   1.00
H547   H     0.38671   0.78264   0.07025   0.00000  Uiso   1.00
H548   H     0.37882   0.84556   0.07017   0.00000  Uiso   1.00
C549   C     0.61478   0.85218   0.45089   0.00000  Uiso   1.00
H550   H     0.64119   0.85645   0.47410   0.00000  Uiso   1.00
H551   H     0.62118   0.82111   0.42983   0.00000  Uiso   1.00
H552   H     0.61329   0.88402   0.42975   0.00000  Uiso   1.00
H553   H     0.37074   0.75756   0.25116   0.00000  Uiso   1.00
H554   H     0.62926   0.90911   0.24884   0.00000  Uiso   1.00
H555   H     0.62940   0.75754   0.25139   0.00000  Uiso   1.00
H556   H     0.37060   0.90913   0.24861   0.00000  Uiso   1.00
H557   H     0.45262   0.71022   0.20157   0.00000  Uiso   1.00
H558   H     0.54738   0.95644   0.29843   0.00000  Uiso   1.00
H559   H     0.54738   0.71007   0.29842   0.00000  Uiso   1.00
H560   H     0.45262   0.95660   0.20158   0.00000  Uiso   1.00
O561   O     0.77321   0.87291   0.24999   0.00000  Uiso   1.00
O562   O     0.89345   0.79375   0.25000   0.00000  Uiso   1.00
O563   O     0.89345   0.87291   0.25000   0.00000  Uiso   1.00
O564   O     0.77321   0.79375   0.24999   0.00000  Uiso   1.00
C565   C     0.75403   0.83335   0.24979   0.00000  Uiso   1.00
C566   C     0.91264   0.83332   0.25021   0.00000  Uiso   1.00
O567   O     0.83332   0.87293   0.18513   0.00000  Uiso   1.00
O568   O     0.83334   0.79373   0.31487   0.00000  Uiso   1.00
O569   O     0.83334   0.87293   0.31487   0.00000  Uiso   1.00
O570   O     0.83332   0.79373   0.18513   0.00000  Uiso   1.00
C571   C     0.83376   0.83335   0.16456   0.00000  Uiso   1.00
C572   C     0.83290   0.83332   0.33544   0.00000  Uiso   1.00
Cu573  Cu    0.83333   0.88022   0.25000   0.00000  Uiso   1.00
Cu574  Cu    0.83333   0.78645   0.25000   0.00000  Uiso   1.00
C575   C     0.86842   0.83959   0.40598   0.00000  Uiso   1.00
C576   C     0.79825   0.82707   0.09402   0.00000  Uiso   1.00
C577   C     0.83136   0.83328   0.38353   0.00000  Uiso   1.00
C578   C     0.83530   0.83339   0.11647   0.00000  Uiso   1.00
C579   C     0.79404   0.82701   0.40663   0.00000  Uiso   1.00
C580   C     0.87263   0.83966   0.09337   0.00000  Uiso   1.00
C581   C     0.79489   0.82705   0.45371   0.00000  Uiso   1.00
C582   C     0.87178   0.83961   0.04629   0.00000  Uiso   1.00
C583   C     0.83289   0.83333   0.47652   0.00000  Uiso   1.00
C584   C     0.83378   0.83334   0.02348   0.00000  Uiso   1.00
C585   C     0.86996   0.83960   0.45240   0.00000  Uiso   1.00
C586   C     0.79670   0.82706   0.04760   0.00000  Uiso   1.00
C587   C     0.75854   0.82101   0.47845   0.00000  Uiso   1.00
C588   C     0.90813   0.84565   0.02155   0.00000  Uiso   1.00
C589   C     0.75892   0.82099   0.02484   0.00000  Uiso   1.00
C590   C     0.90775   0.84568   0.47516   0.00000  Uiso   1.00
C591   C     0.68800   0.79081   0.25063   0.00000  Uiso   1.00
C592   C     0.97866   0.87586   0.24937   0.00000  Uiso   1.00
C593   C     0.97874   0.79079   0.25077   0.00000  Uiso   1.00
C594   C     0.68793   0.87587   0.24923   0.00000  Uiso   1.00
C595   C     0.95725   0.83332   0.25014   0.00000  Uiso   1.00
C596   C     0.70942   0.83335   0.24986   0.00000  Uiso   1.00
C597   C     0.80703   0.69151   0.22312   0.00000  Uiso   1.00
C598   C     0.85964   0.97516   0.27688   0.00000  Uiso   1.00
C599   C     0.85964   0.69142   0.27688   0.00000  Uiso   1.00
C600   C     0.80703   0.97524   0.22312   0.00000  Uiso   1.00
N601   N     0.83333   0.95069   0.25000   0.00000  Uiso   1.00
N602   N     0.83333   0.71598   0.25000   0.00000  Uiso   1.00
H603   H     0.89611   0.84426   0.38643   0.00000  Uiso   1.00
H604   H     0.77055   0.82241   0.11357   0.00000  Uiso   1.00
C605   C     0.75368   0.82085   0.38153   0.00000  Uiso   1.00
H606   H     0.75700   0.82195   0.34495   0.00000  Uiso   1.00
H607   H     0.73984   0.78644   0.38995   0.00000  Uiso   1.00
H608   H     0.73198   0.84934   0.39063   0.00000  Uiso   1.00
C609   C     0.91299   0.84582   0.11847   0.00000  Uiso   1.00
H610   H     0.90966   0.84471   0.15505   0.00000  Uiso   1.00
H611   H     0.93468   0.81732   0.10937   0.00000  Uiso   1.00
H612   H     0.92682   0.88023   0.11005   0.00000  Uiso   1.00
H613   H     0.72923   0.81622   0.46192   0.00000  Uiso   1.00
H614   H     0.93744   0.85044   0.03808   0.00000  Uiso   1.00
C615   C     0.71855   0.81449   0.04911   0.00000  Uiso   1.00
H616   H     0.69215   0.81022   0.02589   0.00000  Uiso   1.00
H617   H     0.72004   0.78264   0.07025   0.00000  Uiso   1.00
H618   H     0.71215   0.84556   0.07017   0.00000  Uiso   1.00
C619   C     0.94811   0.85218   0.45089   0.00000  Uiso   1.00
H620   H     0.97452   0.85645   0.47410   0.00000  Uiso   1.00
H621   H     0.95452   0.82111   0.42983   0.00000  Uiso   1.00
H622   H     0.94662   0.88402   0.42975   0.00000  Uiso   1.00
H623   H     0.70407   0.75756   0.25116   0.00000  Uiso   1.00
H624   H     0.96260   0.90911   0.24884   0.00000  Uiso   1.00
H625   H     0.96274   0.75754   0.25139   0.00000  Uiso   1.00
H626   H     0.70393   0.90913   0.24861   0.00000  Uiso   1.00
H627   H     0.78596   0.71022   0.20157   0.00000  Uiso   1.00
H628   H     0.88071   0.95644   0.29843   0.00000  Uiso   1.00
H629   H     0.88071   0.71007   0.29842   0.00000  Uiso   1.00
H630   H     0.78596   0.95660   0.20158   0.00000  Uiso   1.00
O631   O     0.10655   0.20625   0.74999   0.00000  Uiso   1.00
O632   O     0.22679   0.12709   0.75000   0.00000  Uiso   1.00
O633   O     0.22679   0.20625   0.75000   0.00000  Uiso   1.00
O634   O     0.10655   0.12709   0.74999   0.00000  Uiso   1.00
C635   C     0.08736   0.16668   0.74979   0.00000  Uiso   1.00
C636   C     0.24597   0.16665   0.75021   0.00000  Uiso   1.00
O637   O     0.16666   0.20627   0.68513   0.00000  Uiso   1.00
O638   O     0.16668   0.12707   0.81487   0.00000  Uiso   1.00
O639   O     0.16668   0.20627   0.81487   0.00000  Uiso   1.00
O640   O     0.16666   0.12707   0.68513   0.00000  Uiso   1.00
C641   C     0.16710   0.16668   0.66456   0.00000  Uiso   1.00
C642   C     0.16624   0.16665   0.83544   0.00000  Uiso   1.00
Cu643  Cu    0.16667   0.21355   0.75000   0.00000  Uiso   1.00
Cu644  Cu    0.16667   0.11978   0.75000   0.00000  Uiso   1.00
C645   C     0.20175   0.17293   0.90598   0.00000  Uiso   1.00
C646   C     0.13158   0.16041   0.59402   0.00000  Uiso   1.00
C647   C     0.16470   0.16661   0.88353   0.00000  Uiso   1.00
C648   C     0.16864   0.16672   0.61647   0.00000  Uiso   1.00
C649   C     0.12737   0.16034   0.90663   0.00000  Uiso   1.00
C650   C     0.20596   0.17299   0.59337   0.00000  Uiso   1.00
C651   C     0.12822   0.16039   0.95371   0.00000  Uiso   1.00
C652   C     0.20511   0.17295   0.54629   0.00000  Uiso   1.00
C653   C     0.16622   0.16666   0.97652   0.00000  Uiso   1.00
C654   C     0.16711   0.16667   0.52348   0.00000  Uiso   1.00
C655   C     0.20330   0.17294   0.95240   0.00000  Uiso   1.00
C656   C     0.13004   0.16040   0.54760   0.00000  Uiso   1.00
C657   C     0.09187   0.15435   0.97845   0.00000  Uiso   1.00
C658   C     0.24146   0.17899   0.52155   0.00000  Uiso   1.00
C659   C     0.09225   0.15432   0.52484   0.00000  Uiso   1.00
C660   C     0.24108   0.17901   0.97516   0.00000  Uiso   1.00
C661   C     0.02134   0.12414   0.75063   0.00000  Uiso   1.00
C662   C     0.31200   0.20919   0.74937   0.00000  Uiso   1.00
C663   C     0.31207   0.12413   0.75077   0.00000  Uiso   1.00
C664   C     0.02126   0.20921   0.74923   0.00000  Uiso   1.00
C665   C     0.29058   0.16665   0.75014   0.00000  Uiso   1.00
C666   C     0.04275   0.16668   0.74986   0.00000  Uiso   1.00
C667   C     0.14036   0.02484   0.72312   0.00000  Uiso   1.00
C668   C     0.19297   0.30849   0.77688   0.00000  Uiso   1.00
C669   C     0.19297   0.02476   0.77688   0.00000  Uiso   1.00
C670   C     0.14036   0.30858   0.72312   0.00000  Uiso   1.00
N671   N     0.16667   0.28402   0.75000   0.00000  Uiso   1.00
N672   N     0.16667   0.04931   0.75000   0.00000  Uiso   1.00
H673   H     0.22944   0.17759   0.88643   0.00000  Uiso   1.00
H674   H     0.10389   0.15574   0.61357   0.00000  Uiso   1.00
C675   C     0.08701   0.15418   0.88153   0.00000  Uiso   1.00
H676   H     0.09034   0.15529   0.84495   0.00000  Uiso   1.00
H677   H     0.07318   0.11977   0.88995   0.00000  Uiso   1.00
H678   H     0.06531   0.18268   0.89063   0.00000  Uiso   1.00
C679   C     0.24632   0.17915   0.61847   0.00000  Uiso   1.00
H680   H     0.24300   0.17805   0.65505   0.00000  Uiso   1.00
H681   H     0.26802   0.15066   0.60937   0.00000  Uiso   1.00
H682   H     0.26016   0.21356   0.61005   0.00000  Uiso   1.00
H683   H     0.06256   0.14956   0.96192   0.00000  Uiso   1.00
H684   H     0.27077   0.18378   0.53808   0.00000  Uiso   1.00
C685   C     0.05189   0.14782   0.54911   0.00000  Uiso   1.00
H686   H     0.02548   0.14355   0.52589   0.00000  Uiso   1.00
H687   H     0.05338   0.11598   0.57025   0.00000  Uiso   1.00
H688   H     0.04548   0.17889   0.57017   0.00000  Uiso   1.00
C689   C     0.28145   0.18551   0.95089   0.00000  Uiso   1.00
H690   H     0.30785   0.18978   0.97410   0.00000  Uiso   1.00
H691   H     0.28785   0.15444   0.92983   0.00000  Uiso   1.00
H692   H     0.27996   0.21736   0.92975   0.00000  Uiso   1.00
H693   H     0.03740   0.09089   0.75116   0.00000  Uiso   1.00
H694   H     0.29593   0.24244   0.74884   0.00000  Uiso   1.00
H695   H     0.29607   0.09087   0.75139   0.00000  Uiso   1.00
H696   H     0.03726   0.24246   0.74861   0.00000  Uiso   1.00
H697   H     0.11929   0.04356   0.70157   0.00000  Uiso   1.00
H698   H     0.21404   0.28978   0.79843   0.00000  Uiso   1.00
H699   H     0.21404   0.04340   0.79842   0.00000  Uiso   1.00
H700   H     0.11929   0.28993   0.70158   0.00000  Uiso   1.00
O701   O     0.43988   0.20625   0.74999   0.00000  Uiso   1.00
O702   O     0.56012   0.12709   0.75000   0.00000  Uiso   1.00
O703   O     0.56012   0.20625   0.75000   0.00000  Uiso   1.00
O704   O     0.43988   0.12709   0.74999   0.00000  Uiso   1.00
C705   C     0.42070   0.16668   0.74979   0.00000  Uiso   1.00
C706   C     0.57930   0.16665   0.75021   0.00000  Uiso   1.00
O707   O     0.49999   0.20627   0.68513   0.00000  Uiso   1.00
O708   O     0.50001   0.12707   0.81487   0.00000  Uiso   1.00
O709   O     0.50001   0.20627   0.81487   0.00000  Uiso   1.00
O710   O     0.49999   0.12707   0.68513   0.00000  Uiso   1.00
C711   C     0.50043   0.16668   0.66456   0.00000  Uiso   1.00
C712   C     0.49957   0.16665   0.83544   0.00000  Uiso   1.00
Cu713  Cu    0.50000   0.21355   0.75000   0.00000  Uiso   1.00
Cu714  Cu    0.50000   0.11978   0.75000   0.00000  Uiso   1.00
C715   C     0.53509   0.17293   0.90598   0.00000  Uiso   1.00
C716   C     0.46491   0.16041   0.59402   0.00000  Uiso   1.00
C717   C     0.49803   0.16661   0.88353   0.00000  Uiso   1.00
C718   C     0.50197   0.16672   0.61647   0.00000  Uiso   1.00
C719   C     0.46071   0.16034   0.90663   0.00000  Uiso   1.00
C720   C     0.53929   0.17299   0.59337   0.00000  Uiso   1.00
C721   C     0.46155   0.16039   0.95371   0.00000  Uiso   1.00
C722   C     0.53845   0.17295   0.54629   0.00000  Uiso   1.00
C723   C     0.49955   0.16666   0.97652   0.00000  Uiso   1.00
C724   C     0.50045   0.16667   0.52348   0.00000  Uiso   1.00
C725   C     0.53663   0.17294   0.95240   0.00000  Uiso   1.00
C726   C     0.46337   0.16040   0.54760   0.00000  Uiso   1.00
C727   C     0.42520   0.15435   0.97845   0.00000  Uiso   1.00
C728   C     0.57480   0.17899   0.52155   0.00000  Uiso   1.00
C729   C     0.42559   0.15432   0.52484   0.00000  Uiso   1.00
C730   C     0.57441   0.17901   0.97516   0.00000  Uiso   1.00
C731   C     0.35467   0.12414   0.75063   0.00000  Uiso   1.00
C732   C     0.64533   0.20919   0.74937   0.00000  Uiso   1.00
C733   C     0.64541   0.12413   0.75077   0.00000  Uiso   1.00
C734   C     0.35459   0.20921   0.74923   0.00000  Uiso   1.00
C735   C     0.62392   0.16665   0.75014   0.00000  Uiso   1.00
C736   C     0.37608   0.16668   0.74986   0.00000  Uiso   1.00
C737   C     0.47370   0.02484   0.72312   0.00000  Uiso   1.00
C738   C     0.52630   0.30849   0.77688   0.00000  Uiso   1.00
C739   C     0.52630   0.02476   0.77688   0.00000  Uiso   1.00
C740   C     0.47370   0.30858   0.72312   0.00000  Uiso   1.00
N741   N     0.50000   0.28402   0.75000   0.00000  Uiso   1.00
N742   N     0.50000   0.04931   0.75000   0.00000  Uiso   1.00
H743   H     0.56278   0.17759   0.88643   0.00000  Uiso   1.00
H744   H     0.43722   0.15574   0.61357   0.00000  Uiso   1.00
C745   C     0.42034   0.15418   0.88153   0.00000  Uiso   1.00
H746   H     0.42367   0.15529   0.84495   0.00000  Uiso   1.00
H747   H     0.40651   0.11977   0.88995   0.00000  Uiso   1.00
H748   H     0.39865   0.18268   0.89063   0.00000  Uiso   1.00
C749   C     0.57965   0.17915   0.61847   0.00000  Uiso   1.00
H750   H     0.57633   0.17805   0.65505   0.00000  Uiso   1.00
H751   H     0.60135   0.15066   0.60937   0.00000  Uiso   1.00
H752   H     0.59349   0.21356   0.61005   0.00000  Uiso   1.00
H753   H     0.39589   0.14956   0.96192   0.00000  Uiso   1.00
H754   H     0.60411   0.18378   0.53808   0.00000  Uiso   1.00
C755   C     0.38522   0.14782   0.54911   0.00000  Uiso   1.00
H756   H     0.35881   0.14355   0.52589   0.00000  Uiso   1.00
H757   H     0.38671   0.11598   0.57025   0.00000  Uiso   1.00
H758   H     0.37882   0.17889   0.57017   0.00000  Uiso   1.00
C759   C     0.61478   0.18551   0.95089   0.00000  Uiso   1.00
H760   H     0.64119   0.18978   0.97410   0.00000  Uiso   1.00
H761   H     0.62118   0.15444   0.92983   0.00000  Uiso   1.00
H762   H     0.61329   0.21736   0.92975   0.00000  Uiso   1.00
H763   H     0.37074   0.09089   0.75116   0.00000  Uiso   1.00
H764   H     0.62926   0.24244   0.74884   0.00000  Uiso   1.00
H765   H     0.62940   0.09087   0.75139   0.00000  Uiso   1.00
H766   H     0.37060   0.24246   0.74861   0.00000  Uiso   1.00
H767   H     0.45262   0.04356   0.70157   0.00000  Uiso   1.00
H768   H     0.54738   0.28978   0.79843   0.00000  Uiso   1.00
H769   H     0.54738   0.04340   0.79842   0.00000  Uiso   1.00
H770   H     0.45262   0.28993   0.70158   0.00000  Uiso   1.00
O771   O     0.77321   0.20625   0.74999   0.00000  Uiso   1.00
O772   O     0.89345   0.12709   0.75000   0.00000  Uiso   1.00
O773   O     0.89345   0.20625   0.75000   0.00000  Uiso   1.00
O774   O     0.77321   0.12709   0.74999   0.00000  Uiso   1.00
C775   C     0.75403   0.16668   0.74979   0.00000  Uiso   1.00
C776   C     0.91264   0.16665   0.75021   0.00000  Uiso   1.00
O777   O     0.83332   0.20627   0.68513   0.00000  Uiso   1.00
O778   O     0.83334   0.12707   0.81487   0.00000  Uiso   1.00
O779   O     0.83334   0.20627   0.81487   0.00000  Uiso   1.00
O780   O     0.83332   0.12707   0.68513   0.00000  Uiso   1.00
C781   C     0.83376   0.16668   0.66456   0.00000  Uiso   1.00
C782   C     0.83290   0.16665   0.83544   0.00000  Uiso   1.00
Cu783  Cu    0.83333   0.21355   0.75000   0.00000  Uiso   1.00
Cu784  Cu    0.83333   0.11978   0.75000   0.00000  Uiso   1.00
C785   C     0.86842   0.17293   0.90598   0.00000  Uiso   1.00
C786   C     0.79825   0.16041   0.59402   0.00000  Uiso   1.00
C787   C     0.83136   0.16661   0.88353   0.00000  Uiso   1.00
C788   C     0.83530   0.16672   0.61647   0.00000  Uiso   1.00
C789   C     0.79404   0.16034   0.90663   0.00000  Uiso   1.00
C790   C     0.87263   0.17299   0.59337   0.00000  Uiso   1.00
C791   C     0.79489   0.16039   0.95371   0.00000  Uiso   1.00
C792   C     0.87178   0.17295   0.54629   0.00000  Uiso   1.00
C793   C     0.83289   0.16666   0.97652   0.00000  Uiso   1.00
C794   C     0.83378   0.16667   0.52348   0.00000  Uiso   1.00
C795   C     0.86996   0.17294   0.95240   0.00000  Uiso   1.00
C796   C     0.79670   0.16040   0.54760   0.00000  Uiso   1.00
C797   C     0.75854   0.15435   0.97845   0.00000  Uiso   1.00
C798   C     0.90813   0.17899   0.52155   0.00000  Uiso   1.00
C799   C     0.75892   0.15432   0.52484   0.00000  Uiso   1.00
C800   C     0.90775   0.17901   0.97516   0.00000  Uiso   1.00
C801   C     0.68800   0.12414   0.75063   0.00000  Uiso   1.00
C802   C     0.97866   0.20919   0.74937   0.00000  Uiso   1.00
C803   C     0.97874   0.12413   0.75077   0.00000  Uiso   1.00
C804   C     0.68793   0.20921   0.74923   0.00000  Uiso   1.00
C805   C     0.95725   0.16665   0.75014   0.00000  Uiso   1.00
C806   C     0.70942   0.16668   0.74986   0.00000  Uiso   1.00
C807   C     0.80703   0.02484   0.72312   0.00000  Uiso   1.00
C808   C     0.85964   0.30849   0.77688   0.00000  Uiso   1.00
C809   C     0.85964   0.02476   0.77688   0.00000  Uiso   1.00
C810   C     0.80703   0.30858   0.72312   0.00000  Uiso   1.00
N811   N     0.83333   0.28402   0.75000   0.00000  Uiso   1.00
N812   N     0.83333   0.04931   0.75000   0.00000  Uiso   1.00
H813   H     0.89611   0.17759   0.88643   0.00000  Uiso   1.00
H814   H     0.77055   0.15574   0.61357   0.00000  Uiso   1.00
C815   C     0.75368   0.15418   0.88153   0.00000  Uiso   1.00
H816   H     0.75700   0.15529   0.84495   0.00000  Uiso   1.00
H817   H     0.73984   0.11977   0.88995   0.00000  Uiso   1.00
H818   H     0.73198   0.18268   0.89063   0.00000  Uiso   1.00
C819   C     0.91299   0.17915   0.61847   0.00000  Uiso   1.00
H820   H     0.90966   0.17805   0.65505   0.00000  Uiso   1.00
H821   H     0.93468   0.15066   0.60937   0.00000  Uiso   1.00
H822   H     0.92682   0.21356   0.61005   0.00000  Uiso   1.00
H823   H     0.72923   0.14956   0.96192   0.00000  Uiso   1.00
H824   H     0.93744   0.18378   0.53808   0.00000  Uiso   1.00
C825   C     0.71855   0.14782   0.54911   0.00000  Uiso   1.00
H826   H     0.69215   0.14355   0.52589   0.00000  Uiso   1.00
H827   H     0.72004   0.11598   0.57025   0.00000  Uiso   1.00
H828   H     0.71215   0.17889   0.57017   0.00000  Uiso   1.00
C829   C     0.94811   0.18551   0.95089   0.00000  Uiso   1.00
H830   H     0.97452   0.18978   0.97410   0.00000  Uiso   1.00
H831   H     0.95452   0.15444   0.92983   0.00000  Uiso   1.00
H832   H     0.94662   0.21736   0.92975   0.00000  Uiso   1.00
H833   H     0.70407   0.09089   0.75116   0.00000  Uiso   1.00
H834   H     0.96260   0.24244   0.74884   0.00000  Uiso   1.00
H835   H     0.96274   0.09087   0.75139   0.00000  Uiso   1.00
H836   H     0.70393   0.24246   0.74861   0.00000  Uiso   1.00
H837   H     0.78596   0.04356   0.70157   0.00000  Uiso   1.00
H838   H     0.88071   0.28978   0.79843   0.00000  Uiso   1.00
H839   H     0.88071   0.04340   0.79842   0.00000  Uiso   1.00
H840   H     0.78596   0.28993   0.70158   0.00000  Uiso   1.00
O841   O     0.10655   0.53958   0.74999   0.00000  Uiso   1.00
O842   O     0.22679   0.46042   0.75000   0.00000  Uiso   1.00
O843   O     0.22679   0.53958   0.75000   0.00000  Uiso   1.00
O844   O     0.10655   0.46042   0.74999   0.00000  Uiso   1.00
C845   C     0.08736   0.50001   0.74979   0.00000  Uiso   1.00
C846   C     0.24597   0.49999   0.75021   0.00000  Uiso   1.00
O847   O     0.16666   0.53960   0.68513   0.00000  Uiso   1.00
O848   O     0.16668   0.46040   0.81487   0.00000  Uiso   1.00
O849   O     0.16668   0.53960   0.81487   0.00000  Uiso   1.00
O850   O     0.16666   0.46040   0.68513   0.00000  Uiso   1.00
C851   C     0.16710   0.50001   0.66456   0.00000  Uiso   1.00
C852   C     0.16624   0.49999   0.83544   0.00000  Uiso   1.00
Cu853  Cu    0.16667   0.54689   0.75000   0.00000  Uiso   1.00
Cu854  Cu    0.16667   0.45311   0.75000   0.00000  Uiso   1.00
C855   C     0.20175   0.50626   0.90598   0.00000  Uiso   1.00
C856   C     0.13158   0.49374   0.59402   0.00000  Uiso   1.00
C857   C     0.16470   0.49994   0.88353   0.00000  Uiso   1.00
C858   C     0.16864   0.50006   0.61647   0.00000  Uiso   1.00
C859   C     0.12737   0.49368   0.90663   0.00000  Uiso   1.00
C860   C     0.20596   0.50632   0.59337   0.00000  Uiso   1.00
C861   C     0.12822   0.49372   0.95371   0.00000  Uiso   1.00
C862   C     0.20511   0.50628   0.54629   0.00000  Uiso   1.00
C863   C     0.16622   0.49999   0.97652   0.00000  Uiso   1.00
C864   C     0.16711   0.50001   0.52348   0.00000  Uiso   1.00
C865   C     0.20330   0.50627   0.95240   0.00000  Uiso   1.00
C866   C     0.13004   0.49373   0.54760   0.00000  Uiso   1.00
C867   C     0.09187   0.48768   0.97845   0.00000  Uiso   1.00
C868   C     0.24146   0.51232   0.52155   0.00000  Uiso   1.00
C869   C     0.09225   0.48765   0.52484   0.00000  Uiso   1.00
C870   C     0.24108   0.51235   0.97516   0.00000  Uiso   1.00
C871   C     0.02134   0.45747   0.75063   0.00000  Uiso   1.00
C872   C     0.31200   0.54253   0.74937   0.00000  Uiso   1.00
C873   C     0.31207   0.45746   0.75077   0.00000  Uiso   1.00
C874   C     0.02126   0.54254   0.74923   0.00000  Uiso   1.00
C875   C     0.29058   0.49999   0.75014   0.00000  Uiso   1.00
C876   C     0.04275   0.50001   0.74986   0.00000  Uiso   1.00
C877   C     0.14036   0.35818   0.72312   0.00000  Uiso   1.00
C878   C     0.19297   0.64182   0.77688   0.00000  Uiso   1.00
C879   C     0.19297   0.35809   0.77688   0.00000  Uiso   1.00
C880   C     0.14036   0.64191   0.72312   0.00000  Uiso   1.00
N881   N     0.16667   0.61736   0.75000   0.00000  Uiso   1.00
N882   N     0.16667   0.38264   0.75000   0.00000  Uiso   1.00
H883   H     0.22944   0.51092   0.88643   0.00000  Uiso   1.00
H884   H     0.10389   0.48908   0.61357   0.00000  Uiso   1.00
C885   C     0.08701   0.48752   0.88153   0.00000  Uiso   1.00
H886   H     0.09034   0.48862   0.84495   0.00000  Uiso   1.00
H887   H     0.07318   0.45310   0.88995   0.00000  Uiso   1.00
H888   H     0.06531   0.51601   0.89063   0.00000  Uiso   1.00
C889   C     0.24632   0.51248   0.61847   0.00000  Uiso   1.00
H890   H     0.24300   0.51138   0.65505   0.00000  Uiso   1.00
H891   H     0.26802   0.48399   0.60937   0.00000  Uiso   1.00
H892   H     0.26016   0.54690   0.61005   0.00000  Uiso   1.00
H893   H     0.06256   0.48289   0.96192   0.00000  Uiso   1.00
H894   H     0.27077   0.51711   0.53808   0.00000  Uiso   1.00
C895   C     0.05189   0.48116   0.54911   0.00000  Uiso   1.00
H896   H     0.02548   0.47689   0.52589   0.00000  Uiso   1.00
H897   H     0.05338   0.44931   0.57025   0.00000  Uiso   1.00
H898   H     0.04548   0.51222   0.57017   0.00000  Uiso   1.00
C899   C     0.28145   0.51884   0.95089   0.00000  Uiso   1.00
H900   H     0.30785   0.52311   0.97410   0.00000  Uiso   1.00
H901   H     0.28785   0.48778   0.92983   0.00000  Uiso   1.00
H902   H     0.27996   0.55069   0.92975   0.00000  Uiso   1.00
H903   H     0.03740   0.42423   0.75116   0.00000  Uiso   1.00
H904   H     0.29593   0.57577   0.74884   0.00000  Uiso   1.00
H905   H     0.29607   0.42421   0.75139   0.00000  Uiso   1.00
H906   H     0.03726   0.57579   0.74861   0.00000  Uiso   1.00
H907   H     0.11929   0.37689   0.70157   0.00000  Uiso   1.00
H908   H     0.21404   0.62311   0.79843   0.00000  Uiso   1.00
H909   H     0.21404   0.37674   0.79842   0.00000  Uiso   1.00
H910   H     0.11929   0.62326   0.70158   0.00000  Uiso   1.00
O911   O     0.43988   0.53958   0.74999   0.00000  Uiso   1.00
O912   O     0.56012   0.46042   0.75000   0.00000  Uiso   1.00
O913   O     0.56012   0.53958   0.75000   0.00000  Uiso   1.00
O914   O     0.43988   0.46042   0.74999   0.00000  Uiso   1.00
C915   C     0.42070   0.50001   0.74979   0.00000  Uiso   1.00
C916   C     0.57930   0.49999   0.75021   0.00000  Uiso   1.00
O917   O     0.49999   0.53960   0.68513   0.00000  Uiso   1.00
O918   O     0.50001   0.46040   0.81487   0.00000  Uiso   1.00
O919   O     0.50001   0.53960   0.81487   0.00000  Uiso   1.00
O920   O     0.49999   0.46040   0.68513   0.00000  Uiso   1.00
C921   C     0.50043   0.50001   0.66456   0.00000  Uiso   1.00
C922   C     0.49957   0.49999   0.83544   0.00000  Uiso   1.00
Cu923  Cu    0.50000   0.54689   0.75000   0.00000  Uiso   1.00
Cu924  Cu    0.50000   0.45311   0.75000   0.00000  Uiso   1.00
C925   C     0.53509   0.50626   0.90598   0.00000  Uiso   1.00
C926   C     0.46491   0.49374   0.59402   0.00000  Uiso   1.00
C927   C     0.49803   0.49994   0.88353   0.00000  Uiso   1.00
C928   C     0.50197   0.50006   0.61647   0.00000  Uiso   1.00
C929   C     0.46071   0.49368   0.90663   0.00000  Uiso   1.00
C930   C     0.53929   0.50632   0.59337   0.00000  Uiso   1.00
C931   C     0.46155   0.49372   0.95371   0.00000  Uiso   1.00
C932   C     0.53845   0.50628   0.54629   0.00000  Uiso   1.00
C933   C     0.49955   0.49999   0.97652   0.00000  Uiso   1.00
C934   C     0.50045   0.50001   0.52348   0.00000  Uiso   1.00
C935   C     0.53663   0.50627   0.95240   0.00000  Uiso   1.00
C936   C     0.46337   0.49373   0.54760   0.00000  Uiso   1.00
C937   C     0.42520   0.48768   0.97845   0.00000  Uiso   1.00
C938   C     0.57480   0.51232   0.52155   0.00000  Uiso   1.00
C939   C     0.42559   0.48765   0.52484   0.00000  Uiso   1.00
C940   C     0.57441   0.51235   0.97516   0.00000  Uiso   1.00
C941   C     0.35467   0.45747   0.75063   0.00000  Uiso   1.00
C942   C     0.64533   0.54253   0.74937   0.00000  Uiso   1.00
C943   C     0.64541   0.45746   0.75077   0.00000  Uiso   1.00
C944   C     0.35459   0.54254   0.74923   0.00000  Uiso   1.00
C945   C     0.62392   0.49999   0.75014   0.00000  Uiso   1.00
C946   C     0.37608   0.50001   0.74986   0.00000  Uiso   1.00
C947   C     0.47370   0.35818   0.72312   0.00000  Uiso   1.00
C948   C     0.52630   0.64182   0.77688   0.00000  Uiso   1.00
C949   C     0.52630   0.35809   0.77688   0.00000  Uiso   1.00
C950   C     0.47370   0.64191   0.72312   0.00000  Uiso   1.00
N951   N     0.50000   0.61736   0.75000   0.00000  Uiso   1.00
N952   N     0.50000   0.38264   0.75000   0.00000  Uiso   1.00
H953   H     0.56278   0.51092   0.88643   0.00000  Uiso   1.00
H954   H     0.43722   0.48908   0.61357   0.00000  Uiso   1.00
C955   C     0.42034   0.48752   0.88153   0.00000  Uiso   1.00
H956   H     0.42367   0.48862   0.84495   0.00000  Uiso   1.00
H957   H     0.40651   0.45310   0.88995   0.00000  Uiso   1.00
H958   H     0.39865   0.51601   0.89063   0.00000  Uiso   1.00
C959   C     0.57965   0.51248   0.61847   0.00000  Uiso   1.00
H960   H     0.57633   0.51138   0.65505   0.00000  Uiso   1.00
H961   H     0.60135   0.48399   0.60937   0.00000  Uiso   1.00
H962   H     0.59349   0.54690   0.61005   0.00000  Uiso   1.00
H963   H     0.39589   0.48289   0.96192   0.00000  Uiso   1.00
H964   H     0.60411   0.51711   0.53808   0.00000  Uiso   1.00
C965   C     0.38522   0.48116   0.54911   0.00000  Uiso   1.00
H966   H     0.35881   0.47689   0.52589   0.00000  Uiso   1.00
H967   H     0.38671   0.44931   0.57025   0.00000  Uiso   1.00
H968   H     0.37882   0.51222   0.57017   0.00000  Uiso   1.00
C969   C     0.61478   0.51884   0.95089   0.00000  Uiso   1.00
H970   H     0.64119   0.52311   0.97410   0.00000  Uiso   1.00
H971   H     0.62118   0.48778   0.92983   0.00000  Uiso   1.00
H972   H     0.61329   0.55069   0.92975   0.00000  Uiso   1.00
H973   H     0.37074   0.42423   0.75116   0.00000  Uiso   1.00
H974   H     0.62926   0.57577   0.74884   0.00000  Uiso   1.00
H975   H     0.62940   0.42421   0.75139   0.00000  Uiso   1.00
H976   H     0.37060   0.57579   0.74861   0.00000  Uiso   1.00
H977   H     0.45262   0.37689   0.70157   0.00000  Uiso   1.00
H978   H     0.54738   0.62311   0.79843   0.00000  Uiso   1.00
H979   H     0.54738   0.37674   0.79842   0.00000  Uiso   1.00
H980   H     0.45262   0.62326   0.70158   0.00000  Uiso   1.00
O981   O     0.77321   0.53958   0.74999   0.00000  Uiso   1.00
O982   O     0.89345   0.46042   0.75000   0.00000  Uiso   1.00
O983   O     0.89345   0.53958   0.75000   0.00000  Uiso   1.00
O984   O     0.77321   0.46042   0.74999   0.00000  Uiso   1.00
C985   C     0.75403   0.50001   0.74979   0.00000  Uiso   1.00
C986   C     0.91264   0.49999   0.75021   0.00000  Uiso   1.00
O987   O     0.83332   0.53960   0.68513   0.00000  Uiso   1.00
O988   O     0.83334   0.46040   0.81487   0.00000  Uiso   1.00
O989   O     0.83334   0.53960   0.81487   0.00000  Uiso   1.00
O990   O     0.83332   0.46040   0.68513   0.00000  Uiso   1.00
C991   C     0.83376   0.50001   0.66456   0.00000  Uiso   1.00
C992   C     0.83290   0.49999   0.83544   0.00000  Uiso   1.00
Cu993  Cu    0.83333   0.54689   0.75000   0.00000  Uiso   1.00
Cu994  Cu    0.83333   0.45311   0.75000   0.00000  Uiso   1.00
C995   C     0.86842   0.50626   0.90598   0.00000  Uiso   1.00
C996   C     0.79825   0.49374   0.59402   0.00000  Uiso   1.00
C997   C     0.83136   0.49994   0.88353   0.00000  Uiso   1.00
C998   C     0.83530   0.50006   0.61647   0.00000  Uiso   1.00
C999   C     0.79404   0.49368   0.90663   0.00000  Uiso   1.00
C1000  C     0.87263   0.50632   0.59337   0.00000  Uiso   1.00
C1001  C     0.79489   0.49372   0.95371   0.00000  Uiso   1.00
C1002  C     0.87178   0.50628   0.54629   0.00000  Uiso   1.00
C1003  C     0.83289   0.49999   0.97652   0.00000  Uiso   1.00
C1004  C     0.83378   0.50001   0.52348   0.00000  Uiso   1.00
C1005  C     0.86996   0.50627   0.95240   0.00000  Uiso   1.00
C1006  C     0.79670   0.49373   0.54760   0.00000  Uiso   1.00
C1007  C     0.75854   0.48768   0.97845   0.00000  Uiso   1.00
C1008  C     0.90813   0.51232   0.52155   0.00000  Uiso   1.00
C1009  C     0.75892   0.48765   0.52484   0.00000  Uiso   1.00
C1010  C     0.90775   0.51235   0.97516   0.00000  Uiso   1.00
C1011  C     0.68800   0.45747   0.75063   0.00000  Uiso   1.00
C1012  C     0.97866   0.54253   0.74937   0.00000  Uiso   1.00
C1013  C     0.97874   0.45746   0.75077   0.00000  Uiso   1.00
C1014  C     0.68793   0.54254   0.74923   0.00000  Uiso   1.00
C1015  C     0.95725   0.49999   0.75014   0.00000  Uiso   1.00
C1016  C     0.70942   0.50001   0.74986   0.00000  Uiso   1.00
C1017  C     0.80703   0.35818   0.72312   0.00000  Uiso   1.00
C1018  C     0.85964   0.64182   0.77688   0.00000  Uiso   1.00
C1019  C     0.85964   0.35809   0.77688   0.00000  Uiso   1.00
C1020  C     0.80703   0.64191   0.72312   0.00000  Uiso   1.00
N1021  N     0.83333   0.61736   0.75000   0.00000  Uiso   1.00
N1022  N     0.83333   0.38264   0.75000   0.00000  Uiso   1.00
H1023  H     0.89611   0.51092   0.88643   0.00000  Uiso   1.00
H1024  H     0.77055   0.48908   0.61357   0.00000  Uiso   1.00
C1025  C     0.75368   0.48752   0.88153   0.00000  Uiso   1.00
H1026  H     0.75700   0.48862   0.84495   0.00000  Uiso   1.00
H1027  H     0.73984   0.45310   0.88995   0.00000  Uiso   1.00
H1028  H     0.73198   0.51601   0.89063   0.00000  Uiso   1.00
C1029  C     0.91299   0.51248   0.61847   0.00000  Uiso   1.00
H1030  H     0.90966   0.51138   0.65505   0.00000  Uiso   1.00
H1031  H     0.93468   0.48399   0.60937   0.00000  Uiso   1.00
H1032  H     0.92682   0.54690   0.61005   0.00000  Uiso   1.00
H1033  H     0.72923   0.48289   0.96192   0.00000  Uiso   1.00
H1034  H     0.93744   0.51711   0.53808   0.00000  Uiso   1.00
C1035  C     0.71855   0.48116   0.54911   0.00000  Uiso   1.00
H1036  H     0.69215   0.47689   0.52589   0.00000  Uiso   1.00
H1037  H     0.72004   0.44931   0.57025   0.00000  Uiso   1.00
H1038  H     0.71215   0.51222   0.57017   0.00000  Uiso   1.00
C1039  C     0.94811   0.51884   0.95089   0.00000  Uiso   1.00
H1040  H     0.97452   0.52311   0.97410   0.00000  Uiso   1.00
H1041  H     0.95452   0.48778   0.92983   0.00000  Uiso   1.00
H1042  H     0.94662   0.55069   0.92975   0.00000  Uiso   1.00
H1043  H     0.70407   0.42423   0.75116   0.00000  Uiso   1.00
H1044  H     0.96260   0.57577   0.74884   0.00000  Uiso   1.00
H1045  H     0.96274   0.42421   0.75139   0.00000  Uiso   1.00
H1046  H     0.70393   0.57579   0.74861   0.00000  Uiso   1.00
H1047  H     0.78596   0.37689   0.70157   0.00000  Uiso   1.00
H1048  H     0.88071   0.62311   0.79843   0.00000  Uiso   1.00
H1049  H     0.88071   0.37674   0.79842   0.00000  Uiso   1.00
H1050  H     0.78596   0.62326   0.70158   0.00000  Uiso   1.00
O1051  O     0.10655   0.87291   0.74999   0.00000  Uiso   1.00
O1052  O     0.22679   0.79375   0.75000   0.00000  Uiso   1.00
O1053  O     0.22679   0.87291   0.75000   0.00000  Uiso   1.00
O1054  O     0.10655   0.79375   0.74999   0.00000  Uiso   1.00
C1055  C     0.08736   0.83335   0.74979   0.00000  Uiso   1.00
C1056  C     0.24597   0.83332   0.75021   0.00000  Uiso   1.00
O1057  O     0.16666   0.87293   0.68513   0.00000  Uiso   1.00
O1058  O     0.16668   0.79373   0.81487   0.00000  Uiso   1.00
O1059  O     0.16668   0.87293   0.81487   0.00000  Uiso   1.00
O1060  O     0.16666   0.79373   0.68513   0.00000  Uiso   1.00
C1061  C     0.16710   0.83335   0.66456   0.00000  Uiso   1.00
C1062  C     0.16624   0.83332   0.83544   0.00000  Uiso   1.00
Cu1063 Cu    0.16667   0.88022   0.75000   0.00000  Uiso   1.00
Cu1064 Cu    0.16667   0.78645   0.75000   0.00000  Uiso   1.00
C1065  C     0.20175   0.83959   0.90598   0.00000  Uiso   1.00
C1066  C     0.13158   0.82707   0.59402   0.00000  Uiso   1.00
C1067  C     0.16470   0.83328   0.88353   0.00000  Uiso   1.00
C1068  C     0.16864   0.83339   0.61647   0.00000  Uiso   1.00
C1069  C     0.12737   0.82701   0.90663   0.00000  Uiso   1.00
C1070  C     0.20596   0.83966   0.59337   0.00000  Uiso   1.00
C1071  C     0.12822   0.82705   0.95371   0.00000  Uiso   1.00
C1072  C     0.20511   0.83961   0.54629   0.00000  Uiso   1.00
C1073  C     0.16622   0.83333   0.97652   0.00000  Uiso   1.00
C1074  C     0.16711   0.83334   0.52348   0.00000  Uiso   1.00
C1075  C     0.20330   0.83960   0.95240   0.00000  Uiso   1.00
C1076  C     0.13004   0.82706   0.54760   0.00000  Uiso   1.00
C1077  C     0.09187   0.82101   0.97845   0.00000  Uiso   1.00
C1078  C     0.24146   0.84565   0.52155   0.00000  Uiso   1.00
C1079  C     0.09225   0.82099   0.52484   0.00000  Uiso   1.00
C1080  C     0.24108   0.84568   0.97516   0.00000  Uiso   1.00
C1081  C     0.02134   0.79081   0.75063   0.00000  Uiso   1.00
C1082  C     0.31200   0.87586   0.74937   0.00000  Uiso   1.00
C1083  C     0.31207   0.79079   0.75077   0.00000  Uiso   1.00
C1084  C     0.02126   0.87587   0.74923   0.00000  Uiso   1.00
C1085  C     0.29058   0.83332   0.75014   0.00000  Uiso   1.00
C1086  C     0.04275   0.83335   0.74986   0.00000  Uiso   1.00
C1087  C     0.14036   0.69151   0.72312   0.00000  Uiso   1.00
C1088  C     0.19297   0.97516   0.77688   0.00000  Uiso   1.00
C1089  C     0.19297   0.69142   0.77688   0.00000  Uiso   1.00
C1090  C     0.14036   0.97524   0.72312   0.00000  Uiso   1.00
N1091  N     0.16667   0.95069   0.75000   0.00000  Uiso   1.00
N1092  N     0.16667   0.71598   0.75000   0.00000  Uiso   1.00
H1093  H     0.22944   0.84426   0.88643   0.00000  Uiso   1.00
H1094  H     0.10389   0.82241   0.61357   0.00000  Uiso   1.00
C1095  C     0.08701   0.82085   0.88153   0.00000  Uiso   1.00
H1096  H     0.09034   0.82195   0.84495   0.00000  Uiso   1.00
H1097  H     0.07318   0.78644   0.88995   0.00000  Uiso   1.00
H1098  H     0.06531   0.84934   0.89063   0.00000  Uiso   1.00
C1099  C     0.24632   0.84582   0.61847   0.00000  Uiso   1.00
H1100  H     0.24300   0.84471   0.65505   0.00000  Uiso   1.00
H1101  H     0.26802   0.81732   0.60937   0.00000  Uiso   1.00
H1102  H     0.26016   0.88023   0.61005   0.00000  Uiso   1.00
H1103  H     0.06256   0.81622   0.96192   0.00000  Uiso   1.00
H1104  H     0.27077   0.85044   0.53808   0.00000  Uiso   1.00
C1105  C     0.05189   0.81449   0.54911   0.00000  Uiso   1.00
H1106  H     0.02548   0.81022   0.52589   0.00000  Uiso   1.00
H1107  H     0.05338   0.78264   0.57025   0.00000  Uiso   1.00
H1108  H     0.04548   0.84556   0.57017   0.00000  Uiso   1.00
C1109  C     0.28145   0.85218   0.95089   0.00000  Uiso   1.00
H1110  H     0.30785   0.85645   0.97410   0.00000  Uiso   1.00
H1111  H     0.28785   0.82111   0.92983   0.00000  Uiso   1.00
H1112  H     0.27996   0.88402   0.92975   0.00000  Uiso   1.00
H1113  H     0.03740   0.75756   0.75116   0.00000  Uiso   1.00
H1114  H     0.29593   0.90911   0.74884   0.00000  Uiso   1.00
H1115  H     0.29607   0.75754   0.75139   0.00000  Uiso   1.00
H1116  H     0.03726   0.90913   0.74861   0.00000  Uiso   1.00
H1117  H     0.11929   0.71022   0.70157   0.00000  Uiso   1.00
H1118  H     0.21404   0.95644   0.79843   0.00000  Uiso   1.00
H1119  H     0.21404   0.71007   0.79842   0.00000  Uiso   1.00
H1120  H     0.11929   0.95660   0.70158   0.00000  Uiso   1.00
O1121  O     0.43988   0.87291   0.74999   0.00000  Uiso   1.00
O1122  O     0.56012   0.79375   0.75000   0.00000  Uiso   1.00
O1123  O     0.56012   0.87291   0.75000   0.00000  Uiso   1.00
O1124  O     0.43988   0.79375   0.74999   0.00000  Uiso   1.00
C1125  C     0.42070   0.83335   0.74979   0.00000  Uiso   1.00
C1126  C     0.57930   0.83332   0.75021   0.00000  Uiso   1.00
O1127  O     0.49999   0.87293   0.68513   0.00000  Uiso   1.00
O1128  O     0.50001   0.79373   0.81487   0.00000  Uiso   1.00
O1129  O     0.50001   0.87293   0.81487   0.00000  Uiso   1.00
O1130  O     0.49999   0.79373   0.68513   0.00000  Uiso   1.00
C1131  C     0.50043   0.83335   0.66456   0.00000  Uiso   1.00
C1132  C     0.49957   0.83332   0.83544   0.00000  Uiso   1.00
Cu1133 Cu    0.50000   0.88022   0.75000   0.00000  Uiso   1.00
Cu1134 Cu    0.50000   0.78645   0.75000   0.00000  Uiso   1.00
C1135  C     0.53509   0.83959   0.90598   0.00000  Uiso   1.00
C1136  C     0.46491   0.82707   0.59402   0.00000  Uiso   1.00
C1137  C     0.49803   0.83328   0.88353   0.00000  Uiso   1.00
C1138  C     0.50197   0.83339   0.61647   0.00000  Uiso   1.00
C1139  C     0.46071   0.82701   0.90663   0.00000  Uiso   1.00
C1140  C     0.53929   0.83966   0.59337   0.00000  Uiso   1.00
C1141  C     0.46155   0.82705   0.95371   0.00000  Uiso   1.00
C1142  C     0.53845   0.83961   0.54629   0.00000  Uiso   1.00
C1143  C     0.49955   0.83333   0.97652   0.00000  Uiso   1.00
C1144  C     0.50045   0.83334   0.52348   0.00000  Uiso   1.00
C1145  C     0.53663   0.83960   0.95240   0.00000  Uiso   1.00
C1146  C     0.46337   0.82706   0.54760   0.00000  Uiso   1.00
C1147  C     0.42520   0.82101   0.97845   0.00000  Uiso   1.00
C1148  C     0.57480   0.84565   0.52155   0.00000  Uiso   1.00
C1149  C     0.42559   0.82099   0.52484   0.00000  Uiso   1.00
C1150  C     0.57441   0.84568   0.97516   0.00000  Uiso   1.00
C1151  C     0.35467   0.79081   0.75063   0.00000  Uiso   1.00
C1152  C     0.64533   0.87586   0.74937   0.00000  Uiso   1.00
C1153  C     0.64541   0.79079   0.75077   0.00000  Uiso   1.00
C1154  C     0.35459   0.87587   0.74923   0.00000  Uiso   1.00
C1155  C     0.62392   0.83332   0.75014   0.00000  Uiso   1.00
C1156  C     0.37608   0.83335   0.74986   0.00000  Uiso   1.00
C1157  C     0.47370   0.69151   0.72312   0.00000  Uiso   1.00
C1158  C     0.52630   0.97516   0.77688   0.00000  Uiso   1.00
C1159  C     0.52630   0.69142   0.77688   0.00000  Uiso   1.00
C1160  C     0.47370   0.97524   0.72312   0.00000  Uiso   1.00
N1161  N     0.50000   0.95069   0.75000   0.00000  Uiso   1.00
N1162  N     0.50000   0.71598   0.75000   0.00000  Uiso   1.00
H1163  H     0.56278   0.84426   0.88643   0.00000  Uiso   1.00
H1164  H     0.43722   0.82241   0.61357   0.00000  Uiso   1.00
C1165  C     0.42034   0.82085   0.88153   0.00000  Uiso   1.00
H1166  H     0.42367   0.82195   0.84495   0.00000  Uiso   1.00
H1167  H     0.40651   0.78644   0.88995   0.00000  Uiso   1.00
H1168  H     0.39865   0.84934   0.89063   0.00000  Uiso   1.00
C1169  C     0.57965   0.84582   0.61847   0.00000  Uiso   1.00
H1170  H     0.57633   0.84471   0.65505   0.00000  Uiso   1.00
H1171  H     0.60135   0.81732   0.60937   0.00000  Uiso   1.00
H1172  H     0.59349   0.88023   0.61005   0.00000  Uiso   1.00
H1173  H     0.39589   0.81622   0.96192   0.00000  Uiso   1.00
H1174  H     0.60411   0.85044   0.53808   0.00000  Uiso   1.00
C1175  C     0.38522   0.81449   0.54911   0.00000  Uiso   1.00
H1176  H     0.35881   0.81022   0.52589   0.00000  Uiso   1.00
H1177  H     0.38671   0.78264   0.57025   0.00000  Uiso   1.00
H1178  H     0.37882   0.84556   0.57017   0.00000  Uiso   1.00
C1179  C     0.61478   0.85218   0.95089   0.00000  Uiso   1.00
H1180  H     0.64119   0.85645   0.97410   0.00000  Uiso   1.00
H1181  H     0.62118   0.82111   0.92983   0.00000  Uiso   1.00
H1182  H     0.61329   0.88402   0.92975   0.00000  Uiso   1.00
H1183  H     0.37074   0.75756   0.75116   0.00000  Uiso   1.00
H1184  H     0.62926   0.90911   0.74884   0.00000  Uiso   1.00
H1185  H     0.62940   0.75754   0.75139   0.00000  Uiso   1.00
H1186  H     0.37060   0.90913   0.74861   0.00000  Uiso   1.00
H1187  H     0.45262   0.71022   0.70157   0.00000  Uiso   1.00
H1188  H     0.54738   0.95644   0.79843   0.00000  Uiso   1.00
H1189  H     0.54738   0.71007   0.79842   0.00000  Uiso   1.00
H1190  H     0.45262   0.95660   0.70158   0.00000  Uiso   1.00
O1191  O     0.77321   0.87291   0.74999   0.00000  Uiso   1.00
O1192  O     0.89345   0.79375   0.75000   0.00000  Uiso   1.00
O1193  O     0.89345   0.87291   0.75000   0.00000  Uiso   1.00
O1194  O     0.77321   0.79375   0.74999   0.00000  Uiso   1.00
C1195  C     0.75403   0.83335   0.74979   0.00000  Uiso   1.00
C1196  C     0.91264   0.83332   0.75021   0.00000  Uiso   1.00
O1197  O     0.83332   0.87293   0.68513   0.00000  Uiso   1.00
O1198  O     0.83334   0.79373   0.81487   0.00000  Uiso   1.00
O1199  O     0.83334   0.87293   0.81487   0.00000  Uiso   1.00
O1200  O     0.83332   0.79373   0.68513   0.00000  Uiso   1.00
C1201  C     0.83376   0.83335   0.66456   0.00000  Uiso   1.00
C1202  C     0.83290   0.83332   0.83544   0.00000  Uiso   1.00
Cu1203 Cu    0.83333   0.88022   0.75000   0.00000  Uiso   1.00
Cu1204 Cu    0.83333   0.78645   0.75000   0.00000  Uiso   1.00
C1205  C     0.86842   0.83959   0.90598   0.00000  Uiso   1.00
C1206  C     0.79825   0.82707   0.59402   0.00000  Uiso   1.00
C1207  C     0.83136   0.83328   0.88353   0.00000  Uiso   1.00
C1208  C     0.83530   0.83339   0.61647   0.00000  Uiso   1.00
C1209  C     0.79404   0.82701   0.90663   0.00000  Uiso   1.00
C1210  C     0.87263   0.83966   0.59337   0.00000  Uiso   1.00
C1211  C     0.79489   0.82705   0.95371   0.00000  Uiso   1.00
C1212  C     0.87178   0.83961   0.54629   0.00000  Uiso   1.00
C1213  C     0.83289   0.83333   0.97652   0.00000  Uiso   1.00
C1214  C     0.83378   0.83334   0.52348   0.00000  Uiso   1.00
C1215  C     0.86996   0.83960   0.95240   0.00000  Uiso   1.00
C1216  C     0.79670   0.82706   0.54760   0.00000  Uiso   1.00
C1217  C     0.75854   0.82101   0.97845   0.00000  Uiso   1.00
C1218  C     0.90813   0.84565   0.52155   0.00000  Uiso   1.00
C1219  C     0.75892   0.82099   0.52484   0.00000  Uiso   1.00
C1220  C     0.90775   0.84568   0.97516   0.00000  Uiso   1.00
C1221  C     0.68800   0.79081   0.75063   0.00000  Uiso   1.00
C1222  C     0.97866   0.87586   0.74937   0.00000  Uiso   1.00
C1223  C     0.97874   0.79079   0.75077   0.00000  Uiso   1.00
C1224  C     0.68793   0.87587   0.74923   0.00000  Uiso   1.00
C1225  C     0.95725   0.83332   0.75014   0.00000  Uiso   1.00
C1226  C     0.70942   0.83335   0.74986   0.00000  Uiso   1.00
C1227  C     0.80703   0.69151   0.72312   0.00000  Uiso   1.00
C1228  C     0.85964   0.97516   0.77688   0.00000  Uiso   1.00
C1229  C     0.85964   0.69142   0.77688   0.00000  Uiso   1.00
C1230  C     0.80703   0.97524   0.72312   0.00000  Uiso   1.00
N1231  N     0.83333   0.95069   0.75000   0.00000  Uiso   1.00
N1232  N     0.83333   0.71598   0.75000   0.00000  Uiso   1.00
H1233  H     0.89611   0.84426   0.88643   0.00000  Uiso   1.00
H1234  H     0.77055   0.82241   0.61357   0.00000  Uiso   1.00
C1235  C     0.75368   0.82085   0.88153   0.00000  Uiso   1.00
H1236  H     0.75700   0.82195   0.84495   0.00000  Uiso   1.00
H1237  H     0.73984   0.78644   0.88995   0.00000  Uiso   1.00
H1238  H     0.73198   0.84934   0.89063   0.00000  Uiso   1.00
C1239  C     0.91299   0.84582   0.61847   0.00000  Uiso   1.00
H1240  H     0.90966   0.84471   0.65505   0.00000  Uiso   1.00
H1241  H     0.93468   0.81732   0.60937   0.00000  Uiso   1.00
H1242  H     0.92682   0.88023   0.61005   0.00000  Uiso   1.00
H1243  H     0.72923   0.81622   0.96192   0.00000  Uiso   1.00
H1244  H     0.93744   0.85044   0.53808   0.00000  Uiso   1.00
C1245  C     0.71855   0.81449   0.54911   0.00000  Uiso   1.00
H1246  H     0.69215   0.81022   0.52589   0.00000  Uiso   1.00
H1247  H     0.72004   0.78264   0.57025   0.00000  Uiso   1.00
H1248  H     0.71215   0.84556   0.57017   0.00000  Uiso   1.00
C1249  C     0.94811   0.85218   0.95089   0.00000  Uiso   1.00
H1250  H     0.97452   0.85645   0.97410   0.00000  Uiso   1.00
H1251  H     0.95452   0.82111   0.92983   0.00000  Uiso   1.00
H1252  H     0.94662   0.88402   0.92975   0.00000  Uiso   1.00
H1253  H     0.70407   0.75756   0.75116   0.00000  Uiso   1.00
H1254  H     0.96260   0.90911   0.74884   0.00000  Uiso   1.00
H1255  H     0.96274   0.75754   0.75139   0.00000  Uiso   1.00
H1256  H     0.70393   0.90913   0.74861   0.00000  Uiso   1.00
H1257  H     0.78596   0.71022   0.70157   0.00000  Uiso   1.00
H1258  H     0.88071   0.95644   0.79843   0.00000  Uiso   1.00
H1259  H     0.88071   0.71007   0.79842   0.00000  Uiso   1.00
H1260  H     0.78596   0.95660   0.70158   0.00000  Uiso   1.00
loop_
_geom_bond_atom_site_label_1
_geom_bond_atom_site_label_2
_geom_bond_distance
_geom_bond_site_symmetry_2
_ccdc_geom_bond_type
O1     C5      1.291   .     A
O1     Cu13    1.963   .     S
O2     C6      1.291   .     A
O2     Cu14    1.963   .     S
O3     Cu13    1.962   .     S
O3     C6      1.291   .     A
O4     Cu14    1.962   .     S
O4     C5      1.291   .     A
C5     C36     1.448   .     S
C6     C35     1.448   .     S
O7     C11     1.290   .     A
O7     Cu13    1.962   .     S
O8     Cu14    1.962   .     S
O8     C12     1.290   .     A
O9     C12     1.290   .     A
O9     Cu13    1.962   .     S
O10    C11     1.290   .     A
O10    Cu14    1.962   .     S
C11    C18     1.447   .     S
C12    C17     1.447   .     S
Cu13   N41     2.014   .     S
Cu13   Cu14    2.679   .     S
Cu14   N42     2.014   .     S
C15    C25     1.397   .     A
C15    H43     1.083   .     S
C15    C17     1.390   .     A
C16    H44     1.083   .     S
C16    C18     1.390   .     A
C16    C26     1.397   .     A
C17    C19     1.409   .     A
C18    C20     1.409   .     A
C19    C21     1.416   .     A
C19    C45     1.521   .     S
C20    C49     1.521   .     S
C20    C22     1.416   .     A
C21    C23     1.421   .     A
C21    C27     1.407   .     A
C22    C28     1.407   .     A
C22    C24     1.421   .     A
C23    C25     1.418   .     A
C23    C654    1.412   .     S
C24    C26     1.418   .     A
C24    C653    1.412   1_554 S
C25    C30     1.414   .     A
C26    C29     1.414   .     A
C27    H53     1.081   .     S
C27    C659    1.395   .     S
C28    H54     1.081   .     S
C28    C660    1.395   1_554 S
C29    C55     1.513   .     S
C29    C657    1.395   1_554 S
C30    C59     1.513   .     S
C30    C658    1.395   .     S
C31    H63     1.083   .     S
C31    C36     1.401   .     A
C31    C173    1.383   1_455 S
C32    C35     1.401   .     A
C32    H64     1.083   .     S
C32    C104    1.383   .     S
C33    H65     1.083   .     S
C33    C35     1.401   .     A
C33    C101    1.383   .     S
C34    H66     1.083   .     S
C34    C36     1.401   .     A
C34    C172    1.383   1_455 S
C37    H67     1.082   .     S
C37    N42     1.367   .     A
C37    C460    1.417   1_545 S
C38    N41     1.367   .     A
C38    H68     1.082   .     S
C38    C249    1.417   .     S
C39    H69     1.082   .     S
C39    N42     1.367   .     A
C39    C458    1.417   1_545 S
C40    H70     1.082   .     S
C40    N41     1.367   .     A
C40    C247    1.417   .     S
C45    H46     1.106   .     S
C45    H47     1.111   .     S
C45    H48     1.111   .     S
C49    H52     1.111   .     S
C49    H50     1.106   .     S
C49    H51     1.111   .     S
C55    H56     1.111   .     S
C55    H57     1.110   .     S
C55    H58     1.111   .     S
C59    H61     1.111   .     S
C59    H60     1.111   .     S
C59    H62     1.110   .     S
O71    C75     1.291   .     A
O71    Cu83    1.963   .     S
O72    C76     1.291   .     A
O72    Cu84    1.963   .     S
O73    Cu83    1.962   .     S
O73    C76     1.291   .     A
O74    Cu84    1.962   .     S
O74    C75     1.291   .     A
C75    C106    1.448   .     S
C76    C105    1.448   .     S
O77    C81     1.290   .     A
O77    Cu83    1.962   .     S
O78    Cu84    1.962   .     S
O78    C82     1.290   .     A
O79    C82     1.290   .     A
O79    Cu83    1.962   .     S
O80    C81     1.290   .     A
O80    Cu84    1.962   .     S
C81    C88     1.447   .     S
C82    C87     1.447   .     S
Cu83   N111    2.014   .     S
Cu83   Cu84    2.679   .     S
Cu84   N112    2.014   .     S
C85    C95     1.397   .     A
C85    H113    1.083   .     S
C85    C87     1.390   .     A
C86    H114    1.083   .     S
C86    C88     1.390   .     A
C86    C96     1.397   .     A
C87    C89     1.409   .     A
C88    C90     1.409   .     A
C89    C91     1.416   .     A
C89    C115    1.521   .     S
C90    C119    1.521   .     S
C90    C92     1.416   .     A
C91    C93     1.421   .     A
C91    C97     1.407   .     A
C92    C98     1.407   .     A
C92    C94     1.421   .     A
C93    C95     1.418   .     A
C93    C724    1.412   .     S
C94    C96     1.418   .     A
C94    C723    1.412   1_554 S
C95    C100    1.414   .     A
C96    C99     1.414   .     A
C97    H123    1.081   .     S
C97    C729    1.395   .     S
C98    H124    1.081   .     S
C98    C730    1.395   1_554 S
C99    C125    1.513   .     S
C99    C727    1.395   1_554 S
C100   C129    1.513   .     S
C100   C728    1.395   .     S
C101   H133    1.083   .     S
C101   C106    1.401   .     A
C102   C105    1.401   .     A
C102   H134    1.083   .     S
C102   C174    1.383   .     S
C103   H135    1.083   .     S
C103   C105    1.401   .     A
C103   C171    1.383   .     S
C104   H136    1.083   .     S
C104   C106    1.401   .     A
C107   H137    1.082   .     S
C107   N112    1.367   .     A
C107   C530    1.417   1_545 S
C108   N111    1.367   .     A
C108   H138    1.082   .     S
C108   C319    1.417   .     S
C109   H139    1.082   .     S
C109   N112    1.367   .     A
C109   C528    1.417   1_545 S
C110   H140    1.082   .     S
C110   N111    1.367   .     A
C110   C317    1.417   .     S
C115   H116    1.106   .     S
C115   H117    1.111   .     S
C115   H118    1.111   .     S
C119   H122    1.111   .     S
C119   H120    1.106   .     S
C119   H121    1.111   .     S
C125   H126    1.111   .     S
C125   H127    1.110   .     S
C125   H128    1.111   .     S
C129   H131    1.111   .     S
C129   H130    1.111   .     S
C129   H132    1.110   .     S
O141   C145    1.291   .     A
O141   Cu153   1.963   .     S
O142   C146    1.291   .     A
O142   Cu154   1.963   .     S
O143   Cu153   1.962   .     S
O143   C146    1.291   .     A
O144   Cu154   1.962   .     S
O144   C145    1.291   .     A
C145   C176    1.448   .     S
C146   C175    1.448   .     S
O147   C151    1.290   .     A
O147   Cu153   1.962   .     S
O148   Cu154   1.962   .     S
O148   C152    1.290   .     A
O149   C152    1.290   .     A
O149   Cu153   1.962   .     S
O150   C151    1.290   .     A
O150   Cu154   1.962   .     S
C151   C158    1.447   .     S
C152   C157    1.447   .     S
Cu153  N181    2.014   .     S
Cu153  Cu154   2.679   .     S
Cu154  N182    2.014   .     S
C155   C165    1.397   .     A
C155   H183    1.083   .     S
C155   C157    1.390   .     A
C156   H184    1.083   .     S
C156   C158    1.390   .     A
C156   C166    1.397   .     A
C157   C159    1.409   .     A
C158   C160    1.409   .     A
C159   C161    1.416   .     A
C159   C185    1.521   .     S
C160   C189    1.521   .     S
C160   C162    1.416   .     A
C161   C163    1.421   .     A
C161   C167    1.407   .     A
C162   C168    1.407   .     A
C162   C164    1.421   .     A
C163   C165    1.418   .     A
C163   C794    1.412   .     S
C164   C166    1.418   .     A
C164   C793    1.412   1_554 S
C165   C170    1.414   .     A
C166   C169    1.414   .     A
C167   H193    1.081   .     S
C167   C799    1.395   .     S
C168   H194    1.081   .     S
C168   C800    1.395   1_554 S
C169   C195    1.513   .     S
C169   C797    1.395   1_554 S
C170   C199    1.513   .     S
C170   C798    1.395   .     S
C171   H203    1.083   .     S
C171   C176    1.401   .     A
C172   C175    1.401   .     A
C172   H204    1.083   .     S
C172   C34     1.383   1_655 S
C173   H205    1.083   .     S
C173   C175    1.401   .     A
C173   C31     1.383   1_655 S
C174   H206    1.083   .     S
C174   C176    1.401   .     A
C177   H207    1.082   .     S
C177   N182    1.367   .     A
C177   C600    1.417   1_545 S
C178   N181    1.367   .     A
C178   H208    1.082   .     S
C178   C389    1.417   .     S
C179   H209    1.082   .     S
C179   N182    1.367   .     A
C179   C598    1.417   1_545 S
C180   H210    1.082   .     S
C180   N181    1.367   .     A
C180   C387    1.417   .     S
C185   H186    1.106   .     S
C185   H187    1.111   .     S
C185   H188    1.111   .     S
C189   H192    1.111   .     S
C189   H190    1.106   .     S
C189   H191    1.111   .     S
C195   H196    1.111   .     S
C195   H197    1.110   .     S
C195   H198    1.111   .     S
C199   H201    1.111   .     S
C199   H200    1.111   .     S
C199   H202    1.110   .     S
O211   C215    1.291   .     A
O211   Cu223   1.963   .     S
O212   C216    1.291   .     A
O212   Cu224   1.963   .     S
O213   Cu223   1.962   .     S
O213   C216    1.291   .     A
O214   Cu224   1.962   .     S
O214   C215    1.291   .     A
C215   C246    1.448   .     S
C216   C245    1.448   .     S
O217   C221    1.290   .     A
O217   Cu223   1.962   .     S
O218   Cu224   1.962   .     S
O218   C222    1.290   .     A
O219   C222    1.290   .     A
O219   Cu223   1.962   .     S
O220   C221    1.290   .     A
O220   Cu224   1.962   .     S
C221   C228    1.447   .     S
C222   C227    1.447   .     S
Cu223  N251    2.014   .     S
Cu223  Cu224   2.679   .     S
Cu224  N252    2.014   .     S
C225   C235    1.397   .     A
C225   H253    1.083   .     S
C225   C227    1.390   .     A
C226   H254    1.083   .     S
C226   C228    1.390   .     A
C226   C236    1.397   .     A
C227   C229    1.409   .     A
C228   C230    1.409   .     A
C229   C231    1.416   .     A
C229   C255    1.521   .     S
C230   C259    1.521   .     S
C230   C232    1.416   .     A
C231   C233    1.421   .     A
C231   C237    1.407   .     A
C232   C238    1.407   .     A
C232   C234    1.421   .     A
C233   C235    1.418   .     A
C233   C864    1.412   .     S
C234   C236    1.418   .     A
C234   C863    1.412   1_554 S
C235   C240    1.414   .     A
C236   C239    1.414   .     A
C237   H263    1.081   .     S
C237   C869    1.395   .     S
C238   H264    1.081   .     S
C238   C870    1.395   1_554 S
C239   C265    1.513   .     S
C239   C867    1.395   1_554 S
C240   C269    1.513   .     S
C240   C868    1.395   .     S
C241   H273    1.083   .     S
C241   C246    1.401   .     A
C241   C383    1.383   1_455 S
C242   C245    1.401   .     A
C242   H274    1.083   .     S
C242   C314    1.383   .     S
C243   H275    1.083   .     S
C243   C245    1.401   .     A
C243   C311    1.383   .     S
C244   H276    1.083   .     S
C244   C246    1.401   .     A
C244   C382    1.383   1_455 S
C247   H277    1.082   .     S
C247   N252    1.367   .     A
C248   N251    1.367   .     A
C248   H278    1.082   .     S
C248   C459    1.417   .     S
C249   H279    1.082   .     S
C249   N252    1.367   .     A
C250   H280    1.082   .     S
C250   N251    1.367   .     A
C250   C457    1.417   .     S
C255   H256    1.106   .     S
C255   H257    1.111   .     S
C255   H258    1.111   .     S
C259   H262    1.111   .     S
C259   H260    1.106   .     S
C259   H261    1.111   .     S
C265   H266    1.111   .     S
C265   H267    1.110   .     S
C265   H268    1.111   .     S
C269   H271    1.111   .     S
C269   H270    1.111   .     S
C269   H272    1.110   .     S
O281   C285    1.291   .     A
O281   Cu293   1.963   .     S
O282   C286    1.291   .     A
O282   Cu294   1.963   .     S
O283   Cu293   1.962   .     S
O283   C286    1.291   .     A
O284   Cu294   1.962   .     S
O284   C285    1.291   .     A
C285   C316    1.448   .     S
C286   C315    1.448   .     S
O287   C291    1.290   .     A
O287   Cu293   1.962   .     S
O288   Cu294   1.962   .     S
O288   C292    1.290   .     A
O289   C292    1.290   .     A
O289   Cu293   1.962   .     S
O290   C291    1.290   .     A
O290   Cu294   1.962   .     S
C291   C298    1.447   .     S
C292   C297    1.447   .     S
Cu293  N321    2.014   .     S
Cu293  Cu294   2.679   .     S
Cu294  N322    2.014   .     S
C295   C305    1.397   .     A
C295   H323    1.083   .     S
C295   C297    1.390   .     A
C296   H324    1.083   .     S
C296   C298    1.390   .     A
C296   C306    1.397   .     A
C297   C299    1.409   .     A
C298   C300    1.409   .     A
C299   C301    1.416   .     A
C299   C325    1.521   .     S
C300   C329    1.521   .     S
C300   C302    1.416   .     A
C301   C303    1.421   .     A
C301   C307    1.407   .     A
C302   C308    1.407   .     A
C302   C304    1.421   .     A
C303   C305    1.418   .     A
C303   C934    1.412   .     S
C304   C306    1.418   .     A
C304   C933    1.412   1_554 S
C305   C310    1.414   .     A
C306   C309    1.414   .     A
C307   H333    1.081   .     S
C307   C939    1.395   .     S
C308   H334    1.081   .     S
C308   C940    1.395   1_554 S
C309   C335    1.513   .     S
C309   C937    1.395   1_554 S
C310   C339    1.513   .     S
C310   C938    1.395   .     S
C311   H343    1.083   .     S
C311   C316    1.401   .     A
C312   C315    1.401   .     A
C312   H344    1.083   .     S
C312   C384    1.383   .     S
C313   H345    1.083   .     S
C313   C315    1.401   .     A
C313   C381    1.383   .     S
C314   H346    1.083   .     S
C314   C316    1.401   .     A
C317   H347    1.082   .     S
C317   N322    1.367   .     A
C318   N321    1.367   .     A
C318   H348    1.082   .     S
C318   C529    1.417   .     S
C319   H349    1.082   .     S
C319   N322    1.367   .     A
C320   H350    1.082   .     S
C320   N321    1.367   .     A
C320   C527    1.417   .     S
C325   H326    1.106   .     S
C325   H327    1.111   .     S
C325   H328    1.111   .     S
C329   H332    1.111   .     S
C329   H330    1.106   .     S
C329   H331    1.111   .     S
C335   H336    1.111   .     S
C335   H337    1.110   .     S
C335   H338    1.111   .     S
C339   H341    1.111   .     S
C339   H340    1.111   .     S
C339   H342    1.110   .     S
O351   C355    1.291   .     A
O351   Cu363   1.963   .     S
O352   C356    1.291   .     A
O352   Cu364   1.963   .     S
O353   Cu363   1.962   .     S
O353   C356    1.291   .     A
O354   Cu364   1.962   .     S
O354   C355    1.291   .     A
C355   C386    1.448   .     S
C356   C385    1.448   .     S
O357   C361    1.290   .     A
O357   Cu363   1.962   .     S
O358   Cu364   1.962   .     S
O358   C362    1.290   .     A
O359   C362    1.290   .     A
O359   Cu363   1.962   .     S
O360   C361    1.290   .     A
O360   Cu364   1.962   .     S
C361   C368    1.447   .     S
C362   C367    1.447   .     S
Cu363  N391    2.014   .     S
Cu363  Cu364   2.679   .     S
Cu364  N392    2.014   .     S
C365   C375    1.397   .     A
C365   H393    1.083   .     S
C365   C367    1.390   .     A
C366   H394    1.083   .     S
C366   C368    1.390   .     A
C366   C376    1.397   .     A
C367   C369    1.409   .     A
C368   C370    1.409   .     A
C369   C371    1.416   .     A
C369   C395    1.521   .     S
C370   C399    1.521   .     S
C370   C372    1.416   .     A
C371   C373    1.421   .     A
C371   C377    1.407   .     A
C372   C378    1.407   .     A
C372   C374    1.421   .     A
C373   C375    1.418   .     A
C373   C1004   1.412   .     S
C374   C376    1.418   .     A
C374   C1003   1.412   1_554 S
C375   C380    1.414   .     A
C376   C379    1.414   .     A
C377   H403    1.081   .     S
C377   C1009   1.395   .     S
C378   H404    1.081   .     S
C378   C1010   1.395   1_554 S
C379   C405    1.513   .     S
C379   C1007   1.395   1_554 S
C380   C409    1.513   .     S
C380   C1008   1.395   .     S
C381   H413    1.083   .     S
C381   C386    1.401   .     A
C382   C385    1.401   .     A
C382   H414    1.083   .     S
C382   C244    1.383   1_655 S
C383   H415    1.083   .     S
C383   C385    1.401   .     A
C383   C241    1.383   1_655 S
C384   H416    1.083   .     S
C384   C386    1.401   .     A
C387   H417    1.082   .     S
C387   N392    1.367   .     A
C388   N391    1.367   .     A
C388   H418    1.082   .     S
C388   C599    1.417   .     S
C389   H419    1.082   .     S
C389   N392    1.367   .     A
C390   H420    1.082   .     S
C390   N391    1.367   .     A
C390   C597    1.417   .     S
C395   H396    1.106   .     S
C395   H397    1.111   .     S
C395   H398    1.111   .     S
C399   H402    1.111   .     S
C399   H400    1.106   .     S
C399   H401    1.111   .     S
C405   H406    1.111   .     S
C405   H407    1.110   .     S
C405   H408    1.111   .     S
C409   H411    1.111   .     S
C409   H410    1.111   .     S
C409   H412    1.110   .     S
O421   C425    1.291   .     A
O421   Cu433   1.963   .     S
O422   C426    1.291   .     A
O422   Cu434   1.963   .     S
O423   Cu433   1.962   .     S
O423   C426    1.291   .     A
O424   Cu434   1.962   .     S
O424   C425    1.291   .     A
C425   C456    1.448   .     S
C426   C455    1.448   .     S
O427   C431    1.290   .     A
O427   Cu433   1.962   .     S
O428   Cu434   1.962   .     S
O428   C432    1.290   .     A
O429   C432    1.290   .     A
O429   Cu433   1.962   .     S
O430   C431    1.290   .     A
O430   Cu434   1.962   .     S
C431   C438    1.447   .     S
C432   C437    1.447   .     S
Cu433  N461    2.014   .     S
Cu433  Cu434   2.679   .     S
Cu434  N462    2.014   .     S
C435   C445    1.397   .     A
C435   H463    1.083   .     S
C435   C437    1.390   .     A
C436   H464    1.083   .     S
C436   C438    1.390   .     A
C436   C446    1.397   .     A
C437   C439    1.409   .     A
C438   C440    1.409   .     A
C439   C441    1.416   .     A
C439   C465    1.521   .     S
C440   C469    1.521   .     S
C440   C442    1.416   .     A
C441   C443    1.421   .     A
C441   C447    1.407   .     A
C442   C448    1.407   .     A
C442   C444    1.421   .     A
C443   C445    1.418   .     A
C443   C1074   1.412   .     S
C444   C446    1.418   .     A
C444   C1073   1.412   1_554 S
C445   C450    1.414   .     A
C446   C449    1.414   .     A
C447   H473    1.081   .     S
C447   C1079   1.395   .     S
C448   H474    1.081   .     S
C448   C1080   1.395   1_554 S
C449   C475    1.513   .     S
C449   C1077   1.395   1_554 S
C450   C479    1.513   .     S
C450   C1078   1.395   .     S
C451   H483    1.083   .     S
C451   C456    1.401   .     A
C451   C593    1.383   1_455 S
C452   C455    1.401   .     A
C452   H484    1.083   .     S
C452   C524    1.383   .     S
C453   H485    1.083   .     S
C453   C455    1.401   .     A
C453   C521    1.383   .     S
C454   H486    1.083   .     S
C454   C456    1.401   .     A
C454   C592    1.383   1_455 S
C457   H487    1.082   .     S
C457   N462    1.367   .     A
C458   N461    1.367   .     A
C458   H488    1.082   .     S
C458   C39     1.417   1_565 S
C459   H489    1.082   .     S
C459   N462    1.367   .     A
C460   H490    1.082   .     S
C460   N461    1.367   .     A
C460   C37     1.417   1_565 S
C465   H466    1.106   .     S
C465   H467    1.111   .     S
C465   H468    1.111   .     S
C469   H472    1.111   .     S
C469   H470    1.106   .     S
C469   H471    1.111   .     S
C475   H476    1.111   .     S
C475   H477    1.110   .     S
C475   H478    1.111   .     S
C479   H481    1.111   .     S
C479   H480    1.111   .     S
C479   H482    1.110   .     S
O491   C495    1.291   .     A
O491   Cu503   1.963   .     S
O492   C496    1.291   .     A
O492   Cu504   1.963   .     S
O493   Cu503   1.962   .     S
O493   C496    1.291   .     A
O494   Cu504   1.962   .     S
O494   C495    1.291   .     A
C495   C526    1.448   .     S
C496   C525    1.448   .     S
O497   C501    1.290   .     A
O497   Cu503   1.962   .     S
O498   Cu504   1.962   .     S
O498   C502    1.290   .     A
O499   C502    1.290   .     A
O499   Cu503   1.962   .     S
O500   C501    1.290   .     A
O500   Cu504   1.962   .     S
C501   C508    1.447   .     S
C502   C507    1.447   .     S
Cu503  N531    2.014   .     S
Cu503  Cu504   2.679   .     S
Cu504  N532    2.014   .     S
C505   C515    1.397   .     A
C505   H533    1.083   .     S
C505   C507    1.390   .     A
C506   H534    1.083   .     S
C506   C508    1.390   .     A
C506   C516    1.397   .     A
C507   C509    1.409   .     A
C508   C510    1.409   .     A
C509   C511    1.416   .     A
C509   C535    1.521   .     S
C510   C539    1.521   .     S
C510   C512    1.416   .     A
C511   C513    1.421   .     A
C511   C517    1.407   .     A
C512   C518    1.407   .     A
C512   C514    1.421   .     A
C513   C515    1.418   .     A
C513   C1144   1.412   .     S
C514   C516    1.418   .     A
C514   C1143   1.412   1_554 S
C515   C520    1.414   .     A
C516   C519    1.414   .     A
C517   H543    1.081   .     S
C517   C1149   1.395   .     S
C518   H544    1.081   .     S
C518   C1150   1.395   1_554 S
C519   C545    1.513   .     S
C519   C1147   1.395   1_554 S
C520   C549    1.513   .     S
C520   C1148   1.395   .     S
C521   H553    1.083   .     S
C521   C526    1.401   .     A
C522   C525    1.401   .     A
C522   H554    1.083   .     S
C522   C594    1.383   .     S
C523   H555    1.083   .     S
C523   C525    1.401   .     A
C523   C591    1.383   .     S
C524   H556    1.083   .     S
C524   C526    1.401   .     A
C527   H557    1.082   .     S
C527   N532    1.367   .     A
C528   N531    1.367   .     A
C528   H558    1.082   .     S
C528   C109    1.417   1_565 S
C529   H559    1.082   .     S
C529   N532    1.367   .     A
C530   H560    1.082   .     S
C530   N531    1.367   .     A
C530   C107    1.417   1_565 S
C535   H536    1.106   .     S
C535   H537    1.111   .     S
C535   H538    1.111   .     S
C539   H542    1.111   .     S
C539   H540    1.106   .     S
C539   H541    1.111   .     S
C545   H546    1.111   .     S
C545   H547    1.110   .     S
C545   H548    1.111   .     S
C549   H551    1.111   .     S
C549   H550    1.111   .     S
C549   H552    1.110   .     S
O561   C565    1.291   .     A
O561   Cu573   1.963   .     S
O562   C566    1.291   .     A
O562   Cu574   1.963   .     S
O563   Cu573   1.962   .     S
O563   C566    1.291   .     A
O564   Cu574   1.962   .     S
O564   C565    1.291   .     A
C565   C596    1.448   .     S
C566   C595    1.448   .     S
O567   C571    1.290   .     A
O567   Cu573   1.962   .     S
O568   Cu574   1.962   .     S
O568   C572    1.290   .     A
O569   C572    1.290   .     A
O569   Cu573   1.962   .     S
O570   C571    1.290   .     A
O570   Cu574   1.962   .     S
C571   C578    1.447   .     S
C572   C577    1.447   .     S
Cu573  N601    2.014   .     S
Cu573  Cu574   2.679   .     S
Cu574  N602    2.014   .     S
C575   C585    1.397   .     A
C575   H603    1.083   .     S
C575   C577    1.390   .     A
C576   H604    1.083   .     S
C576   C578    1.390   .     A
C576   C586    1.397   .     A
C577   C579    1.409   .     A
C578   C580    1.409   .     A
C579   C581    1.416   .     A
C579   C605    1.521   .     S
C580   C609    1.521   .     S
C580   C582    1.416   .     A
C581   C583    1.421   .     A
C581   C587    1.407   .     A
C582   C588    1.407   .     A
C582   C584    1.421   .     A
C583   C585    1.418   .     A
C583   C1214   1.412   .     S
C584   C586    1.418   .     A
C584   C1213   1.412   1_554 S
C585   C590    1.414   .     A
C586   C589    1.414   .     A
C587   H613    1.081   .     S
C587   C1219   1.395   .     S
C588   H614    1.081   .     S
C588   C1220   1.395   1_554 S
C589   C615    1.513   .     S
C589   C1217   1.395   1_554 S
C590   C619    1.513   .     S
C590   C1218   1.395   .     S
C591   H623    1.083   .     S
C591   C596    1.401   .     A
C592   C595    1.401   .     A
C592   H624    1.083   .     S
C592   C454    1.383   1_655 S
C593   H625    1.083   .     S
C593   C595    1.401   .     A
C593   C451    1.383   1_655 S
C594   H626    1.083   .     S
C594   C596    1.401   .     A
C597   H627    1.082   .     S
C597   N602    1.367   .     A
C598   N601    1.367   .     A
C598   H628    1.082   .     S
C598   C179    1.417   1_565 S
C599   H629    1.082   .     S
C599   N602    1.367   .     A
C600   H630    1.082   .     S
C600   N601    1.367   .     A
C600   C177    1.417   1_565 S
C605   H606    1.106   .     S
C605   H607    1.111   .     S
C605   H608    1.111   .     S
C609   H612    1.111   .     S
C609   H610    1.106   .     S
C609   H611    1.111   .     S
C615   H616    1.111   .     S
C615   H617    1.110   .     S
C615   H618    1.111   .     S
C619   H621    1.111   .     S
C619   H620    1.111   .     S
C619   H622    1.110   .     S
O631   C635    1.291   .     A
O631   Cu643   1.963   .     S
O632   C636    1.291   .     A
O632   Cu644   1.963   .     S
O633   Cu643   1.962   .     S
O633   C636    1.291   .     A
O634   Cu644   1.962   .     S
O634   C635    1.291   .     A
C635   C666    1.448   .     S
C636   C665    1.448   .     S
O637   C641    1.290   .     A
O637   Cu643   1.962   .     S
O638   Cu644   1.962   .     S
O638   C642    1.290   .     A
O639   C642    1.290   .     A
O639   Cu643   1.962   .     S
O640   C641    1.290   .     A
O640   Cu644   1.962   .     S
C641   C648    1.447   .     S
C642   C647    1.447   .     S
Cu643  N671    2.014   .     S
Cu643  Cu644   2.679   .     S
Cu644  N672    2.014   .     S
C645   C655    1.397   .     A
C645   H673    1.083   .     S
C645   C647    1.390   .     A
C646   H674    1.083   .     S
C646   C648    1.390   .     A
C646   C656    1.397   .     A
C647   C649    1.409   .     A
C648   C650    1.409   .     A
C649   C651    1.416   .     A
C649   C675    1.521   .     S
C650   C679    1.521   .     S
C650   C652    1.416   .     A
C651   C653    1.421   .     A
C651   C657    1.407   .     A
C652   C658    1.407   .     A
C652   C654    1.421   .     A
C653   C655    1.418   .     A
C653   C24     1.412   1_556 S
C654   C656    1.418   .     A
C655   C660    1.414   .     A
C656   C659    1.414   .     A
C657   H683    1.081   .     S
C657   C29     1.395   1_556 S
C658   H684    1.081   .     S
C659   C685    1.513   .     S
C660   C689    1.513   .     S
C660   C28     1.395   1_556 S
C661   H693    1.083   .     S
C661   C666    1.401   .     A
C661   C803    1.383   1_455 S
C662   C665    1.401   .     A
C662   H694    1.083   .     S
C662   C734    1.383   .     S
C663   H695    1.083   .     S
C663   C665    1.401   .     A
C663   C731    1.383   .     S
C664   H696    1.083   .     S
C664   C666    1.401   .     A
C664   C802    1.383   1_455 S
C667   H697    1.082   .     S
C667   N672    1.367   .     A
C667   C1090   1.417   1_545 S
C668   N671    1.367   .     A
C668   H698    1.082   .     S
C668   C879    1.417   .     S
C669   H699    1.082   .     S
C669   N672    1.367   .     A
C669   C1088   1.417   1_545 S
C670   H700    1.082   .     S
C670   N671    1.367   .     A
C670   C877    1.417   .     S
C675   H676    1.106   .     S
C675   H677    1.111   .     S
C675   H678    1.111   .     S
C679   H682    1.111   .     S
C679   H680    1.106   .     S
C679   H681    1.111   .     S
C685   H686    1.111   .     S
C685   H687    1.110   .     S
C685   H688    1.111   .     S
C689   H691    1.111   .     S
C689   H690    1.111   .     S
C689   H692    1.110   .     S
O701   C705    1.291   .     A
O701   Cu713   1.963   .     S
O702   C706    1.291   .     A
O702   Cu714   1.963   .     S
O703   Cu713   1.962   .     S
O703   C706    1.291   .     A
O704   Cu714   1.962   .     S
O704   C705    1.291   .     A
C705   C736    1.448   .     S
C706   C735    1.448   .     S
O707   C711    1.290   .     A
O707   Cu713   1.962   .     S
O708   Cu714   1.962   .     S
O708   C712    1.290   .     A
O709   C712    1.290   .     A
O709   Cu713   1.962   .     S
O710   C711    1.290   .     A
O710   Cu714   1.962   .     S
C711   C718    1.447   .     S
C712   C717    1.447   .     S
Cu713  N741    2.014   .     S
Cu713  Cu714   2.679   .     S
Cu714  N742    2.014   .     S
C715   C725    1.397   .     A
C715   H743    1.083   .     S
C715   C717    1.390   .     A
C716   H744    1.083   .     S
C716   C718    1.390   .     A
C716   C726    1.397   .     A
C717   C719    1.409   .     A
C718   C720    1.409   .     A
C719   C721    1.416   .     A
C719   C745    1.521   .     S
C720   C749    1.521   .     S
C720   C722    1.416   .     A
C721   C723    1.421   .     A
C721   C727    1.407   .     A
C722   C728    1.407   .     A
C722   C724    1.421   .     A
C723   C725    1.418   .     A
C723   C94     1.412   1_556 S
C724   C726    1.418   .     A
C725   C730    1.414   .     A
C726   C729    1.414   .     A
C727   H753    1.081   .     S
C727   C99     1.395   1_556 S
C728   H754    1.081   .     S
C729   C755    1.513   .     S
C730   C759    1.513   .     S
C730   C98     1.395   1_556 S
C731   H763    1.083   .     S
C731   C736    1.401   .     A
C732   C735    1.401   .     A
C732   H764    1.083   .     S
C732   C804    1.383   .     S
C733   H765    1.083   .     S
C733   C735    1.401   .     A
C733   C801    1.383   .     S
C734   H766    1.083   .     S
C734   C736    1.401   .     A
C737   H767    1.082   .     S
C737   N742    1.367   .     A
C737   C1160   1.417   1_545 S
C738   N741    1.367   .     A
C738   H768    1.082   .     S
C738   C949    1.417   .     S
C739   H769    1.082   .     S
C739   N742    1.367   .     A
C739   C1158   1.417   1_545 S
C740   H770    1.082   .     S
C740   N741    1.367   .     A
C740   C947    1.417   .     S
C745   H746    1.106   .     S
C745   H747    1.111   .     S
C745   H748    1.111   .     S
C749   H752    1.111   .     S
C749   H750    1.106   .     S
C749   H751    1.111   .     S
C755   H756    1.111   .     S
C755   H757    1.110   .     S
C755   H758    1.111   .     S
C759   H761    1.111   .     S
C759   H760    1.111   .     S
C759   H762    1.110   .     S
O771   C775    1.291   .     A
O771   Cu783   1.963   .     S
O772   C776    1.291   .     A
O772   Cu784   1.963   .     S
O773   Cu783   1.962   .     S
O773   C776    1.291   .     A
O774   Cu784   1.962   .     S
O774   C775    1.291   .     A
C775   C806    1.448   .     S
C776   C805    1.448   .     S
O777   C781    1.290   .     A
O777   Cu783   1.962   .     S
O778   Cu784   1.962   .     S
O778   C782    1.290   .     A
O779   C782    1.290   .     A
O779   Cu783   1.962   .     S
O780   C781    1.290   .     A
O780   Cu784   1.962   .     S
C781   C788    1.447   .     S
C782   C787    1.447   .     S
Cu783  N811    2.014   .     S
Cu783  Cu784   2.679   .     S
Cu784  N812    2.014   .     S
C785   C795    1.397   .     A
C785   H813    1.083   .     S
C785   C787    1.390   .     A
C786   H814    1.083   .     S
C786   C788    1.390   .     A
C786   C796    1.397   .     A
C787   C789    1.409   .     A
C788   C790    1.409   .     A
C789   C791    1.416   .     A
C789   C815    1.521   .     S
C790   C819    1.521   .     S
C790   C792    1.416   .     A
C791   C793    1.421   .     A
C791   C797    1.407   .     A
C792   C798    1.407   .     A
C792   C794    1.421   .     A
C793   C795    1.418   .     A
C793   C164    1.412   1_556 S
C794   C796    1.418   .     A
C795   C800    1.414   .     A
C796   C799    1.414   .     A
C797   H823    1.081   .     S
C797   C169    1.395   1_556 S
C798   H824    1.081   .     S
C799   C825    1.513   .     S
C800   C829    1.513   .     S
C800   C168    1.395   1_556 S
C801   H833    1.083   .     S
C801   C806    1.401   .     A
C802   C805    1.401   .     A
C802   H834    1.083   .     S
C802   C664    1.383   1_655 S
C803   H835    1.083   .     S
C803   C805    1.401   .     A
C803   C661    1.383   1_655 S
C804   H836    1.083   .     S
C804   C806    1.401   .     A
C807   H837    1.082   .     S
C807   N812    1.367   .     A
C807   C1230   1.417   1_545 S
C808   N811    1.367   .     A
C808   H838    1.082   .     S
C808   C1019   1.417   .     S
C809   H839    1.082   .     S
C809   N812    1.367   .     A
C809   C1228   1.417   1_545 S
C810   H840    1.082   .     S
C810   N811    1.367   .     A
C810   C1017   1.417   .     S
C815   H816    1.106   .     S
C815   H817    1.111   .     S
C815   H818    1.111   .     S
C819   H822    1.111   .     S
C819   H820    1.106   .     S
C819   H821    1.111   .     S
C825   H826    1.111   .     S
C825   H827    1.110   .     S
C825   H828    1.111   .     S
C829   H831    1.111   .     S
C829   H830    1.111   .     S
C829   H832    1.110   .     S
O841   C845    1.291   .     A
O841   Cu853   1.963   .     S
O842   C846    1.291   .     A
O842   Cu854   1.963   .     S
O843   Cu853   1.962   .     S
O843   C846    1.291   .     A
O844   Cu854   1.962   .     S
O844   C845    1.291   .     A
C845   C876    1.448   .     S
C846   C875    1.448   .     S
O847   C851    1.290   .     A
O847   Cu853   1.962   .     S
O848   Cu854   1.962   .     S
O848   C852    1.290   .     A
O849   C852    1.290   .     A
O849   Cu853   1.962   .     S
O850   C851    1.290   .     A
O850   Cu854   1.962   .     S
C851   C858    1.447   .     S
C852   C857    1.447   .     S
Cu853  N881    2.014   .     S
Cu853  Cu854   2.679   .     S
Cu854  N882    2.014   .     S
C855   C865    1.397   .     A
C855   H883    1.083   .     S
C855   C857    1.390   .     A
C856   H884    1.083   .     S
C856   C858    1.390   .     A
C856   C866    1.397   .     A
C857   C859    1.409   .     A
C858   C860    1.409   .     A
C859   C861    1.416   .     A
C859   C885    1.521   .     S
C860   C889    1.521   .     S
C860   C862    1.416   .     A
C861   C863    1.421   .     A
C861   C867    1.407   .     A
C862   C868    1.407   .     A
C862   C864    1.421   .     A
C863   C865    1.418   .     A
C863   C234    1.412   1_556 S
C864   C866    1.418   .     A
C865   C870    1.414   .     A
C866   C869    1.414   .     A
C867   H893    1.081   .     S
C867   C239    1.395   1_556 S
C868   H894    1.081   .     S
C869   C895    1.513   .     S
C870   C899    1.513   .     S
C870   C238    1.395   1_556 S
C871   H903    1.083   .     S
C871   C876    1.401   .     A
C871   C1013   1.383   1_455 S
C872   C875    1.401   .     A
C872   H904    1.083   .     S
C872   C944    1.383   .     S
C873   H905    1.083   .     S
C873   C875    1.401   .     A
C873   C941    1.383   .     S
C874   H906    1.083   .     S
C874   C876    1.401   .     A
C874   C1012   1.383   1_455 S
C877   H907    1.082   .     S
C877   N882    1.367   .     A
C878   N881    1.367   .     A
C878   H908    1.082   .     S
C878   C1089   1.417   .     S
C879   H909    1.082   .     S
C879   N882    1.367   .     A
C880   H910    1.082   .     S
C880   N881    1.367   .     A
C880   C1087   1.417   .     S
C885   H886    1.106   .     S
C885   H887    1.111   .     S
C885   H888    1.111   .     S
C889   H892    1.111   .     S
C889   H890    1.106   .     S
C889   H891    1.111   .     S
C895   H896    1.111   .     S
C895   H897    1.110   .     S
C895   H898    1.111   .     S
C899   H901    1.111   .     S
C899   H900    1.111   .     S
C899   H902    1.110   .     S
O911   C915    1.291   .     A
O911   Cu923   1.963   .     S
O912   C916    1.291   .     A
O912   Cu924   1.963   .     S
O913   Cu923   1.962   .     S
O913   C916    1.291   .     A
O914   Cu924   1.962   .     S
O914   C915    1.291   .     A
C915   C946    1.448   .     S
C916   C945    1.448   .     S
O917   C921    1.290   .     A
O917   Cu923   1.962   .     S
O918   Cu924   1.962   .     S
O918   C922    1.290   .     A
O919   C922    1.290   .     A
O919   Cu923   1.962   .     S
O920   C921    1.290   .     A
O920   Cu924   1.962   .     S
C921   C928    1.447   .     S
C922   C927    1.447   .     S
Cu923  N951    2.014   .     S
Cu923  Cu924   2.679   .     S
Cu924  N952    2.014   .     S
C925   C935    1.397   .     A
C925   H953    1.083   .     S
C925   C927    1.390   .     A
C926   H954    1.083   .     S
C926   C928    1.390   .     A
C926   C936    1.397   .     A
C927   C929    1.409   .     A
C928   C930    1.409   .     A
C929   C931    1.416   .     A
C929   C955    1.521   .     S
C930   C959    1.521   .     S
C930   C932    1.416   .     A
C931   C933    1.421   .     A
C931   C937    1.407   .     A
C932   C938    1.407   .     A
C932   C934    1.421   .     A
C933   C935    1.418   .     A
C933   C304    1.412   1_556 S
C934   C936    1.418   .     A
C935   C940    1.414   .     A
C936   C939    1.414   .     A
C937   H963    1.081   .     S
C937   C309    1.395   1_556 S
C938   H964    1.081   .     S
C939   C965    1.513   .     S
C940   C969    1.513   .     S
C940   C308    1.395   1_556 S
C941   H973    1.083   .     S
C941   C946    1.401   .     A
C942   C945    1.401   .     A
C942   H974    1.083   .     S
C942   C1014   1.383   .     S
C943   H975    1.083   .     S
C943   C945    1.401   .     A
C943   C1011   1.383   .     S
C944   H976    1.083   .     S
C944   C946    1.401   .     A
C947   H977    1.082   .     S
C947   N952    1.367   .     A
C948   N951    1.367   .     A
C948   H978    1.082   .     S
C948   C1159   1.417   .     S
C949   H979    1.082   .     S
C949   N952    1.367   .     A
C950   H980    1.082   .     S
C950   N951    1.367   .     A
C950   C1157   1.417   .     S
C955   H956    1.106   .     S
C955   H957    1.111   .     S
C955   H958    1.111   .     S
C959   H962    1.111   .     S
C959   H960    1.106   .     S
C959   H961    1.111   .     S
C965   H966    1.111   .     S
C965   H967    1.110   .     S
C965   H968    1.111   .     S
C969   H971    1.111   .     S
C969   H970    1.111   .     S
C969   H972    1.110   .     S
O981   C985    1.291   .     A
O981   Cu993   1.963   .     S
O982   C986    1.291   .     A
O982   Cu994   1.963   .     S
O983   Cu993   1.962   .     S
O983   C986    1.291   .     A
O984   Cu994   1.962   .     S
O984   C985    1.291   .     A
C985   C1016   1.448   .     S
C986   C1015   1.448   .     S
O987   C991    1.290   .     A
O987   Cu993   1.962   .     S
O988   Cu994   1.962   .     S
O988   C992    1.290   .     A
O989   C992    1.290   .     A
O989   Cu993   1.962   .     S
O990   C991    1.290   .     A
O990   Cu994   1.962   .     S
C991   C998    1.447   .     S
C992   C997    1.447   .     S
Cu993  N1021   2.014   .     S
Cu993  Cu994   2.679   .     S
Cu994  N1022   2.014   .     S
C995   C1005   1.397   .     A
C995   H1023   1.083   .     S
C995   C997    1.390   .     A
C996   H1024   1.083   .     S
C996   C998    1.390   .     A
C996   C1006   1.397   .     A
C997   C999    1.409   .     A
C998   C1000   1.409   .     A
C999   C1001   1.416   .     A
C999   C1025   1.521   .     S
C1000  C1029   1.521   .     S
C1000  C1002   1.416   .     A
C1001  C1003   1.421   .     A
C1001  C1007   1.407   .     A
C1002  C1008   1.407   .     A
C1002  C1004   1.421   .     A
C1003  C1005   1.418   .     A
C1003  C374    1.412   1_556 S
C1004  C1006   1.418   .     A
C1005  C1010   1.414   .     A
C1006  C1009   1.414   .     A
C1007  H1033   1.081   .     S
C1007  C379    1.395   1_556 S
C1008  H1034   1.081   .     S
C1009  C1035   1.513   .     S
C1010  C1039   1.513   .     S
C1010  C378    1.395   1_556 S
C1011  H1043   1.083   .     S
C1011  C1016   1.401   .     A
C1012  C1015   1.401   .     A
C1012  H1044   1.083   .     S
C1012  C874    1.383   1_655 S
C1013  H1045   1.083   .     S
C1013  C1015   1.401   .     A
C1013  C871    1.383   1_655 S
C1014  H1046   1.083   .     S
C1014  C1016   1.401   .     A
C1017  H1047   1.082   .     S
C1017  N1022   1.367   .     A
C1018  N1021   1.367   .     A
C1018  H1048   1.082   .     S
C1018  C1229   1.417   .     S
C1019  H1049   1.082   .     S
C1019  N1022   1.367   .     A
C1020  H1050   1.082   .     S
C1020  N1021   1.367   .     A
C1020  C1227   1.417   .     S
C1025  H1026   1.106   .     S
C1025  H1027   1.111   .     S
C1025  H1028   1.111   .     S
C1029  H1032   1.111   .     S
C1029  H1030   1.106   .     S
C1029  H1031   1.111   .     S
C1035  H1036   1.111   .     S
C1035  H1037   1.110   .     S
C1035  H1038   1.111   .     S
C1039  H1041   1.111   .     S
C1039  H1040   1.111   .     S
C1039  H1042   1.110   .     S
O1051  C1055   1.291   .     A
O1051  Cu1063  1.963   .     S
O1052  C1056   1.291   .     A
O1052  Cu1064  1.963   .     S
O1053  Cu1063  1.962   .     S
O1053  C1056   1.291   .     A
O1054  Cu1064  1.962   .     S
O1054  C1055   1.291   .     A
C1055  C1086   1.448   .     S
C1056  C1085   1.448   .     S
O1057  C1061   1.290   .     A
O1057  Cu1063  1.962   .     S
O1058  Cu1064  1.962   .     S
O1058  C1062   1.290   .     A
O1059  C1062   1.290   .     A
O1059  Cu1063  1.962   .     S
O1060  C1061   1.290   .     A
O1060  Cu1064  1.962   .     S
C1061  C1068   1.447   .     S
C1062  C1067   1.447   .     S
Cu1063 N1091   2.014   .     S
Cu1063 Cu1064  2.679   .     S
Cu1064 N1092   2.014   .     S
C1065  C1075   1.397   .     A
C1065  H1093   1.083   .     S
C1065  C1067   1.390   .     A
C1066  H1094   1.083   .     S
C1066  C1068   1.390   .     A
C1066  C1076   1.397   .     A
C1067  C1069   1.409   .     A
C1068  C1070   1.409   .     A
C1069  C1071   1.416   .     A
C1069  C1095   1.521   .     S
C1070  C1099   1.521   .     S
C1070  C1072   1.416   .     A
C1071  C1073   1.421   .     A
C1071  C1077   1.407   .     A
C1072  C1078   1.407   .     A
C1072  C1074   1.421   .     A
C1073  C1075   1.418   .     A
C1073  C444    1.412   1_556 S
C1074  C1076   1.418   .     A
C1075  C1080   1.414   .     A
C1076  C1079   1.414   .     A
C1077  H1103   1.081   .     S
C1077  C449    1.395   1_556 S
C1078  H1104   1.081   .     S
C1079  C1105   1.513   .     S
C1080  C1109   1.513   .     S
C1080  C448    1.395   1_556 S
C1081  H1113   1.083   .     S
C1081  C1086   1.401   .     A
C1081  C1223   1.383   1_455 S
C1082  C1085   1.401   .     A
C1082  H1114   1.083   .     S
C1082  C1154   1.383   .     S
C1083  H1115   1.083   .     S
C1083  C1085   1.401   .     A
C1083  C1151   1.383   .     S
C1084  H1116   1.083   .     S
C1084  C1086   1.401   .     A
C1084  C1222   1.383   1_455 S
C1087  H1117   1.082   .     S
C1087  N1092   1.367   .     A
C1088  N1091   1.367   .     A
C1088  H1118   1.082   .     S
C1088  C669    1.417   1_565 S
C1089  H1119   1.082   .     S
C1089  N1092   1.367   .     A
C1090  H1120   1.082   .     S
C1090  N1091   1.367   .     A
C1090  C667    1.417   1_565 S
C1095  H1096   1.106   .     S
C1095  H1097   1.111   .     S
C1095  H1098   1.111   .     S
C1099  H1102   1.111   .     S
C1099  H1100   1.106   .     S
C1099  H1101   1.111   .     S
C1105  H1106   1.111   .     S
C1105  H1107   1.110   .     S
C1105  H1108   1.111   .     S
C1109  H1111   1.111   .     S
C1109  H1110   1.111   .     S
C1109  H1112   1.110   .     S
O1121  C1125   1.291   .     A
O1121  Cu1133  1.963   .     S
O1122  C1126   1.291   .     A
O1122  Cu1134  1.963   .     S
O1123  Cu1133  1.962   .     S
O1123  C1126   1.291   .     A
O1124  Cu1134  1.962   .     S
O1124  C1125   1.291   .     A
C1125  C1156   1.448   .     S
C1126  C1155   1.448   .     S
O1127  C1131   1.290   .     A
O1127  Cu1133  1.962   .     S
O1128  Cu1134  1.962   .     S
O1128  C1132   1.290   .     A
O1129  C1132   1.290   .     A
O1129  Cu1133  1.962   .     S
O1130  C1131   1.290   .     A
O1130  Cu1134  1.962   .     S
C1131  C1138   1.447   .     S
C1132  C1137   1.447   .     S
Cu1133 N1161   2.014   .     S
Cu1133 Cu1134  2.679   .     S
Cu1134 N1162   2.014   .     S
C1135  C1145   1.397   .     A
C1135  H1163   1.083   .     S
C1135  C1137   1.390   .     A
C1136  H1164   1.083   .     S
C1136  C1138   1.390   .     A
C1136  C1146   1.397   .     A
C1137  C1139   1.409   .     A
C1138  C1140   1.409   .     A
C1139  C1141   1.416   .     A
C1139  C1165   1.521   .     S
C1140  C1169   1.521   .     S
C1140  C1142   1.416   .     A
C1141  C1143   1.421   .     A
C1141  C1147   1.407   .     A
C1142  C1148   1.407   .     A
C1142  C1144   1.421   .     A
C1143  C1145   1.418   .     A
C1143  C514    1.412   1_556 S
C1144  C1146   1.418   .     A
C1145  C1150   1.414   .     A
C1146  C1149   1.414   .     A
C1147  H1173   1.081   .     S
C1147  C519    1.395   1_556 S
C1148  H1174   1.081   .     S
C1149  C1175   1.513   .     S
C1150  C1179   1.513   .     S
C1150  C518    1.395   1_556 S
C1151  H1183   1.083   .     S
C1151  C1156   1.401   .     A
C1152  C1155   1.401   .     A
C1152  H1184   1.083   .     S
C1152  C1224   1.383   .     S
C1153  H1185   1.083   .     S
C1153  C1155   1.401   .     A
C1153  C1221   1.383   .     S
C1154  H1186   1.083   .     S
C1154  C1156   1.401   .     A
C1157  H1187   1.082   .     S
C1157  N1162   1.367   .     A
C1158  N1161   1.367   .     A
C1158  H1188   1.082   .     S
C1158  C739    1.417   1_565 S
C1159  H1189   1.082   .     S
C1159  N1162   1.367   .     A
C1160  H1190   1.082   .     S
C1160  N1161   1.367   .     A
C1160  C737    1.417   1_565 S
C1165  H1166   1.106   .     S
C1165  H1167   1.111   .     S
C1165  H1168   1.111   .     S
C1169  H1172   1.111   .     S
C1169  H1170   1.106   .     S
C1169  H1171   1.111   .     S
C1175  H1176   1.111   .     S
C1175  H1177   1.110   .     S
C1175  H1178   1.111   .     S
C1179  H1181   1.111   .     S
C1179  H1180   1.111   .     S
C1179  H1182   1.110   .     S
O1191  C1195   1.291   .     A
O1191  Cu1203  1.963   .     S
O1192  C1196   1.291   .     A
O1192  Cu1204  1.963   .     S
O1193  Cu1203  1.962   .     S
O1193  C1196   1.291   .     A
O1194  Cu1204  1.962   .     S
O1194  C1195   1.291   .     A
C1195  C1226   1.448   .     S
C1196  C1225   1.448   .     S
O1197  C1201   1.290   .     A
O1197  Cu1203  1.962   .     S
O1198  Cu1204  1.962   .     S
O1198  C1202   1.290   .     A
O1199  C1202   1.290   .     A
O1199  Cu1203  1.962   .     S
O1200  C1201   1.290   .     A
O1200  Cu1204  1.962   .     S
C1201  C1208   1.447   .     S
C1202  C1207   1.447   .     S
Cu1203 N1231   2.014   .     S
Cu1203 Cu1204  2.679   .     S
Cu1204 N1232   2.014   .     S
C1205  C1215   1.397   .     A
C1205  H1233   1.083   .     S
C1205  C1207   1.390   .     A
C1206  H1234   1.083   .     S
C1206  C1208   1.390   .     A
C1206  C1216   1.397   .     A
C1207  C1209   1.409   .     A
C1208  C1210   1.409   .     A
C1209  C1211   1.416   .     A
C1209  C1235   1.521   .     S
C1210  C1239   1.521   .     S
C1210  C1212   1.416   .     A
C1211  C1213   1.421   .     A
C1211  C1217   1.407   .     A
C1212  C1218   1.407   .     A
C1212  C1214   1.421   .     A
C1213  C1215   1.418   .     A
C1213  C584    1.412   1_556 S
C1214  C1216   1.418   .     A
C1215  C1220   1.414   .     A
C1216  C1219   1.414   .     A
C1217  H1243   1.081   .     S
C1217  C589    1.395   1_556 S
C1218  H1244   1.081   .     S
C1219  C1245   1.513   .     S
C1220  C1249   1.513   .     S
C1220  C588    1.395   1_556 S
C1221  H1253   1.083   .     S
C1221  C1226   1.401   .     A
C1222  C1225   1.401   .     A
C1222  H1254   1.083   .     S
C1222  C1084   1.383   1_655 S
C1223  H1255   1.083   .     S
C1223  C1225   1.401   .     A
C1223  C1081   1.383   1_655 S
C1224  H1256   1.083   .     S
C1224  C1226   1.401   .     A
C1227  H1257   1.082   .     S
C1227  N1232   1.367   .     A
C1228  N1231   1.367   .     A
C1228  H1258   1.082   .     S
C1228  C809    1.417   1_565 S
C1229  H1259   1.082   .     S
C1229  N1232   1.367   .     A
C1230  H1260   1.082   .     S
C1230  N1231   1.367   .     A
C1230  C807    1.417   1_565 S
C1235  H1236   1.106   .     S
C1235  H1237   1.111   .     S
C1235  H1238   1.111   .     S
C1239  H1242   1.111   .     S
C1239  H1240   1.106   .     S
C1239  H1241   1.111   .     S
C1245  H1246   1.111   .     S
C1245  H1247   1.110   .     S
C1245  H1248   1.111   .     S
C1249  H1251   1.111   .     S
C1249  H1250   1.111   .     S
C1249  H1252   1.110   .     S
