data_str_m3_o10_o17_pcu_sym.173
_audit_creation_date              2020-01-03
_audit_creation_method            'Materials Studio'
_symmetry_space_group_name_H-M    'P1'
_symmetry_Int_Tables_number       1
_symmetry_cell_setting            triclinic
loop_
_symmetry_equiv_pos_as_xyz
  x,y,z
_cell_length_a                    23.5657
_cell_length_b                    25.6744
_cell_length_c                    29.8609
_cell_angle_alpha                 92.4195
_cell_angle_beta                  84.9060
_cell_angle_gamma                 93.7973
loop_
_atom_site_label
_atom_site_type_symbol
_atom_site_fract_x
_atom_site_fract_y
_atom_site_fract_z
_atom_site_U_iso_or_equiv
_atom_site_adp_type
_atom_site_occupancy
C1     C     0.18183   0.26480   0.24896   0.00000  Uiso   1.00
C2     C     0.15150   0.06853   0.25105   0.00000  Uiso   1.00
C3     C     0.20643   0.25622   0.47630   0.00000  Uiso   1.00
C4     C     0.12690   0.07711   0.02370   0.00000  Uiso   1.00
C5     C     0.18975   0.31939   0.24835   0.00000  Uiso   1.00
C6     C     0.14358   0.01395   0.25165   0.00000  Uiso   1.00
C7     C     0.16687   0.16705   0.33618   0.00000  Uiso   1.00
C8     C     0.16647   0.16628   0.16382   0.00000  Uiso   1.00
C9     C     0.15089   0.12076   0.09318   0.00000  Uiso   1.00
C10    C     0.18244   0.21258   0.40682   0.00000  Uiso   1.00
C11    C     0.16668   0.16687   0.11618   0.00000  Uiso   1.00
C12    C     0.16665   0.16647   0.38382   0.00000  Uiso   1.00
C13    C     0.18402   0.21319   0.09454   0.00000  Uiso   1.00
C14    C     0.14932   0.12014   0.40546   0.00000  Uiso   1.00
C15    C     0.18759   0.21330   0.04721   0.00000  Uiso   1.00
C16    C     0.14574   0.12003   0.45279   0.00000  Uiso   1.00
C17    C     0.16736   0.16705   0.02353   0.00000  Uiso   1.00
C18    C     0.16597   0.16628   0.47647   0.00000  Uiso   1.00
C19    C     0.14875   0.12127   0.04682   0.00000  Uiso   1.00
C20    C     0.18459   0.21206   0.45318   0.00000  Uiso   1.00
C21    C     0.20981   0.25711   0.02225   0.00000  Uiso   1.00
C22    C     0.12353   0.07623   0.47775   0.00000  Uiso   1.00
H23    H     0.22341   0.29049   0.45863   0.00000  Uiso   1.00
H24    H     0.10993   0.04284   0.04137   0.00000  Uiso   1.00
H25    H     0.23338   0.00308   0.24515   0.00000  Uiso   1.00
H26    H     0.09996   0.33025   0.25485   0.00000  Uiso   1.00
N27    N     0.31678   0.15265   0.23783   0.00000  Uiso   1.00
N28    N     0.01656   0.18068   0.26217   0.00000  Uiso   1.00
O29    O     0.12975   0.24619   0.25299   0.00000  Uiso   1.00
O30    O     0.20358   0.08714   0.24702   0.00000  Uiso   1.00
O31    O     0.22613   0.23721   0.24519   0.00000  Uiso   1.00
O32    O     0.10720   0.09613   0.25482   0.00000  Uiso   1.00
O33    O     0.11847   0.17117   0.31998   0.00000  Uiso   1.00
O34    O     0.21486   0.16216   0.18003   0.00000  Uiso   1.00
O35    O     0.21485   0.16219   0.31218   0.00000  Uiso   1.00
O36    O     0.11848   0.17115   0.18783   0.00000  Uiso   1.00
Zn37   Zn    0.10231   0.17266   0.25521   0.00000  Uiso   1.00
Zn38   Zn    0.23102   0.16067   0.24479   0.00000  Uiso   1.00
Br39   Br    0.13311   0.05742   0.12625   0.00000  Uiso   1.00
Br40   Br    0.20022   0.27592   0.37375   0.00000  Uiso   1.00
Cl41   Cl    0.19511   0.27002   0.12935   0.00000  Uiso   1.00
Cl42   Cl    0.13823   0.06332   0.37065   0.00000  Uiso   1.00
Br43   Br    0.25248   0.31833   0.04410   0.00000  Uiso   1.00
Br44   Br    0.08085   0.01501   0.45590   0.00000  Uiso   1.00
Br45   Br    0.01251   0.10038   0.19828   0.00000  Uiso   1.00
Br46   Br    0.32082   0.23295   0.30172   0.00000  Uiso   1.00
C47    C     0.51517   0.26480   0.24896   0.00000  Uiso   1.00
C48    C     0.48483   0.06853   0.25105   0.00000  Uiso   1.00
C49    C     0.53977   0.25622   0.47630   0.00000  Uiso   1.00
C50    C     0.46023   0.07711   0.02370   0.00000  Uiso   1.00
C51    C     0.52309   0.31939   0.24835   0.00000  Uiso   1.00
C52    C     0.47691   0.01395   0.25165   0.00000  Uiso   1.00
C53    C     0.50020   0.16705   0.33618   0.00000  Uiso   1.00
C54    C     0.49980   0.16628   0.16382   0.00000  Uiso   1.00
C55    C     0.48422   0.12076   0.09318   0.00000  Uiso   1.00
C56    C     0.51577   0.21258   0.40682   0.00000  Uiso   1.00
C57    C     0.50001   0.16687   0.11618   0.00000  Uiso   1.00
C58    C     0.49999   0.16647   0.38382   0.00000  Uiso   1.00
C59    C     0.51735   0.21319   0.09454   0.00000  Uiso   1.00
C60    C     0.48265   0.12014   0.40546   0.00000  Uiso   1.00
C61    C     0.52092   0.21330   0.04721   0.00000  Uiso   1.00
C62    C     0.47908   0.12003   0.45279   0.00000  Uiso   1.00
C63    C     0.50070   0.16705   0.02353   0.00000  Uiso   1.00
C64    C     0.49930   0.16628   0.47647   0.00000  Uiso   1.00
C65    C     0.48208   0.12127   0.04682   0.00000  Uiso   1.00
C66    C     0.51792   0.21206   0.45318   0.00000  Uiso   1.00
C67    C     0.54314   0.25711   0.02225   0.00000  Uiso   1.00
C68    C     0.45686   0.07623   0.47775   0.00000  Uiso   1.00
H69    H     0.55674   0.29049   0.45863   0.00000  Uiso   1.00
H70    H     0.44326   0.04284   0.04137   0.00000  Uiso   1.00
H71    H     0.56671   0.00308   0.24515   0.00000  Uiso   1.00
H72    H     0.43329   0.33025   0.25485   0.00000  Uiso   1.00
N73    N     0.65011   0.15265   0.23783   0.00000  Uiso   1.00
N74    N     0.34989   0.18068   0.26217   0.00000  Uiso   1.00
O75    O     0.46308   0.24619   0.25299   0.00000  Uiso   1.00
O76    O     0.53692   0.08714   0.24702   0.00000  Uiso   1.00
O77    O     0.55946   0.23721   0.24519   0.00000  Uiso   1.00
O78    O     0.44054   0.09613   0.25482   0.00000  Uiso   1.00
O79    O     0.45181   0.17117   0.31998   0.00000  Uiso   1.00
O80    O     0.54819   0.16216   0.18003   0.00000  Uiso   1.00
O81    O     0.54819   0.16219   0.31218   0.00000  Uiso   1.00
O82    O     0.45181   0.17115   0.18783   0.00000  Uiso   1.00
Zn83   Zn    0.43565   0.17266   0.25521   0.00000  Uiso   1.00
Zn84   Zn    0.56435   0.16067   0.24479   0.00000  Uiso   1.00
Br85   Br    0.46644   0.05742   0.12625   0.00000  Uiso   1.00
Br86   Br    0.53356   0.27592   0.37375   0.00000  Uiso   1.00
Cl87   Cl    0.52844   0.27002   0.12935   0.00000  Uiso   1.00
Cl88   Cl    0.47156   0.06332   0.37065   0.00000  Uiso   1.00
Br89   Br    0.58581   0.31833   0.04410   0.00000  Uiso   1.00
Br90   Br    0.41419   0.01501   0.45590   0.00000  Uiso   1.00
Br91   Br    0.34585   0.10038   0.19828   0.00000  Uiso   1.00
Br92   Br    0.65415   0.23295   0.30172   0.00000  Uiso   1.00
C93    C     0.84850   0.26480   0.24896   0.00000  Uiso   1.00
C94    C     0.81817   0.06853   0.25105   0.00000  Uiso   1.00
C95    C     0.87310   0.25622   0.47630   0.00000  Uiso   1.00
C96    C     0.79357   0.07711   0.02370   0.00000  Uiso   1.00
C97    C     0.85642   0.31939   0.24835   0.00000  Uiso   1.00
C98    C     0.81025   0.01395   0.25165   0.00000  Uiso   1.00
C99    C     0.83353   0.16705   0.33618   0.00000  Uiso   1.00
C100   C     0.83313   0.16628   0.16382   0.00000  Uiso   1.00
C101   C     0.81756   0.12076   0.09318   0.00000  Uiso   1.00
C102   C     0.84911   0.21258   0.40682   0.00000  Uiso   1.00
C103   C     0.83335   0.16687   0.11618   0.00000  Uiso   1.00
C104   C     0.83332   0.16647   0.38382   0.00000  Uiso   1.00
C105   C     0.85068   0.21319   0.09454   0.00000  Uiso   1.00
C106   C     0.81598   0.12014   0.40546   0.00000  Uiso   1.00
C107   C     0.85426   0.21330   0.04721   0.00000  Uiso   1.00
C108   C     0.81241   0.12003   0.45279   0.00000  Uiso   1.00
C109   C     0.83403   0.16705   0.02353   0.00000  Uiso   1.00
C110   C     0.83263   0.16628   0.47647   0.00000  Uiso   1.00
C111   C     0.81541   0.12127   0.04682   0.00000  Uiso   1.00
C112   C     0.85125   0.21206   0.45318   0.00000  Uiso   1.00
C113   C     0.87647   0.25711   0.02225   0.00000  Uiso   1.00
C114   C     0.79019   0.07623   0.47775   0.00000  Uiso   1.00
H115   H     0.89007   0.29049   0.45863   0.00000  Uiso   1.00
H116   H     0.77659   0.04284   0.04137   0.00000  Uiso   1.00
H117   H     0.90004   0.00308   0.24515   0.00000  Uiso   1.00
H118   H     0.76662   0.33025   0.25485   0.00000  Uiso   1.00
N119   N     0.98344   0.15265   0.23783   0.00000  Uiso   1.00
N120   N     0.68322   0.18068   0.26217   0.00000  Uiso   1.00
O121   O     0.79642   0.24619   0.25299   0.00000  Uiso   1.00
O122   O     0.87025   0.08714   0.24702   0.00000  Uiso   1.00
O123   O     0.89280   0.23721   0.24519   0.00000  Uiso   1.00
O124   O     0.77387   0.09613   0.25482   0.00000  Uiso   1.00
O125   O     0.78514   0.17117   0.31998   0.00000  Uiso   1.00
O126   O     0.88153   0.16216   0.18003   0.00000  Uiso   1.00
O127   O     0.88152   0.16219   0.31218   0.00000  Uiso   1.00
O128   O     0.78515   0.17115   0.18783   0.00000  Uiso   1.00
Zn129  Zn    0.76898   0.17266   0.25521   0.00000  Uiso   1.00
Zn130  Zn    0.89769   0.16067   0.24479   0.00000  Uiso   1.00
Br131  Br    0.79978   0.05742   0.12625   0.00000  Uiso   1.00
Br132  Br    0.86689   0.27592   0.37375   0.00000  Uiso   1.00
Cl133  Cl    0.86177   0.27002   0.12935   0.00000  Uiso   1.00
Cl134  Cl    0.80489   0.06332   0.37065   0.00000  Uiso   1.00
Br135  Br    0.91915   0.31833   0.04410   0.00000  Uiso   1.00
Br136  Br    0.74752   0.01501   0.45590   0.00000  Uiso   1.00
Br137  Br    0.67918   0.10038   0.19828   0.00000  Uiso   1.00
Br138  Br    0.98748   0.23295   0.30172   0.00000  Uiso   1.00
C139   C     0.18183   0.59813   0.24896   0.00000  Uiso   1.00
C140   C     0.15150   0.40187   0.25105   0.00000  Uiso   1.00
C141   C     0.20643   0.58955   0.47630   0.00000  Uiso   1.00
C142   C     0.12690   0.41045   0.02370   0.00000  Uiso   1.00
C143   C     0.18975   0.65272   0.24835   0.00000  Uiso   1.00
C144   C     0.14358   0.34728   0.25165   0.00000  Uiso   1.00
C145   C     0.16687   0.50038   0.33618   0.00000  Uiso   1.00
C146   C     0.16647   0.49962   0.16382   0.00000  Uiso   1.00
C147   C     0.15089   0.45409   0.09318   0.00000  Uiso   1.00
C148   C     0.18244   0.54591   0.40682   0.00000  Uiso   1.00
C149   C     0.16668   0.50020   0.11618   0.00000  Uiso   1.00
C150   C     0.16665   0.49980   0.38382   0.00000  Uiso   1.00
C151   C     0.18402   0.54652   0.09454   0.00000  Uiso   1.00
C152   C     0.14932   0.45348   0.40546   0.00000  Uiso   1.00
C153   C     0.18759   0.54663   0.04721   0.00000  Uiso   1.00
C154   C     0.14574   0.45337   0.45279   0.00000  Uiso   1.00
C155   C     0.16736   0.50039   0.02353   0.00000  Uiso   1.00
C156   C     0.16597   0.49961   0.47647   0.00000  Uiso   1.00
C157   C     0.14875   0.45461   0.04682   0.00000  Uiso   1.00
C158   C     0.18459   0.54539   0.45318   0.00000  Uiso   1.00
C159   C     0.20981   0.59044   0.02225   0.00000  Uiso   1.00
C160   C     0.12353   0.40956   0.47775   0.00000  Uiso   1.00
H161   H     0.22341   0.62383   0.45863   0.00000  Uiso   1.00
H162   H     0.10993   0.37617   0.04137   0.00000  Uiso   1.00
H163   H     0.23338   0.33641   0.24515   0.00000  Uiso   1.00
H164   H     0.09996   0.66359   0.25485   0.00000  Uiso   1.00
N165   N     0.31678   0.48598   0.23783   0.00000  Uiso   1.00
N166   N     0.01656   0.51402   0.26217   0.00000  Uiso   1.00
O167   O     0.12975   0.57952   0.25299   0.00000  Uiso   1.00
O168   O     0.20358   0.42048   0.24702   0.00000  Uiso   1.00
O169   O     0.22613   0.57054   0.24519   0.00000  Uiso   1.00
O170   O     0.10720   0.42946   0.25482   0.00000  Uiso   1.00
O171   O     0.11847   0.50450   0.31998   0.00000  Uiso   1.00
O172   O     0.21486   0.49550   0.18003   0.00000  Uiso   1.00
O173   O     0.21485   0.49552   0.31218   0.00000  Uiso   1.00
O174   O     0.11848   0.50448   0.18783   0.00000  Uiso   1.00
Zn175  Zn    0.10231   0.50600   0.25521   0.00000  Uiso   1.00
Zn176  Zn    0.23102   0.49400   0.24479   0.00000  Uiso   1.00
Br177  Br    0.13311   0.39075   0.12625   0.00000  Uiso   1.00
Br178  Br    0.20022   0.60925   0.37375   0.00000  Uiso   1.00
Cl179  Cl    0.19511   0.60335   0.12935   0.00000  Uiso   1.00
Cl180  Cl    0.13823   0.39665   0.37065   0.00000  Uiso   1.00
Br181  Br    0.25248   0.65166   0.04410   0.00000  Uiso   1.00
Br182  Br    0.08085   0.34834   0.45590   0.00000  Uiso   1.00
Br183  Br    0.01251   0.43372   0.19828   0.00000  Uiso   1.00
Br184  Br    0.32082   0.56628   0.30172   0.00000  Uiso   1.00
C185   C     0.51517   0.59813   0.24896   0.00000  Uiso   1.00
C186   C     0.48483   0.40187   0.25105   0.00000  Uiso   1.00
C187   C     0.53977   0.58955   0.47630   0.00000  Uiso   1.00
C188   C     0.46023   0.41045   0.02370   0.00000  Uiso   1.00
C189   C     0.52309   0.65272   0.24835   0.00000  Uiso   1.00
C190   C     0.47691   0.34728   0.25165   0.00000  Uiso   1.00
C191   C     0.50020   0.50038   0.33618   0.00000  Uiso   1.00
C192   C     0.49980   0.49962   0.16382   0.00000  Uiso   1.00
C193   C     0.48422   0.45409   0.09318   0.00000  Uiso   1.00
C194   C     0.51577   0.54591   0.40682   0.00000  Uiso   1.00
C195   C     0.50001   0.50020   0.11618   0.00000  Uiso   1.00
C196   C     0.49999   0.49980   0.38382   0.00000  Uiso   1.00
C197   C     0.51735   0.54652   0.09454   0.00000  Uiso   1.00
C198   C     0.48265   0.45348   0.40546   0.00000  Uiso   1.00
C199   C     0.52092   0.54663   0.04721   0.00000  Uiso   1.00
C200   C     0.47908   0.45337   0.45279   0.00000  Uiso   1.00
C201   C     0.50070   0.50039   0.02353   0.00000  Uiso   1.00
C202   C     0.49930   0.49961   0.47647   0.00000  Uiso   1.00
C203   C     0.48208   0.45461   0.04682   0.00000  Uiso   1.00
C204   C     0.51792   0.54539   0.45318   0.00000  Uiso   1.00
C205   C     0.54314   0.59044   0.02225   0.00000  Uiso   1.00
C206   C     0.45686   0.40956   0.47775   0.00000  Uiso   1.00
H207   H     0.55674   0.62383   0.45863   0.00000  Uiso   1.00
H208   H     0.44326   0.37617   0.04137   0.00000  Uiso   1.00
H209   H     0.56671   0.33641   0.24515   0.00000  Uiso   1.00
H210   H     0.43329   0.66359   0.25485   0.00000  Uiso   1.00
N211   N     0.65011   0.48598   0.23783   0.00000  Uiso   1.00
N212   N     0.34989   0.51402   0.26217   0.00000  Uiso   1.00
O213   O     0.46308   0.57952   0.25299   0.00000  Uiso   1.00
O214   O     0.53692   0.42048   0.24702   0.00000  Uiso   1.00
O215   O     0.55946   0.57054   0.24519   0.00000  Uiso   1.00
O216   O     0.44054   0.42946   0.25482   0.00000  Uiso   1.00
O217   O     0.45181   0.50450   0.31998   0.00000  Uiso   1.00
O218   O     0.54819   0.49550   0.18003   0.00000  Uiso   1.00
O219   O     0.54819   0.49552   0.31218   0.00000  Uiso   1.00
O220   O     0.45181   0.50448   0.18783   0.00000  Uiso   1.00
Zn221  Zn    0.43565   0.50600   0.25521   0.00000  Uiso   1.00
Zn222  Zn    0.56435   0.49400   0.24479   0.00000  Uiso   1.00
Br223  Br    0.46644   0.39075   0.12625   0.00000  Uiso   1.00
Br224  Br    0.53356   0.60925   0.37375   0.00000  Uiso   1.00
Cl225  Cl    0.52844   0.60335   0.12935   0.00000  Uiso   1.00
Cl226  Cl    0.47156   0.39665   0.37065   0.00000  Uiso   1.00
Br227  Br    0.58581   0.65166   0.04410   0.00000  Uiso   1.00
Br228  Br    0.41419   0.34834   0.45590   0.00000  Uiso   1.00
Br229  Br    0.34585   0.43372   0.19828   0.00000  Uiso   1.00
Br230  Br    0.65415   0.56628   0.30172   0.00000  Uiso   1.00
C231   C     0.84850   0.59813   0.24896   0.00000  Uiso   1.00
C232   C     0.81817   0.40187   0.25105   0.00000  Uiso   1.00
C233   C     0.87310   0.58955   0.47630   0.00000  Uiso   1.00
C234   C     0.79357   0.41045   0.02370   0.00000  Uiso   1.00
C235   C     0.85642   0.65272   0.24835   0.00000  Uiso   1.00
C236   C     0.81025   0.34728   0.25165   0.00000  Uiso   1.00
C237   C     0.83353   0.50038   0.33618   0.00000  Uiso   1.00
C238   C     0.83313   0.49962   0.16382   0.00000  Uiso   1.00
C239   C     0.81756   0.45409   0.09318   0.00000  Uiso   1.00
C240   C     0.84911   0.54591   0.40682   0.00000  Uiso   1.00
C241   C     0.83335   0.50020   0.11618   0.00000  Uiso   1.00
C242   C     0.83332   0.49980   0.38382   0.00000  Uiso   1.00
C243   C     0.85068   0.54652   0.09454   0.00000  Uiso   1.00
C244   C     0.81598   0.45348   0.40546   0.00000  Uiso   1.00
C245   C     0.85426   0.54663   0.04721   0.00000  Uiso   1.00
C246   C     0.81241   0.45337   0.45279   0.00000  Uiso   1.00
C247   C     0.83403   0.50039   0.02353   0.00000  Uiso   1.00
C248   C     0.83263   0.49961   0.47647   0.00000  Uiso   1.00
C249   C     0.81541   0.45461   0.04682   0.00000  Uiso   1.00
C250   C     0.85125   0.54539   0.45318   0.00000  Uiso   1.00
C251   C     0.87647   0.59044   0.02225   0.00000  Uiso   1.00
C252   C     0.79019   0.40956   0.47775   0.00000  Uiso   1.00
H253   H     0.89007   0.62383   0.45863   0.00000  Uiso   1.00
H254   H     0.77659   0.37617   0.04137   0.00000  Uiso   1.00
H255   H     0.90004   0.33641   0.24515   0.00000  Uiso   1.00
H256   H     0.76662   0.66359   0.25485   0.00000  Uiso   1.00
N257   N     0.98344   0.48598   0.23783   0.00000  Uiso   1.00
N258   N     0.68322   0.51402   0.26217   0.00000  Uiso   1.00
O259   O     0.79642   0.57952   0.25299   0.00000  Uiso   1.00
O260   O     0.87025   0.42048   0.24702   0.00000  Uiso   1.00
O261   O     0.89280   0.57054   0.24519   0.00000  Uiso   1.00
O262   O     0.77387   0.42946   0.25482   0.00000  Uiso   1.00
O263   O     0.78514   0.50450   0.31998   0.00000  Uiso   1.00
O264   O     0.88153   0.49550   0.18003   0.00000  Uiso   1.00
O265   O     0.88152   0.49552   0.31218   0.00000  Uiso   1.00
O266   O     0.78515   0.50448   0.18783   0.00000  Uiso   1.00
Zn267  Zn    0.76898   0.50600   0.25521   0.00000  Uiso   1.00
Zn268  Zn    0.89769   0.49400   0.24479   0.00000  Uiso   1.00
Br269  Br    0.79978   0.39075   0.12625   0.00000  Uiso   1.00
Br270  Br    0.86689   0.60925   0.37375   0.00000  Uiso   1.00
Cl271  Cl    0.86177   0.60335   0.12935   0.00000  Uiso   1.00
Cl272  Cl    0.80489   0.39665   0.37065   0.00000  Uiso   1.00
Br273  Br    0.91915   0.65166   0.04410   0.00000  Uiso   1.00
Br274  Br    0.74752   0.34834   0.45590   0.00000  Uiso   1.00
Br275  Br    0.67918   0.43372   0.19828   0.00000  Uiso   1.00
Br276  Br    0.98748   0.56628   0.30172   0.00000  Uiso   1.00
C277   C     0.18183   0.93147   0.24896   0.00000  Uiso   1.00
C278   C     0.15150   0.73520   0.25105   0.00000  Uiso   1.00
C279   C     0.20643   0.92289   0.47630   0.00000  Uiso   1.00
C280   C     0.12690   0.74378   0.02370   0.00000  Uiso   1.00
C281   C     0.18975   0.98605   0.24835   0.00000  Uiso   1.00
C282   C     0.14358   0.68061   0.25165   0.00000  Uiso   1.00
C283   C     0.16687   0.83372   0.33618   0.00000  Uiso   1.00
C284   C     0.16647   0.83295   0.16382   0.00000  Uiso   1.00
C285   C     0.15089   0.78742   0.09318   0.00000  Uiso   1.00
C286   C     0.18244   0.87924   0.40682   0.00000  Uiso   1.00
C287   C     0.16668   0.83353   0.11618   0.00000  Uiso   1.00
C288   C     0.16665   0.83313   0.38382   0.00000  Uiso   1.00
C289   C     0.18402   0.87986   0.09454   0.00000  Uiso   1.00
C290   C     0.14932   0.78681   0.40546   0.00000  Uiso   1.00
C291   C     0.18759   0.87997   0.04721   0.00000  Uiso   1.00
C292   C     0.14574   0.78670   0.45279   0.00000  Uiso   1.00
C293   C     0.16736   0.83372   0.02353   0.00000  Uiso   1.00
C294   C     0.16597   0.83295   0.47647   0.00000  Uiso   1.00
C295   C     0.14875   0.78794   0.04682   0.00000  Uiso   1.00
C296   C     0.18459   0.87873   0.45318   0.00000  Uiso   1.00
C297   C     0.20981   0.92377   0.02225   0.00000  Uiso   1.00
C298   C     0.12353   0.74289   0.47775   0.00000  Uiso   1.00
H299   H     0.22341   0.95716   0.45863   0.00000  Uiso   1.00
H300   H     0.10993   0.70951   0.04137   0.00000  Uiso   1.00
H301   H     0.23338   0.66975   0.24515   0.00000  Uiso   1.00
H302   H     0.09996   0.99692   0.25485   0.00000  Uiso   1.00
N303   N     0.31678   0.81932   0.23783   0.00000  Uiso   1.00
N304   N     0.01656   0.84735   0.26217   0.00000  Uiso   1.00
O305   O     0.12975   0.91286   0.25299   0.00000  Uiso   1.00
O306   O     0.20358   0.75381   0.24702   0.00000  Uiso   1.00
O307   O     0.22613   0.90387   0.24519   0.00000  Uiso   1.00
O308   O     0.10720   0.76279   0.25482   0.00000  Uiso   1.00
O309   O     0.11847   0.83784   0.31998   0.00000  Uiso   1.00
O310   O     0.21486   0.82883   0.18003   0.00000  Uiso   1.00
O311   O     0.21485   0.82885   0.31218   0.00000  Uiso   1.00
O312   O     0.11848   0.83781   0.18783   0.00000  Uiso   1.00
Zn313  Zn    0.10231   0.83933   0.25521   0.00000  Uiso   1.00
Zn314  Zn    0.23102   0.82734   0.24479   0.00000  Uiso   1.00
Br315  Br    0.13311   0.72408   0.12625   0.00000  Uiso   1.00
Br316  Br    0.20022   0.94258   0.37375   0.00000  Uiso   1.00
Cl317  Cl    0.19511   0.93668   0.12935   0.00000  Uiso   1.00
Cl318  Cl    0.13823   0.72998   0.37065   0.00000  Uiso   1.00
Br319  Br    0.25248   0.98499   0.04410   0.00000  Uiso   1.00
Br320  Br    0.08085   0.68167   0.45590   0.00000  Uiso   1.00
Br321  Br    0.01251   0.76705   0.19828   0.00000  Uiso   1.00
Br322  Br    0.32082   0.89962   0.30172   0.00000  Uiso   1.00
C323   C     0.51517   0.93147   0.24896   0.00000  Uiso   1.00
C324   C     0.48483   0.73520   0.25105   0.00000  Uiso   1.00
C325   C     0.53977   0.92289   0.47630   0.00000  Uiso   1.00
C326   C     0.46023   0.74378   0.02370   0.00000  Uiso   1.00
C327   C     0.52309   0.98605   0.24835   0.00000  Uiso   1.00
C328   C     0.47691   0.68061   0.25165   0.00000  Uiso   1.00
C329   C     0.50020   0.83372   0.33618   0.00000  Uiso   1.00
C330   C     0.49980   0.83295   0.16382   0.00000  Uiso   1.00
C331   C     0.48422   0.78742   0.09318   0.00000  Uiso   1.00
C332   C     0.51577   0.87924   0.40682   0.00000  Uiso   1.00
C333   C     0.50001   0.83353   0.11618   0.00000  Uiso   1.00
C334   C     0.49999   0.83313   0.38382   0.00000  Uiso   1.00
C335   C     0.51735   0.87986   0.09454   0.00000  Uiso   1.00
C336   C     0.48265   0.78681   0.40546   0.00000  Uiso   1.00
C337   C     0.52092   0.87997   0.04721   0.00000  Uiso   1.00
C338   C     0.47908   0.78670   0.45279   0.00000  Uiso   1.00
C339   C     0.50070   0.83372   0.02353   0.00000  Uiso   1.00
C340   C     0.49930   0.83295   0.47647   0.00000  Uiso   1.00
C341   C     0.48208   0.78794   0.04682   0.00000  Uiso   1.00
C342   C     0.51792   0.87873   0.45318   0.00000  Uiso   1.00
C343   C     0.54314   0.92377   0.02225   0.00000  Uiso   1.00
C344   C     0.45686   0.74289   0.47775   0.00000  Uiso   1.00
H345   H     0.55674   0.95716   0.45863   0.00000  Uiso   1.00
H346   H     0.44326   0.70951   0.04137   0.00000  Uiso   1.00
H347   H     0.56671   0.66975   0.24515   0.00000  Uiso   1.00
H348   H     0.43329   0.99692   0.25485   0.00000  Uiso   1.00
N349   N     0.65011   0.81932   0.23783   0.00000  Uiso   1.00
N350   N     0.34989   0.84735   0.26217   0.00000  Uiso   1.00
O351   O     0.46308   0.91286   0.25299   0.00000  Uiso   1.00
O352   O     0.53692   0.75381   0.24702   0.00000  Uiso   1.00
O353   O     0.55946   0.90387   0.24519   0.00000  Uiso   1.00
O354   O     0.44054   0.76279   0.25482   0.00000  Uiso   1.00
O355   O     0.45181   0.83784   0.31998   0.00000  Uiso   1.00
O356   O     0.54819   0.82883   0.18003   0.00000  Uiso   1.00
O357   O     0.54819   0.82885   0.31218   0.00000  Uiso   1.00
O358   O     0.45181   0.83781   0.18783   0.00000  Uiso   1.00
Zn359  Zn    0.43565   0.83933   0.25521   0.00000  Uiso   1.00
Zn360  Zn    0.56435   0.82734   0.24479   0.00000  Uiso   1.00
Br361  Br    0.46644   0.72408   0.12625   0.00000  Uiso   1.00
Br362  Br    0.53356   0.94258   0.37375   0.00000  Uiso   1.00
Cl363  Cl    0.52844   0.93668   0.12935   0.00000  Uiso   1.00
Cl364  Cl    0.47156   0.72998   0.37065   0.00000  Uiso   1.00
Br365  Br    0.58581   0.98499   0.04410   0.00000  Uiso   1.00
Br366  Br    0.41419   0.68167   0.45590   0.00000  Uiso   1.00
Br367  Br    0.34585   0.76705   0.19828   0.00000  Uiso   1.00
Br368  Br    0.65415   0.89962   0.30172   0.00000  Uiso   1.00
C369   C     0.84850   0.93147   0.24896   0.00000  Uiso   1.00
C370   C     0.81817   0.73520   0.25105   0.00000  Uiso   1.00
C371   C     0.87310   0.92289   0.47630   0.00000  Uiso   1.00
C372   C     0.79357   0.74378   0.02370   0.00000  Uiso   1.00
C373   C     0.85642   0.98605   0.24835   0.00000  Uiso   1.00
C374   C     0.81025   0.68061   0.25165   0.00000  Uiso   1.00
C375   C     0.83353   0.83372   0.33618   0.00000  Uiso   1.00
C376   C     0.83313   0.83295   0.16382   0.00000  Uiso   1.00
C377   C     0.81756   0.78742   0.09318   0.00000  Uiso   1.00
C378   C     0.84911   0.87924   0.40682   0.00000  Uiso   1.00
C379   C     0.83335   0.83353   0.11618   0.00000  Uiso   1.00
C380   C     0.83332   0.83313   0.38382   0.00000  Uiso   1.00
C381   C     0.85068   0.87986   0.09454   0.00000  Uiso   1.00
C382   C     0.81598   0.78681   0.40546   0.00000  Uiso   1.00
C383   C     0.85426   0.87997   0.04721   0.00000  Uiso   1.00
C384   C     0.81241   0.78670   0.45279   0.00000  Uiso   1.00
C385   C     0.83403   0.83372   0.02353   0.00000  Uiso   1.00
C386   C     0.83263   0.83295   0.47647   0.00000  Uiso   1.00
C387   C     0.81541   0.78794   0.04682   0.00000  Uiso   1.00
C388   C     0.85125   0.87873   0.45318   0.00000  Uiso   1.00
C389   C     0.87647   0.92377   0.02225   0.00000  Uiso   1.00
C390   C     0.79019   0.74289   0.47775   0.00000  Uiso   1.00
H391   H     0.89007   0.95716   0.45863   0.00000  Uiso   1.00
H392   H     0.77659   0.70951   0.04137   0.00000  Uiso   1.00
H393   H     0.90004   0.66975   0.24515   0.00000  Uiso   1.00
H394   H     0.76662   0.99692   0.25485   0.00000  Uiso   1.00
N395   N     0.98344   0.81932   0.23783   0.00000  Uiso   1.00
N396   N     0.68322   0.84735   0.26217   0.00000  Uiso   1.00
O397   O     0.79642   0.91286   0.25299   0.00000  Uiso   1.00
O398   O     0.87025   0.75381   0.24702   0.00000  Uiso   1.00
O399   O     0.89280   0.90387   0.24519   0.00000  Uiso   1.00
O400   O     0.77387   0.76279   0.25482   0.00000  Uiso   1.00
O401   O     0.78514   0.83784   0.31998   0.00000  Uiso   1.00
O402   O     0.88153   0.82883   0.18003   0.00000  Uiso   1.00
O403   O     0.88152   0.82885   0.31218   0.00000  Uiso   1.00
O404   O     0.78515   0.83781   0.18783   0.00000  Uiso   1.00
Zn405  Zn    0.76898   0.83933   0.25521   0.00000  Uiso   1.00
Zn406  Zn    0.89769   0.82734   0.24479   0.00000  Uiso   1.00
Br407  Br    0.79978   0.72408   0.12625   0.00000  Uiso   1.00
Br408  Br    0.86689   0.94258   0.37375   0.00000  Uiso   1.00
Cl409  Cl    0.86177   0.93668   0.12935   0.00000  Uiso   1.00
Cl410  Cl    0.80489   0.72998   0.37065   0.00000  Uiso   1.00
Br411  Br    0.91915   0.98499   0.04410   0.00000  Uiso   1.00
Br412  Br    0.74752   0.68167   0.45590   0.00000  Uiso   1.00
Br413  Br    0.67918   0.76705   0.19828   0.00000  Uiso   1.00
Br414  Br    0.98748   0.89962   0.30172   0.00000  Uiso   1.00
C415   C     0.18183   0.26480   0.74896   0.00000  Uiso   1.00
C416   C     0.15150   0.06853   0.75105   0.00000  Uiso   1.00
C417   C     0.20643   0.25622   0.97630   0.00000  Uiso   1.00
C418   C     0.12690   0.07711   0.52370   0.00000  Uiso   1.00
C419   C     0.18975   0.31939   0.74835   0.00000  Uiso   1.00
C420   C     0.14358   0.01395   0.75165   0.00000  Uiso   1.00
C421   C     0.16687   0.16705   0.83618   0.00000  Uiso   1.00
C422   C     0.16647   0.16628   0.66382   0.00000  Uiso   1.00
C423   C     0.15089   0.12076   0.59318   0.00000  Uiso   1.00
C424   C     0.18244   0.21258   0.90682   0.00000  Uiso   1.00
C425   C     0.16668   0.16687   0.61618   0.00000  Uiso   1.00
C426   C     0.16665   0.16647   0.88382   0.00000  Uiso   1.00
C427   C     0.18402   0.21319   0.59454   0.00000  Uiso   1.00
C428   C     0.14932   0.12014   0.90546   0.00000  Uiso   1.00
C429   C     0.18759   0.21330   0.54721   0.00000  Uiso   1.00
C430   C     0.14574   0.12003   0.95279   0.00000  Uiso   1.00
C431   C     0.16736   0.16705   0.52353   0.00000  Uiso   1.00
C432   C     0.16597   0.16628   0.97647   0.00000  Uiso   1.00
C433   C     0.14875   0.12127   0.54682   0.00000  Uiso   1.00
C434   C     0.18459   0.21206   0.95318   0.00000  Uiso   1.00
C435   C     0.20981   0.25711   0.52225   0.00000  Uiso   1.00
C436   C     0.12353   0.07623   0.97775   0.00000  Uiso   1.00
H437   H     0.22341   0.29049   0.95863   0.00000  Uiso   1.00
H438   H     0.10993   0.04284   0.54137   0.00000  Uiso   1.00
H439   H     0.23338   0.00308   0.74515   0.00000  Uiso   1.00
H440   H     0.09996   0.33025   0.75485   0.00000  Uiso   1.00
N441   N     0.31678   0.15265   0.73783   0.00000  Uiso   1.00
N442   N     0.01656   0.18068   0.76217   0.00000  Uiso   1.00
O443   O     0.12975   0.24619   0.75299   0.00000  Uiso   1.00
O444   O     0.20358   0.08714   0.74702   0.00000  Uiso   1.00
O445   O     0.22613   0.23721   0.74519   0.00000  Uiso   1.00
O446   O     0.10720   0.09613   0.75482   0.00000  Uiso   1.00
O447   O     0.11847   0.17117   0.81998   0.00000  Uiso   1.00
O448   O     0.21486   0.16216   0.68003   0.00000  Uiso   1.00
O449   O     0.21485   0.16219   0.81218   0.00000  Uiso   1.00
O450   O     0.11848   0.17115   0.68783   0.00000  Uiso   1.00
Zn451  Zn    0.10231   0.17266   0.75521   0.00000  Uiso   1.00
Zn452  Zn    0.23102   0.16067   0.74479   0.00000  Uiso   1.00
Br453  Br    0.13311   0.05742   0.62625   0.00000  Uiso   1.00
Br454  Br    0.20022   0.27592   0.87375   0.00000  Uiso   1.00
Cl455  Cl    0.19511   0.27002   0.62935   0.00000  Uiso   1.00
Cl456  Cl    0.13823   0.06332   0.87065   0.00000  Uiso   1.00
Br457  Br    0.25248   0.31833   0.54410   0.00000  Uiso   1.00
Br458  Br    0.08085   0.01501   0.95590   0.00000  Uiso   1.00
Br459  Br    0.01251   0.10038   0.69828   0.00000  Uiso   1.00
Br460  Br    0.32082   0.23295   0.80172   0.00000  Uiso   1.00
C461   C     0.51517   0.26480   0.74896   0.00000  Uiso   1.00
C462   C     0.48483   0.06853   0.75105   0.00000  Uiso   1.00
C463   C     0.53977   0.25622   0.97630   0.00000  Uiso   1.00
C464   C     0.46023   0.07711   0.52370   0.00000  Uiso   1.00
C465   C     0.52309   0.31939   0.74835   0.00000  Uiso   1.00
C466   C     0.47691   0.01395   0.75165   0.00000  Uiso   1.00
C467   C     0.50020   0.16705   0.83618   0.00000  Uiso   1.00
C468   C     0.49980   0.16628   0.66382   0.00000  Uiso   1.00
C469   C     0.48422   0.12076   0.59318   0.00000  Uiso   1.00
C470   C     0.51577   0.21258   0.90682   0.00000  Uiso   1.00
C471   C     0.50001   0.16687   0.61618   0.00000  Uiso   1.00
C472   C     0.49999   0.16647   0.88382   0.00000  Uiso   1.00
C473   C     0.51735   0.21319   0.59454   0.00000  Uiso   1.00
C474   C     0.48265   0.12014   0.90546   0.00000  Uiso   1.00
C475   C     0.52092   0.21330   0.54721   0.00000  Uiso   1.00
C476   C     0.47908   0.12003   0.95279   0.00000  Uiso   1.00
C477   C     0.50070   0.16705   0.52353   0.00000  Uiso   1.00
C478   C     0.49930   0.16628   0.97647   0.00000  Uiso   1.00
C479   C     0.48208   0.12127   0.54682   0.00000  Uiso   1.00
C480   C     0.51792   0.21206   0.95318   0.00000  Uiso   1.00
C481   C     0.54314   0.25711   0.52225   0.00000  Uiso   1.00
C482   C     0.45686   0.07623   0.97775   0.00000  Uiso   1.00
H483   H     0.55674   0.29049   0.95863   0.00000  Uiso   1.00
H484   H     0.44326   0.04284   0.54137   0.00000  Uiso   1.00
H485   H     0.56671   0.00308   0.74515   0.00000  Uiso   1.00
H486   H     0.43329   0.33025   0.75485   0.00000  Uiso   1.00
N487   N     0.65011   0.15265   0.73783   0.00000  Uiso   1.00
N488   N     0.34989   0.18068   0.76217   0.00000  Uiso   1.00
O489   O     0.46308   0.24619   0.75299   0.00000  Uiso   1.00
O490   O     0.53692   0.08714   0.74702   0.00000  Uiso   1.00
O491   O     0.55946   0.23721   0.74519   0.00000  Uiso   1.00
O492   O     0.44054   0.09613   0.75482   0.00000  Uiso   1.00
O493   O     0.45181   0.17117   0.81998   0.00000  Uiso   1.00
O494   O     0.54819   0.16216   0.68003   0.00000  Uiso   1.00
O495   O     0.54819   0.16219   0.81218   0.00000  Uiso   1.00
O496   O     0.45181   0.17115   0.68783   0.00000  Uiso   1.00
Zn497  Zn    0.43565   0.17266   0.75521   0.00000  Uiso   1.00
Zn498  Zn    0.56435   0.16067   0.74479   0.00000  Uiso   1.00
Br499  Br    0.46644   0.05742   0.62625   0.00000  Uiso   1.00
Br500  Br    0.53356   0.27592   0.87375   0.00000  Uiso   1.00
Cl501  Cl    0.52844   0.27002   0.62935   0.00000  Uiso   1.00
Cl502  Cl    0.47156   0.06332   0.87065   0.00000  Uiso   1.00
Br503  Br    0.58581   0.31833   0.54410   0.00000  Uiso   1.00
Br504  Br    0.41419   0.01501   0.95590   0.00000  Uiso   1.00
Br505  Br    0.34585   0.10038   0.69828   0.00000  Uiso   1.00
Br506  Br    0.65415   0.23295   0.80172   0.00000  Uiso   1.00
C507   C     0.84850   0.26480   0.74896   0.00000  Uiso   1.00
C508   C     0.81817   0.06853   0.75105   0.00000  Uiso   1.00
C509   C     0.87310   0.25622   0.97630   0.00000  Uiso   1.00
C510   C     0.79357   0.07711   0.52370   0.00000  Uiso   1.00
C511   C     0.85642   0.31939   0.74835   0.00000  Uiso   1.00
C512   C     0.81025   0.01395   0.75165   0.00000  Uiso   1.00
C513   C     0.83353   0.16705   0.83618   0.00000  Uiso   1.00
C514   C     0.83313   0.16628   0.66382   0.00000  Uiso   1.00
C515   C     0.81756   0.12076   0.59318   0.00000  Uiso   1.00
C516   C     0.84911   0.21258   0.90682   0.00000  Uiso   1.00
C517   C     0.83335   0.16687   0.61618   0.00000  Uiso   1.00
C518   C     0.83332   0.16647   0.88382   0.00000  Uiso   1.00
C519   C     0.85068   0.21319   0.59454   0.00000  Uiso   1.00
C520   C     0.81598   0.12014   0.90546   0.00000  Uiso   1.00
C521   C     0.85426   0.21330   0.54721   0.00000  Uiso   1.00
C522   C     0.81241   0.12003   0.95279   0.00000  Uiso   1.00
C523   C     0.83403   0.16705   0.52353   0.00000  Uiso   1.00
C524   C     0.83263   0.16628   0.97647   0.00000  Uiso   1.00
C525   C     0.81541   0.12127   0.54682   0.00000  Uiso   1.00
C526   C     0.85125   0.21206   0.95318   0.00000  Uiso   1.00
C527   C     0.87647   0.25711   0.52225   0.00000  Uiso   1.00
C528   C     0.79019   0.07623   0.97775   0.00000  Uiso   1.00
H529   H     0.89007   0.29049   0.95863   0.00000  Uiso   1.00
H530   H     0.77659   0.04284   0.54137   0.00000  Uiso   1.00
H531   H     0.90004   0.00308   0.74515   0.00000  Uiso   1.00
H532   H     0.76662   0.33025   0.75485   0.00000  Uiso   1.00
N533   N     0.98344   0.15265   0.73783   0.00000  Uiso   1.00
N534   N     0.68322   0.18068   0.76217   0.00000  Uiso   1.00
O535   O     0.79642   0.24619   0.75299   0.00000  Uiso   1.00
O536   O     0.87025   0.08714   0.74702   0.00000  Uiso   1.00
O537   O     0.89280   0.23721   0.74519   0.00000  Uiso   1.00
O538   O     0.77387   0.09613   0.75482   0.00000  Uiso   1.00
O539   O     0.78514   0.17117   0.81998   0.00000  Uiso   1.00
O540   O     0.88153   0.16216   0.68003   0.00000  Uiso   1.00
O541   O     0.88152   0.16219   0.81218   0.00000  Uiso   1.00
O542   O     0.78515   0.17115   0.68783   0.00000  Uiso   1.00
Zn543  Zn    0.76898   0.17266   0.75521   0.00000  Uiso   1.00
Zn544  Zn    0.89769   0.16067   0.74479   0.00000  Uiso   1.00
Br545  Br    0.79978   0.05742   0.62625   0.00000  Uiso   1.00
Br546  Br    0.86689   0.27592   0.87375   0.00000  Uiso   1.00
Cl547  Cl    0.86177   0.27002   0.62935   0.00000  Uiso   1.00
Cl548  Cl    0.80489   0.06332   0.87065   0.00000  Uiso   1.00
Br549  Br    0.91915   0.31833   0.54410   0.00000  Uiso   1.00
Br550  Br    0.74752   0.01501   0.95590   0.00000  Uiso   1.00
Br551  Br    0.67918   0.10038   0.69828   0.00000  Uiso   1.00
Br552  Br    0.98748   0.23295   0.80172   0.00000  Uiso   1.00
C553   C     0.18183   0.59813   0.74896   0.00000  Uiso   1.00
C554   C     0.15150   0.40187   0.75105   0.00000  Uiso   1.00
C555   C     0.20643   0.58955   0.97630   0.00000  Uiso   1.00
C556   C     0.12690   0.41045   0.52370   0.00000  Uiso   1.00
C557   C     0.18975   0.65272   0.74835   0.00000  Uiso   1.00
C558   C     0.14358   0.34728   0.75165   0.00000  Uiso   1.00
C559   C     0.16687   0.50038   0.83618   0.00000  Uiso   1.00
C560   C     0.16647   0.49962   0.66382   0.00000  Uiso   1.00
C561   C     0.15089   0.45409   0.59318   0.00000  Uiso   1.00
C562   C     0.18244   0.54591   0.90682   0.00000  Uiso   1.00
C563   C     0.16668   0.50020   0.61618   0.00000  Uiso   1.00
C564   C     0.16665   0.49980   0.88382   0.00000  Uiso   1.00
C565   C     0.18402   0.54652   0.59454   0.00000  Uiso   1.00
C566   C     0.14932   0.45348   0.90546   0.00000  Uiso   1.00
C567   C     0.18759   0.54663   0.54721   0.00000  Uiso   1.00
C568   C     0.14574   0.45337   0.95279   0.00000  Uiso   1.00
C569   C     0.16736   0.50039   0.52353   0.00000  Uiso   1.00
C570   C     0.16597   0.49961   0.97647   0.00000  Uiso   1.00
C571   C     0.14875   0.45461   0.54682   0.00000  Uiso   1.00
C572   C     0.18459   0.54539   0.95318   0.00000  Uiso   1.00
C573   C     0.20981   0.59044   0.52225   0.00000  Uiso   1.00
C574   C     0.12353   0.40956   0.97775   0.00000  Uiso   1.00
H575   H     0.22341   0.62383   0.95863   0.00000  Uiso   1.00
H576   H     0.10993   0.37617   0.54137   0.00000  Uiso   1.00
H577   H     0.23338   0.33641   0.74515   0.00000  Uiso   1.00
H578   H     0.09996   0.66359   0.75485   0.00000  Uiso   1.00
N579   N     0.31678   0.48598   0.73783   0.00000  Uiso   1.00
N580   N     0.01656   0.51402   0.76217   0.00000  Uiso   1.00
O581   O     0.12975   0.57952   0.75299   0.00000  Uiso   1.00
O582   O     0.20358   0.42048   0.74702   0.00000  Uiso   1.00
O583   O     0.22613   0.57054   0.74519   0.00000  Uiso   1.00
O584   O     0.10720   0.42946   0.75482   0.00000  Uiso   1.00
O585   O     0.11847   0.50450   0.81998   0.00000  Uiso   1.00
O586   O     0.21486   0.49550   0.68003   0.00000  Uiso   1.00
O587   O     0.21485   0.49552   0.81218   0.00000  Uiso   1.00
O588   O     0.11848   0.50448   0.68783   0.00000  Uiso   1.00
Zn589  Zn    0.10231   0.50600   0.75521   0.00000  Uiso   1.00
Zn590  Zn    0.23102   0.49400   0.74479   0.00000  Uiso   1.00
Br591  Br    0.13311   0.39075   0.62625   0.00000  Uiso   1.00
Br592  Br    0.20022   0.60925   0.87375   0.00000  Uiso   1.00
Cl593  Cl    0.19511   0.60335   0.62935   0.00000  Uiso   1.00
Cl594  Cl    0.13823   0.39665   0.87065   0.00000  Uiso   1.00
Br595  Br    0.25248   0.65166   0.54410   0.00000  Uiso   1.00
Br596  Br    0.08085   0.34834   0.95590   0.00000  Uiso   1.00
Br597  Br    0.01251   0.43372   0.69828   0.00000  Uiso   1.00
Br598  Br    0.32082   0.56628   0.80172   0.00000  Uiso   1.00
C599   C     0.51517   0.59813   0.74896   0.00000  Uiso   1.00
C600   C     0.48483   0.40187   0.75105   0.00000  Uiso   1.00
C601   C     0.53977   0.58955   0.97630   0.00000  Uiso   1.00
C602   C     0.46023   0.41045   0.52370   0.00000  Uiso   1.00
C603   C     0.52309   0.65272   0.74835   0.00000  Uiso   1.00
C604   C     0.47691   0.34728   0.75165   0.00000  Uiso   1.00
C605   C     0.50020   0.50038   0.83618   0.00000  Uiso   1.00
C606   C     0.49980   0.49962   0.66382   0.00000  Uiso   1.00
C607   C     0.48422   0.45409   0.59318   0.00000  Uiso   1.00
C608   C     0.51577   0.54591   0.90682   0.00000  Uiso   1.00
C609   C     0.50001   0.50020   0.61618   0.00000  Uiso   1.00
C610   C     0.49999   0.49980   0.88382   0.00000  Uiso   1.00
C611   C     0.51735   0.54652   0.59454   0.00000  Uiso   1.00
C612   C     0.48265   0.45348   0.90546   0.00000  Uiso   1.00
C613   C     0.52092   0.54663   0.54721   0.00000  Uiso   1.00
C614   C     0.47908   0.45337   0.95279   0.00000  Uiso   1.00
C615   C     0.50070   0.50039   0.52353   0.00000  Uiso   1.00
C616   C     0.49930   0.49961   0.97647   0.00000  Uiso   1.00
C617   C     0.48208   0.45461   0.54682   0.00000  Uiso   1.00
C618   C     0.51792   0.54539   0.95318   0.00000  Uiso   1.00
C619   C     0.54314   0.59044   0.52225   0.00000  Uiso   1.00
C620   C     0.45686   0.40956   0.97775   0.00000  Uiso   1.00
H621   H     0.55674   0.62383   0.95863   0.00000  Uiso   1.00
H622   H     0.44326   0.37617   0.54137   0.00000  Uiso   1.00
H623   H     0.56671   0.33641   0.74515   0.00000  Uiso   1.00
H624   H     0.43329   0.66359   0.75485   0.00000  Uiso   1.00
N625   N     0.65011   0.48598   0.73783   0.00000  Uiso   1.00
N626   N     0.34989   0.51402   0.76217   0.00000  Uiso   1.00
O627   O     0.46308   0.57952   0.75299   0.00000  Uiso   1.00
O628   O     0.53692   0.42048   0.74702   0.00000  Uiso   1.00
O629   O     0.55946   0.57054   0.74519   0.00000  Uiso   1.00
O630   O     0.44054   0.42946   0.75482   0.00000  Uiso   1.00
O631   O     0.45181   0.50450   0.81998   0.00000  Uiso   1.00
O632   O     0.54819   0.49550   0.68003   0.00000  Uiso   1.00
O633   O     0.54819   0.49552   0.81218   0.00000  Uiso   1.00
O634   O     0.45181   0.50448   0.68783   0.00000  Uiso   1.00
Zn635  Zn    0.43565   0.50600   0.75521   0.00000  Uiso   1.00
Zn636  Zn    0.56435   0.49400   0.74479   0.00000  Uiso   1.00
Br637  Br    0.46644   0.39075   0.62625   0.00000  Uiso   1.00
Br638  Br    0.53356   0.60925   0.87375   0.00000  Uiso   1.00
Cl639  Cl    0.52844   0.60335   0.62935   0.00000  Uiso   1.00
Cl640  Cl    0.47156   0.39665   0.87065   0.00000  Uiso   1.00
Br641  Br    0.58581   0.65166   0.54410   0.00000  Uiso   1.00
Br642  Br    0.41419   0.34834   0.95590   0.00000  Uiso   1.00
Br643  Br    0.34585   0.43372   0.69828   0.00000  Uiso   1.00
Br644  Br    0.65415   0.56628   0.80172   0.00000  Uiso   1.00
C645   C     0.84850   0.59813   0.74896   0.00000  Uiso   1.00
C646   C     0.81817   0.40187   0.75105   0.00000  Uiso   1.00
C647   C     0.87310   0.58955   0.97630   0.00000  Uiso   1.00
C648   C     0.79357   0.41045   0.52370   0.00000  Uiso   1.00
C649   C     0.85642   0.65272   0.74835   0.00000  Uiso   1.00
C650   C     0.81025   0.34728   0.75165   0.00000  Uiso   1.00
C651   C     0.83353   0.50038   0.83618   0.00000  Uiso   1.00
C652   C     0.83313   0.49962   0.66382   0.00000  Uiso   1.00
C653   C     0.81756   0.45409   0.59318   0.00000  Uiso   1.00
C654   C     0.84911   0.54591   0.90682   0.00000  Uiso   1.00
C655   C     0.83335   0.50020   0.61618   0.00000  Uiso   1.00
C656   C     0.83332   0.49980   0.88382   0.00000  Uiso   1.00
C657   C     0.85068   0.54652   0.59454   0.00000  Uiso   1.00
C658   C     0.81598   0.45348   0.90546   0.00000  Uiso   1.00
C659   C     0.85426   0.54663   0.54721   0.00000  Uiso   1.00
C660   C     0.81241   0.45337   0.95279   0.00000  Uiso   1.00
C661   C     0.83403   0.50039   0.52353   0.00000  Uiso   1.00
C662   C     0.83263   0.49961   0.97647   0.00000  Uiso   1.00
C663   C     0.81541   0.45461   0.54682   0.00000  Uiso   1.00
C664   C     0.85125   0.54539   0.95318   0.00000  Uiso   1.00
C665   C     0.87647   0.59044   0.52225   0.00000  Uiso   1.00
C666   C     0.79019   0.40956   0.97775   0.00000  Uiso   1.00
H667   H     0.89007   0.62383   0.95863   0.00000  Uiso   1.00
H668   H     0.77659   0.37617   0.54137   0.00000  Uiso   1.00
H669   H     0.90004   0.33641   0.74515   0.00000  Uiso   1.00
H670   H     0.76662   0.66359   0.75485   0.00000  Uiso   1.00
N671   N     0.98344   0.48598   0.73783   0.00000  Uiso   1.00
N672   N     0.68322   0.51402   0.76217   0.00000  Uiso   1.00
O673   O     0.79642   0.57952   0.75299   0.00000  Uiso   1.00
O674   O     0.87025   0.42048   0.74702   0.00000  Uiso   1.00
O675   O     0.89280   0.57054   0.74519   0.00000  Uiso   1.00
O676   O     0.77387   0.42946   0.75482   0.00000  Uiso   1.00
O677   O     0.78514   0.50450   0.81998   0.00000  Uiso   1.00
O678   O     0.88153   0.49550   0.68003   0.00000  Uiso   1.00
O679   O     0.88152   0.49552   0.81218   0.00000  Uiso   1.00
O680   O     0.78515   0.50448   0.68783   0.00000  Uiso   1.00
Zn681  Zn    0.76898   0.50600   0.75521   0.00000  Uiso   1.00
Zn682  Zn    0.89769   0.49400   0.74479   0.00000  Uiso   1.00
Br683  Br    0.79978   0.39075   0.62625   0.00000  Uiso   1.00
Br684  Br    0.86689   0.60925   0.87375   0.00000  Uiso   1.00
Cl685  Cl    0.86177   0.60335   0.62935   0.00000  Uiso   1.00
Cl686  Cl    0.80489   0.39665   0.87065   0.00000  Uiso   1.00
Br687  Br    0.91915   0.65166   0.54410   0.00000  Uiso   1.00
Br688  Br    0.74752   0.34834   0.95590   0.00000  Uiso   1.00
Br689  Br    0.67918   0.43372   0.69828   0.00000  Uiso   1.00
Br690  Br    0.98748   0.56628   0.80172   0.00000  Uiso   1.00
C691   C     0.18183   0.93147   0.74896   0.00000  Uiso   1.00
C692   C     0.15150   0.73520   0.75105   0.00000  Uiso   1.00
C693   C     0.20643   0.92289   0.97630   0.00000  Uiso   1.00
C694   C     0.12690   0.74378   0.52370   0.00000  Uiso   1.00
C695   C     0.18975   0.98605   0.74835   0.00000  Uiso   1.00
C696   C     0.14358   0.68061   0.75165   0.00000  Uiso   1.00
C697   C     0.16687   0.83372   0.83618   0.00000  Uiso   1.00
C698   C     0.16647   0.83295   0.66382   0.00000  Uiso   1.00
C699   C     0.15089   0.78742   0.59318   0.00000  Uiso   1.00
C700   C     0.18244   0.87924   0.90682   0.00000  Uiso   1.00
C701   C     0.16668   0.83353   0.61618   0.00000  Uiso   1.00
C702   C     0.16665   0.83313   0.88382   0.00000  Uiso   1.00
C703   C     0.18402   0.87986   0.59454   0.00000  Uiso   1.00
C704   C     0.14932   0.78681   0.90546   0.00000  Uiso   1.00
C705   C     0.18759   0.87997   0.54721   0.00000  Uiso   1.00
C706   C     0.14574   0.78670   0.95279   0.00000  Uiso   1.00
C707   C     0.16736   0.83372   0.52353   0.00000  Uiso   1.00
C708   C     0.16597   0.83295   0.97647   0.00000  Uiso   1.00
C709   C     0.14875   0.78794   0.54682   0.00000  Uiso   1.00
C710   C     0.18459   0.87873   0.95318   0.00000  Uiso   1.00
C711   C     0.20981   0.92377   0.52225   0.00000  Uiso   1.00
C712   C     0.12353   0.74289   0.97775   0.00000  Uiso   1.00
H713   H     0.22341   0.95716   0.95863   0.00000  Uiso   1.00
H714   H     0.10993   0.70951   0.54137   0.00000  Uiso   1.00
H715   H     0.23338   0.66975   0.74515   0.00000  Uiso   1.00
H716   H     0.09996   0.99692   0.75485   0.00000  Uiso   1.00
N717   N     0.31678   0.81932   0.73783   0.00000  Uiso   1.00
N718   N     0.01656   0.84735   0.76217   0.00000  Uiso   1.00
O719   O     0.12975   0.91286   0.75299   0.00000  Uiso   1.00
O720   O     0.20358   0.75381   0.74702   0.00000  Uiso   1.00
O721   O     0.22613   0.90387   0.74519   0.00000  Uiso   1.00
O722   O     0.10720   0.76279   0.75482   0.00000  Uiso   1.00
O723   O     0.11847   0.83784   0.81998   0.00000  Uiso   1.00
O724   O     0.21486   0.82883   0.68003   0.00000  Uiso   1.00
O725   O     0.21485   0.82885   0.81218   0.00000  Uiso   1.00
O726   O     0.11848   0.83781   0.68783   0.00000  Uiso   1.00
Zn727  Zn    0.10231   0.83933   0.75521   0.00000  Uiso   1.00
Zn728  Zn    0.23102   0.82734   0.74479   0.00000  Uiso   1.00
Br729  Br    0.13311   0.72408   0.62625   0.00000  Uiso   1.00
Br730  Br    0.20022   0.94258   0.87375   0.00000  Uiso   1.00
Cl731  Cl    0.19511   0.93668   0.62935   0.00000  Uiso   1.00
Cl732  Cl    0.13823   0.72998   0.87065   0.00000  Uiso   1.00
Br733  Br    0.25248   0.98499   0.54410   0.00000  Uiso   1.00
Br734  Br    0.08085   0.68167   0.95590   0.00000  Uiso   1.00
Br735  Br    0.01251   0.76705   0.69828   0.00000  Uiso   1.00
Br736  Br    0.32082   0.89962   0.80172   0.00000  Uiso   1.00
C737   C     0.51517   0.93147   0.74896   0.00000  Uiso   1.00
C738   C     0.48483   0.73520   0.75105   0.00000  Uiso   1.00
C739   C     0.53977   0.92289   0.97630   0.00000  Uiso   1.00
C740   C     0.46023   0.74378   0.52370   0.00000  Uiso   1.00
C741   C     0.52309   0.98605   0.74835   0.00000  Uiso   1.00
C742   C     0.47691   0.68061   0.75165   0.00000  Uiso   1.00
C743   C     0.50020   0.83372   0.83618   0.00000  Uiso   1.00
C744   C     0.49980   0.83295   0.66382   0.00000  Uiso   1.00
C745   C     0.48422   0.78742   0.59318   0.00000  Uiso   1.00
C746   C     0.51577   0.87924   0.90682   0.00000  Uiso   1.00
C747   C     0.50001   0.83353   0.61618   0.00000  Uiso   1.00
C748   C     0.49999   0.83313   0.88382   0.00000  Uiso   1.00
C749   C     0.51735   0.87986   0.59454   0.00000  Uiso   1.00
C750   C     0.48265   0.78681   0.90546   0.00000  Uiso   1.00
C751   C     0.52092   0.87997   0.54721   0.00000  Uiso   1.00
C752   C     0.47908   0.78670   0.95279   0.00000  Uiso   1.00
C753   C     0.50070   0.83372   0.52353   0.00000  Uiso   1.00
C754   C     0.49930   0.83295   0.97647   0.00000  Uiso   1.00
C755   C     0.48208   0.78794   0.54682   0.00000  Uiso   1.00
C756   C     0.51792   0.87873   0.95318   0.00000  Uiso   1.00
C757   C     0.54314   0.92377   0.52225   0.00000  Uiso   1.00
C758   C     0.45686   0.74289   0.97775   0.00000  Uiso   1.00
H759   H     0.55674   0.95716   0.95863   0.00000  Uiso   1.00
H760   H     0.44326   0.70951   0.54137   0.00000  Uiso   1.00
H761   H     0.56671   0.66975   0.74515   0.00000  Uiso   1.00
H762   H     0.43329   0.99692   0.75485   0.00000  Uiso   1.00
N763   N     0.65011   0.81932   0.73783   0.00000  Uiso   1.00
N764   N     0.34989   0.84735   0.76217   0.00000  Uiso   1.00
O765   O     0.46308   0.91286   0.75299   0.00000  Uiso   1.00
O766   O     0.53692   0.75381   0.74702   0.00000  Uiso   1.00
O767   O     0.55946   0.90387   0.74519   0.00000  Uiso   1.00
O768   O     0.44054   0.76279   0.75482   0.00000  Uiso   1.00
O769   O     0.45181   0.83784   0.81998   0.00000  Uiso   1.00
O770   O     0.54819   0.82883   0.68003   0.00000  Uiso   1.00
O771   O     0.54819   0.82885   0.81218   0.00000  Uiso   1.00
O772   O     0.45181   0.83781   0.68783   0.00000  Uiso   1.00
Zn773  Zn    0.43565   0.83933   0.75521   0.00000  Uiso   1.00
Zn774  Zn    0.56435   0.82734   0.74479   0.00000  Uiso   1.00
Br775  Br    0.46644   0.72408   0.62625   0.00000  Uiso   1.00
Br776  Br    0.53356   0.94258   0.87375   0.00000  Uiso   1.00
Cl777  Cl    0.52844   0.93668   0.62935   0.00000  Uiso   1.00
Cl778  Cl    0.47156   0.72998   0.87065   0.00000  Uiso   1.00
Br779  Br    0.58581   0.98499   0.54410   0.00000  Uiso   1.00
Br780  Br    0.41419   0.68167   0.95590   0.00000  Uiso   1.00
Br781  Br    0.34585   0.76705   0.69828   0.00000  Uiso   1.00
Br782  Br    0.65415   0.89962   0.80172   0.00000  Uiso   1.00
C783   C     0.84850   0.93147   0.74896   0.00000  Uiso   1.00
C784   C     0.81817   0.73520   0.75105   0.00000  Uiso   1.00
C785   C     0.87310   0.92289   0.97630   0.00000  Uiso   1.00
C786   C     0.79357   0.74378   0.52370   0.00000  Uiso   1.00
C787   C     0.85642   0.98605   0.74835   0.00000  Uiso   1.00
C788   C     0.81025   0.68061   0.75165   0.00000  Uiso   1.00
C789   C     0.83353   0.83372   0.83618   0.00000  Uiso   1.00
C790   C     0.83313   0.83295   0.66382   0.00000  Uiso   1.00
C791   C     0.81756   0.78742   0.59318   0.00000  Uiso   1.00
C792   C     0.84911   0.87924   0.90682   0.00000  Uiso   1.00
C793   C     0.83335   0.83353   0.61618   0.00000  Uiso   1.00
C794   C     0.83332   0.83313   0.88382   0.00000  Uiso   1.00
C795   C     0.85068   0.87986   0.59454   0.00000  Uiso   1.00
C796   C     0.81598   0.78681   0.90546   0.00000  Uiso   1.00
C797   C     0.85426   0.87997   0.54721   0.00000  Uiso   1.00
C798   C     0.81241   0.78670   0.95279   0.00000  Uiso   1.00
C799   C     0.83403   0.83372   0.52353   0.00000  Uiso   1.00
C800   C     0.83263   0.83295   0.97647   0.00000  Uiso   1.00
C801   C     0.81541   0.78794   0.54682   0.00000  Uiso   1.00
C802   C     0.85125   0.87873   0.95318   0.00000  Uiso   1.00
C803   C     0.87647   0.92377   0.52225   0.00000  Uiso   1.00
C804   C     0.79019   0.74289   0.97775   0.00000  Uiso   1.00
H805   H     0.89007   0.95716   0.95863   0.00000  Uiso   1.00
H806   H     0.77659   0.70951   0.54137   0.00000  Uiso   1.00
H807   H     0.90004   0.66975   0.74515   0.00000  Uiso   1.00
H808   H     0.76662   0.99692   0.75485   0.00000  Uiso   1.00
N809   N     0.98344   0.81932   0.73783   0.00000  Uiso   1.00
N810   N     0.68322   0.84735   0.76217   0.00000  Uiso   1.00
O811   O     0.79642   0.91286   0.75299   0.00000  Uiso   1.00
O812   O     0.87025   0.75381   0.74702   0.00000  Uiso   1.00
O813   O     0.89280   0.90387   0.74519   0.00000  Uiso   1.00
O814   O     0.77387   0.76279   0.75482   0.00000  Uiso   1.00
O815   O     0.78514   0.83784   0.81998   0.00000  Uiso   1.00
O816   O     0.88153   0.82883   0.68003   0.00000  Uiso   1.00
O817   O     0.88152   0.82885   0.81218   0.00000  Uiso   1.00
O818   O     0.78515   0.83781   0.68783   0.00000  Uiso   1.00
Zn819  Zn    0.76898   0.83933   0.75521   0.00000  Uiso   1.00
Zn820  Zn    0.89769   0.82734   0.74479   0.00000  Uiso   1.00
Br821  Br    0.79978   0.72408   0.62625   0.00000  Uiso   1.00
Br822  Br    0.86689   0.94258   0.87375   0.00000  Uiso   1.00
Cl823  Cl    0.86177   0.93668   0.62935   0.00000  Uiso   1.00
Cl824  Cl    0.80489   0.72998   0.87065   0.00000  Uiso   1.00
Br825  Br    0.91915   0.98499   0.54410   0.00000  Uiso   1.00
Br826  Br    0.74752   0.68167   0.95590   0.00000  Uiso   1.00
Br827  Br    0.67918   0.76705   0.69828   0.00000  Uiso   1.00
Br828  Br    0.98748   0.89962   0.80172   0.00000  Uiso   1.00
loop_
_geom_bond_atom_site_label_1
_geom_bond_atom_site_label_2
_geom_bond_distance
_geom_bond_site_symmetry_2
_ccdc_geom_bond_type
C1     O29     1.285   .     A
C1     C5      1.402   .     S
C1     O31     1.294   .     A
C2     O30     1.285   .     A
C2     O32     1.294   .     A
C2     C6      1.402   .     S
C3     H23     1.081   .     S
C3     C20     1.395   .     A
C3     C435    1.381   .     S
C4     H24     1.081   .     S
C4     C19     1.395   .     A
C4     C436    1.381   1_554 S
C5     C144    1.336   .     S
C5     H163    1.088   .     S
C6     C281    1.336   1_545 S
C6     H302    1.088   1_545 S
C7     C12     1.423   .     S
C7     O33     1.290   .     A
C7     O35     1.294   .     A
C8     O34     1.290   .     A
C8     C11     1.423   .     S
C8     O36     1.294   .     A
C9     C11     1.389   .     A
C9     C19     1.390   .     A
C9     Br39    1.941   .     S
C10    C12     1.389   .     A
C10    Br40    1.941   .     S
C10    C20     1.390   .     A
C11    C13     1.397   .     A
C12    C14     1.397   .     A
C13    Cl41    1.774   .     S
C13    C15     1.409   .     A
C14    Cl42    1.774   .     S
C14    C16     1.409   .     A
C15    C21     1.421   .     A
C15    C17     1.432   .     A
C16    C18     1.432   .     A
C16    C22     1.421   .     A
C17    C19     1.416   .     A
C17    C432    1.408   1_554 S
C18    C20     1.416   .     A
C18    C431    1.408   .     S
C21    Br43    1.931   .     S
C21    C417    1.381   1_554 S
C22    Br44    1.931   .     S
C22    C418    1.381   .     S
H25    C281    1.088   1_545 S
H26    C144    1.088   .     S
N27    Zn38    2.036   .     S
N27    N74     1.280   .     S
N27    Br91    1.873   .     S
N28    Zn37    2.036   .     S
N28    N119    1.280   1_455 S
N28    Br138   1.873   1_455 S
O29    Zn37    1.956   .     S
O30    Zn38    1.956   .     S
O31    Zn38    1.975   .     S
O32    Zn37    1.975   .     S
O33    Zn37    2.006   .     S
O34    Zn38    2.006   .     S
O35    Zn38    2.014   .     S
O36    Zn37    2.014   .     S
Br45   N119    1.873   1_455 S
Br46   N74     1.873   .     S
C47    O75     1.285   .     A
C47    C51     1.402   .     S
C47    O77     1.294   .     A
C48    O76     1.285   .     A
C48    O78     1.294   .     A
C48    C52     1.402   .     S
C49    H69     1.081   .     S
C49    C66     1.395   .     A
C49    C481    1.381   .     S
C50    H70     1.081   .     S
C50    C65     1.395   .     A
C50    C482    1.381   1_554 S
C51    C190    1.336   .     S
C51    H209    1.088   .     S
C52    C327    1.336   1_545 S
C52    H348    1.088   1_545 S
C53    C58     1.423   .     S
C53    O79     1.290   .     A
C53    O81     1.294   .     A
C54    O80     1.290   .     A
C54    C57     1.423   .     S
C54    O82     1.294   .     A
C55    C57     1.389   .     A
C55    C65     1.390   .     A
C55    Br85    1.941   .     S
C56    C58     1.389   .     A
C56    Br86    1.941   .     S
C56    C66     1.390   .     A
C57    C59     1.397   .     A
C58    C60     1.397   .     A
C59    Cl87    1.774   .     S
C59    C61     1.409   .     A
C60    Cl88    1.774   .     S
C60    C62     1.409   .     A
C61    C67     1.421   .     A
C61    C63     1.432   .     A
C62    C64     1.432   .     A
C62    C68     1.421   .     A
C63    C65     1.416   .     A
C63    C478    1.408   1_554 S
C64    C66     1.416   .     A
C64    C477    1.408   .     S
C67    Br89    1.931   .     S
C67    C463    1.381   1_554 S
C68    Br90    1.931   .     S
C68    C464    1.381   .     S
H71    C327    1.088   1_545 S
H72    C190    1.088   .     S
N73    Zn84    2.036   .     S
N73    N120    1.280   .     S
N73    Br137   1.873   .     S
N74    Zn83    2.036   .     S
O75    Zn83    1.956   .     S
O76    Zn84    1.956   .     S
O77    Zn84    1.975   .     S
O78    Zn83    1.975   .     S
O79    Zn83    2.006   .     S
O80    Zn84    2.006   .     S
O81    Zn84    2.014   .     S
O82    Zn83    2.014   .     S
Br92   N120    1.873   .     S
C93    O121    1.285   .     A
C93    C97     1.402   .     S
C93    O123    1.294   .     A
C94    O122    1.285   .     A
C94    O124    1.294   .     A
C94    C98     1.402   .     S
C95    H115    1.081   .     S
C95    C112    1.395   .     A
C95    C527    1.381   .     S
C96    H116    1.081   .     S
C96    C111    1.395   .     A
C96    C528    1.381   1_554 S
C97    C236    1.336   .     S
C97    H255    1.088   .     S
C98    C373    1.336   1_545 S
C98    H394    1.088   1_545 S
C99    C104    1.423   .     S
C99    O125    1.290   .     A
C99    O127    1.294   .     A
C100   O126    1.290   .     A
C100   C103    1.423   .     S
C100   O128    1.294   .     A
C101   C103    1.389   .     A
C101   C111    1.390   .     A
C101   Br131   1.941   .     S
C102   C104    1.389   .     A
C102   Br132   1.941   .     S
C102   C112    1.390   .     A
C103   C105    1.397   .     A
C104   C106    1.397   .     A
C105   Cl133   1.774   .     S
C105   C107    1.409   .     A
C106   Cl134   1.774   .     S
C106   C108    1.409   .     A
C107   C113    1.421   .     A
C107   C109    1.432   .     A
C108   C110    1.432   .     A
C108   C114    1.421   .     A
C109   C111    1.416   .     A
C109   C524    1.408   1_554 S
C110   C112    1.416   .     A
C110   C523    1.408   .     S
C113   Br135   1.931   .     S
C113   C509    1.381   1_554 S
C114   Br136   1.931   .     S
C114   C510    1.381   .     S
H117   C373    1.088   1_545 S
H118   C236    1.088   .     S
N119   Zn130   2.036   .     S
N119   N28     1.280   1_655 S
N119   Br45    1.873   1_655 S
N120   Zn129   2.036   .     S
O121   Zn129   1.956   .     S
O122   Zn130   1.956   .     S
O123   Zn130   1.975   .     S
O124   Zn129   1.975   .     S
O125   Zn129   2.006   .     S
O126   Zn130   2.006   .     S
O127   Zn130   2.014   .     S
O128   Zn129   2.014   .     S
Br138  N28     1.873   1_655 S
C139   O167    1.285   .     A
C139   C143    1.402   .     S
C139   O169    1.294   .     A
C140   O168    1.285   .     A
C140   O170    1.294   .     A
C140   C144    1.402   .     S
C141   H161    1.081   .     S
C141   C158    1.395   .     A
C141   C573    1.381   .     S
C142   H162    1.081   .     S
C142   C157    1.395   .     A
C142   C574    1.381   1_554 S
C143   C282    1.336   .     S
C143   H301    1.088   .     S
C145   C150    1.423   .     S
C145   O171    1.290   .     A
C145   O173    1.294   .     A
C146   O172    1.290   .     A
C146   C149    1.423   .     S
C146   O174    1.294   .     A
C147   C149    1.389   .     A
C147   C157    1.390   .     A
C147   Br177   1.941   .     S
C148   C150    1.389   .     A
C148   Br178   1.941   .     S
C148   C158    1.390   .     A
C149   C151    1.397   .     A
C150   C152    1.397   .     A
C151   Cl179   1.774   .     S
C151   C153    1.409   .     A
C152   Cl180   1.774   .     S
C152   C154    1.409   .     A
C153   C159    1.421   .     A
C153   C155    1.432   .     A
C154   C156    1.432   .     A
C154   C160    1.421   .     A
C155   C157    1.416   .     A
C155   C570    1.408   1_554 S
C156   C158    1.416   .     A
C156   C569    1.408   .     S
C159   Br181   1.931   .     S
C159   C555    1.381   1_554 S
C160   Br182   1.931   .     S
C160   C556    1.381   .     S
H164   C282    1.088   .     S
N165   Zn176   2.036   .     S
N165   N212    1.280   .     S
N165   Br229   1.873   .     S
N166   Zn175   2.036   .     S
N166   N257    1.280   1_455 S
N166   Br276   1.873   1_455 S
O167   Zn175   1.956   .     S
O168   Zn176   1.956   .     S
O169   Zn176   1.975   .     S
O170   Zn175   1.975   .     S
O171   Zn175   2.006   .     S
O172   Zn176   2.006   .     S
O173   Zn176   2.014   .     S
O174   Zn175   2.014   .     S
Br183  N257    1.873   1_455 S
Br184  N212    1.873   .     S
C185   O213    1.285   .     A
C185   C189    1.402   .     S
C185   O215    1.294   .     A
C186   O214    1.285   .     A
C186   O216    1.294   .     A
C186   C190    1.402   .     S
C187   H207    1.081   .     S
C187   C204    1.395   .     A
C187   C619    1.381   .     S
C188   H208    1.081   .     S
C188   C203    1.395   .     A
C188   C620    1.381   1_554 S
C189   C328    1.336   .     S
C189   H347    1.088   .     S
C191   C196    1.423   .     S
C191   O217    1.290   .     A
C191   O219    1.294   .     A
C192   O218    1.290   .     A
C192   C195    1.423   .     S
C192   O220    1.294   .     A
C193   C195    1.389   .     A
C193   C203    1.390   .     A
C193   Br223   1.941   .     S
C194   C196    1.389   .     A
C194   Br224   1.941   .     S
C194   C204    1.390   .     A
C195   C197    1.397   .     A
C196   C198    1.397   .     A
C197   Cl225   1.774   .     S
C197   C199    1.409   .     A
C198   Cl226   1.774   .     S
C198   C200    1.409   .     A
C199   C205    1.421   .     A
C199   C201    1.432   .     A
C200   C202    1.432   .     A
C200   C206    1.421   .     A
C201   C203    1.416   .     A
C201   C616    1.408   1_554 S
C202   C204    1.416   .     A
C202   C615    1.408   .     S
C205   Br227   1.931   .     S
C205   C601    1.381   1_554 S
C206   Br228   1.931   .     S
C206   C602    1.381   .     S
H210   C328    1.088   .     S
N211   Zn222   2.036   .     S
N211   N258    1.280   .     S
N211   Br275   1.873   .     S
N212   Zn221   2.036   .     S
O213   Zn221   1.956   .     S
O214   Zn222   1.956   .     S
O215   Zn222   1.975   .     S
O216   Zn221   1.975   .     S
O217   Zn221   2.006   .     S
O218   Zn222   2.006   .     S
O219   Zn222   2.014   .     S
O220   Zn221   2.014   .     S
Br230  N258    1.873   .     S
C231   O259    1.285   .     A
C231   C235    1.402   .     S
C231   O261    1.294   .     A
C232   O260    1.285   .     A
C232   O262    1.294   .     A
C232   C236    1.402   .     S
C233   H253    1.081   .     S
C233   C250    1.395   .     A
C233   C665    1.381   .     S
C234   H254    1.081   .     S
C234   C249    1.395   .     A
C234   C666    1.381   1_554 S
C235   C374    1.336   .     S
C235   H393    1.088   .     S
C237   C242    1.423   .     S
C237   O263    1.290   .     A
C237   O265    1.294   .     A
C238   O264    1.290   .     A
C238   C241    1.423   .     S
C238   O266    1.294   .     A
C239   C241    1.389   .     A
C239   C249    1.390   .     A
C239   Br269   1.941   .     S
C240   C242    1.389   .     A
C240   Br270   1.941   .     S
C240   C250    1.390   .     A
C241   C243    1.397   .     A
C242   C244    1.397   .     A
C243   Cl271   1.774   .     S
C243   C245    1.409   .     A
C244   Cl272   1.774   .     S
C244   C246    1.409   .     A
C245   C251    1.421   .     A
C245   C247    1.432   .     A
C246   C248    1.432   .     A
C246   C252    1.421   .     A
C247   C249    1.416   .     A
C247   C662    1.408   1_554 S
C248   C250    1.416   .     A
C248   C661    1.408   .     S
C251   Br273   1.931   .     S
C251   C647    1.381   1_554 S
C252   Br274   1.931   .     S
C252   C648    1.381   .     S
H256   C374    1.088   .     S
N257   Zn268   2.036   .     S
N257   N166    1.280   1_655 S
N257   Br183   1.873   1_655 S
N258   Zn267   2.036   .     S
O259   Zn267   1.956   .     S
O260   Zn268   1.956   .     S
O261   Zn268   1.975   .     S
O262   Zn267   1.975   .     S
O263   Zn267   2.006   .     S
O264   Zn268   2.006   .     S
O265   Zn268   2.014   .     S
O266   Zn267   2.014   .     S
Br276  N166    1.873   1_655 S
C277   O305    1.285   .     A
C277   C281    1.402   .     S
C277   O307    1.294   .     A
C278   O306    1.285   .     A
C278   O308    1.294   .     A
C278   C282    1.402   .     S
C279   H299    1.081   .     S
C279   C296    1.395   .     A
C279   C711    1.381   .     S
C280   H300    1.081   .     S
C280   C295    1.395   .     A
C280   C712    1.381   1_554 S
C281   C6      1.336   1_565 S
C281   H25     1.088   1_565 S
C283   C288    1.423   .     S
C283   O309    1.290   .     A
C283   O311    1.294   .     A
C284   O310    1.290   .     A
C284   C287    1.423   .     S
C284   O312    1.294   .     A
C285   C287    1.389   .     A
C285   C295    1.390   .     A
C285   Br315   1.941   .     S
C286   C288    1.389   .     A
C286   Br316   1.941   .     S
C286   C296    1.390   .     A
C287   C289    1.397   .     A
C288   C290    1.397   .     A
C289   Cl317   1.774   .     S
C289   C291    1.409   .     A
C290   Cl318   1.774   .     S
C290   C292    1.409   .     A
C291   C297    1.421   .     A
C291   C293    1.432   .     A
C292   C294    1.432   .     A
C292   C298    1.421   .     A
C293   C295    1.416   .     A
C293   C708    1.408   1_554 S
C294   C296    1.416   .     A
C294   C707    1.408   .     S
C297   Br319   1.931   .     S
C297   C693    1.381   1_554 S
C298   Br320   1.931   .     S
C298   C694    1.381   .     S
H302   C6      1.088   1_565 S
N303   Zn314   2.036   .     S
N303   N350    1.280   .     S
N303   Br367   1.873   .     S
N304   Zn313   2.036   .     S
N304   N395    1.280   1_455 S
N304   Br414   1.873   1_455 S
O305   Zn313   1.956   .     S
O306   Zn314   1.956   .     S
O307   Zn314   1.975   .     S
O308   Zn313   1.975   .     S
O309   Zn313   2.006   .     S
O310   Zn314   2.006   .     S
O311   Zn314   2.014   .     S
O312   Zn313   2.014   .     S
Br321  N395    1.873   1_455 S
Br322  N350    1.873   .     S
C323   O351    1.285   .     A
C323   C327    1.402   .     S
C323   O353    1.294   .     A
C324   O352    1.285   .     A
C324   O354    1.294   .     A
C324   C328    1.402   .     S
C325   H345    1.081   .     S
C325   C342    1.395   .     A
C325   C757    1.381   .     S
C326   H346    1.081   .     S
C326   C341    1.395   .     A
C326   C758    1.381   1_554 S
C327   C52     1.336   1_565 S
C327   H71     1.088   1_565 S
C329   C334    1.423   .     S
C329   O355    1.290   .     A
C329   O357    1.294   .     A
C330   O356    1.290   .     A
C330   C333    1.423   .     S
C330   O358    1.294   .     A
C331   C333    1.389   .     A
C331   C341    1.390   .     A
C331   Br361   1.941   .     S
C332   C334    1.389   .     A
C332   Br362   1.941   .     S
C332   C342    1.390   .     A
C333   C335    1.397   .     A
C334   C336    1.397   .     A
C335   Cl363   1.774   .     S
C335   C337    1.409   .     A
C336   Cl364   1.774   .     S
C336   C338    1.409   .     A
C337   C343    1.421   .     A
C337   C339    1.432   .     A
C338   C340    1.432   .     A
C338   C344    1.421   .     A
C339   C341    1.416   .     A
C339   C754    1.408   1_554 S
C340   C342    1.416   .     A
C340   C753    1.408   .     S
C343   Br365   1.931   .     S
C343   C739    1.381   1_554 S
C344   Br366   1.931   .     S
C344   C740    1.381   .     S
H348   C52     1.088   1_565 S
N349   Zn360   2.036   .     S
N349   N396    1.280   .     S
N349   Br413   1.873   .     S
N350   Zn359   2.036   .     S
O351   Zn359   1.956   .     S
O352   Zn360   1.956   .     S
O353   Zn360   1.975   .     S
O354   Zn359   1.975   .     S
O355   Zn359   2.006   .     S
O356   Zn360   2.006   .     S
O357   Zn360   2.014   .     S
O358   Zn359   2.014   .     S
Br368  N396    1.873   .     S
C369   O397    1.285   .     A
C369   C373    1.402   .     S
C369   O399    1.294   .     A
C370   O398    1.285   .     A
C370   O400    1.294   .     A
C370   C374    1.402   .     S
C371   H391    1.081   .     S
C371   C388    1.395   .     A
C371   C803    1.381   .     S
C372   H392    1.081   .     S
C372   C387    1.395   .     A
C372   C804    1.381   1_554 S
C373   C98     1.336   1_565 S
C373   H117    1.088   1_565 S
C375   C380    1.423   .     S
C375   O401    1.290   .     A
C375   O403    1.294   .     A
C376   O402    1.290   .     A
C376   C379    1.423   .     S
C376   O404    1.294   .     A
C377   C379    1.389   .     A
C377   C387    1.390   .     A
C377   Br407   1.941   .     S
C378   C380    1.389   .     A
C378   Br408   1.941   .     S
C378   C388    1.390   .     A
C379   C381    1.397   .     A
C380   C382    1.397   .     A
C381   Cl409   1.774   .     S
C381   C383    1.409   .     A
C382   Cl410   1.774   .     S
C382   C384    1.409   .     A
C383   C389    1.421   .     A
C383   C385    1.432   .     A
C384   C386    1.432   .     A
C384   C390    1.421   .     A
C385   C387    1.416   .     A
C385   C800    1.408   1_554 S
C386   C388    1.416   .     A
C386   C799    1.408   .     S
C389   Br411   1.931   .     S
C389   C785    1.381   1_554 S
C390   Br412   1.931   .     S
C390   C786    1.381   .     S
H394   C98     1.088   1_565 S
N395   Zn406   2.036   .     S
N395   N304    1.280   1_655 S
N395   Br321   1.873   1_655 S
N396   Zn405   2.036   .     S
O397   Zn405   1.956   .     S
O398   Zn406   1.956   .     S
O399   Zn406   1.975   .     S
O400   Zn405   1.975   .     S
O401   Zn405   2.006   .     S
O402   Zn406   2.006   .     S
O403   Zn406   2.014   .     S
O404   Zn405   2.014   .     S
Br414  N304    1.873   1_655 S
C415   O443    1.285   .     A
C415   C419    1.402   .     S
C415   O445    1.294   .     A
C416   O444    1.285   .     A
C416   O446    1.294   .     A
C416   C420    1.402   .     S
C417   H437    1.081   .     S
C417   C434    1.395   .     A
C417   C21     1.381   1_556 S
C418   H438    1.081   .     S
C418   C433    1.395   .     A
C419   C558    1.336   .     S
C419   H577    1.088   .     S
C420   C695    1.336   1_545 S
C420   H716    1.088   1_545 S
C421   C426    1.423   .     S
C421   O447    1.290   .     A
C421   O449    1.294   .     A
C422   O448    1.290   .     A
C422   C425    1.423   .     S
C422   O450    1.294   .     A
C423   C425    1.389   .     A
C423   C433    1.390   .     A
C423   Br453   1.941   .     S
C424   C426    1.389   .     A
C424   Br454   1.941   .     S
C424   C434    1.390   .     A
C425   C427    1.397   .     A
C426   C428    1.397   .     A
C427   Cl455   1.774   .     S
C427   C429    1.409   .     A
C428   Cl456   1.774   .     S
C428   C430    1.409   .     A
C429   C435    1.421   .     A
C429   C431    1.432   .     A
C430   C432    1.432   .     A
C430   C436    1.421   .     A
C431   C433    1.416   .     A
C432   C434    1.416   .     A
C432   C17     1.408   1_556 S
C435   Br457   1.931   .     S
C436   Br458   1.931   .     S
C436   C4      1.381   1_556 S
H439   C695    1.088   1_545 S
H440   C558    1.088   .     S
N441   Zn452   2.036   .     S
N441   N488    1.280   .     S
N441   Br505   1.873   .     S
N442   Zn451   2.036   .     S
N442   N533    1.280   1_455 S
N442   Br552   1.873   1_455 S
O443   Zn451   1.956   .     S
O444   Zn452   1.956   .     S
O445   Zn452   1.975   .     S
O446   Zn451   1.975   .     S
O447   Zn451   2.006   .     S
O448   Zn452   2.006   .     S
O449   Zn452   2.014   .     S
O450   Zn451   2.014   .     S
Br459  N533    1.873   1_455 S
Br460  N488    1.873   .     S
C461   O489    1.285   .     A
C461   C465    1.402   .     S
C461   O491    1.294   .     A
C462   O490    1.285   .     A
C462   O492    1.294   .     A
C462   C466    1.402   .     S
C463   H483    1.081   .     S
C463   C480    1.395   .     A
C463   C67     1.381   1_556 S
C464   H484    1.081   .     S
C464   C479    1.395   .     A
C465   C604    1.336   .     S
C465   H623    1.088   .     S
C466   C741    1.336   1_545 S
C466   H762    1.088   1_545 S
C467   C472    1.423   .     S
C467   O493    1.290   .     A
C467   O495    1.294   .     A
C468   O494    1.290   .     A
C468   C471    1.423   .     S
C468   O496    1.294   .     A
C469   C471    1.389   .     A
C469   C479    1.390   .     A
C469   Br499   1.941   .     S
C470   C472    1.389   .     A
C470   Br500   1.941   .     S
C470   C480    1.390   .     A
C471   C473    1.397   .     A
C472   C474    1.397   .     A
C473   Cl501   1.774   .     S
C473   C475    1.409   .     A
C474   Cl502   1.774   .     S
C474   C476    1.409   .     A
C475   C481    1.421   .     A
C475   C477    1.432   .     A
C476   C478    1.432   .     A
C476   C482    1.421   .     A
C477   C479    1.416   .     A
C478   C480    1.416   .     A
C478   C63     1.408   1_556 S
C481   Br503   1.931   .     S
C482   Br504   1.931   .     S
C482   C50     1.381   1_556 S
H485   C741    1.088   1_545 S
H486   C604    1.088   .     S
N487   Zn498   2.036   .     S
N487   N534    1.280   .     S
N487   Br551   1.873   .     S
N488   Zn497   2.036   .     S
O489   Zn497   1.956   .     S
O490   Zn498   1.956   .     S
O491   Zn498   1.975   .     S
O492   Zn497   1.975   .     S
O493   Zn497   2.006   .     S
O494   Zn498   2.006   .     S
O495   Zn498   2.014   .     S
O496   Zn497   2.014   .     S
Br506  N534    1.873   .     S
C507   O535    1.285   .     A
C507   C511    1.402   .     S
C507   O537    1.294   .     A
C508   O536    1.285   .     A
C508   O538    1.294   .     A
C508   C512    1.402   .     S
C509   H529    1.081   .     S
C509   C526    1.395   .     A
C509   C113    1.381   1_556 S
C510   H530    1.081   .     S
C510   C525    1.395   .     A
C511   C650    1.336   .     S
C511   H669    1.088   .     S
C512   C787    1.336   1_545 S
C512   H808    1.088   1_545 S
C513   C518    1.423   .     S
C513   O539    1.290   .     A
C513   O541    1.294   .     A
C514   O540    1.290   .     A
C514   C517    1.423   .     S
C514   O542    1.294   .     A
C515   C517    1.389   .     A
C515   C525    1.390   .     A
C515   Br545   1.941   .     S
C516   C518    1.389   .     A
C516   Br546   1.941   .     S
C516   C526    1.390   .     A
C517   C519    1.397   .     A
C518   C520    1.397   .     A
C519   Cl547   1.774   .     S
C519   C521    1.409   .     A
C520   Cl548   1.774   .     S
C520   C522    1.409   .     A
C521   C527    1.421   .     A
C521   C523    1.432   .     A
C522   C524    1.432   .     A
C522   C528    1.421   .     A
C523   C525    1.416   .     A
C524   C526    1.416   .     A
C524   C109    1.408   1_556 S
C527   Br549   1.931   .     S
C528   Br550   1.931   .     S
C528   C96     1.381   1_556 S
H531   C787    1.088   1_545 S
H532   C650    1.088   .     S
N533   Zn544   2.036   .     S
N533   N442    1.280   1_655 S
N533   Br459   1.873   1_655 S
N534   Zn543   2.036   .     S
O535   Zn543   1.956   .     S
O536   Zn544   1.956   .     S
O537   Zn544   1.975   .     S
O538   Zn543   1.975   .     S
O539   Zn543   2.006   .     S
O540   Zn544   2.006   .     S
O541   Zn544   2.014   .     S
O542   Zn543   2.014   .     S
Br552  N442    1.873   1_655 S
C553   O581    1.285   .     A
C553   C557    1.402   .     S
C553   O583    1.294   .     A
C554   O582    1.285   .     A
C554   O584    1.294   .     A
C554   C558    1.402   .     S
C555   H575    1.081   .     S
C555   C572    1.395   .     A
C555   C159    1.381   1_556 S
C556   H576    1.081   .     S
C556   C571    1.395   .     A
C557   C696    1.336   .     S
C557   H715    1.088   .     S
C559   C564    1.423   .     S
C559   O585    1.290   .     A
C559   O587    1.294   .     A
C560   O586    1.290   .     A
C560   C563    1.423   .     S
C560   O588    1.294   .     A
C561   C563    1.389   .     A
C561   C571    1.390   .     A
C561   Br591   1.941   .     S
C562   C564    1.389   .     A
C562   Br592   1.941   .     S
C562   C572    1.390   .     A
C563   C565    1.397   .     A
C564   C566    1.397   .     A
C565   Cl593   1.774   .     S
C565   C567    1.409   .     A
C566   Cl594   1.774   .     S
C566   C568    1.409   .     A
C567   C573    1.421   .     A
C567   C569    1.432   .     A
C568   C570    1.432   .     A
C568   C574    1.421   .     A
C569   C571    1.416   .     A
C570   C572    1.416   .     A
C570   C155    1.408   1_556 S
C573   Br595   1.931   .     S
C574   Br596   1.931   .     S
C574   C142    1.381   1_556 S
H578   C696    1.088   .     S
N579   Zn590   2.036   .     S
N579   N626    1.280   .     S
N579   Br643   1.873   .     S
N580   Zn589   2.036   .     S
N580   N671    1.280   1_455 S
N580   Br690   1.873   1_455 S
O581   Zn589   1.956   .     S
O582   Zn590   1.956   .     S
O583   Zn590   1.975   .     S
O584   Zn589   1.975   .     S
O585   Zn589   2.006   .     S
O586   Zn590   2.006   .     S
O587   Zn590   2.014   .     S
O588   Zn589   2.014   .     S
Br597  N671    1.873   1_455 S
Br598  N626    1.873   .     S
C599   O627    1.285   .     A
C599   C603    1.402   .     S
C599   O629    1.294   .     A
C600   O628    1.285   .     A
C600   O630    1.294   .     A
C600   C604    1.402   .     S
C601   H621    1.081   .     S
C601   C618    1.395   .     A
C601   C205    1.381   1_556 S
C602   H622    1.081   .     S
C602   C617    1.395   .     A
C603   C742    1.336   .     S
C603   H761    1.088   .     S
C605   C610    1.423   .     S
C605   O631    1.290   .     A
C605   O633    1.294   .     A
C606   O632    1.290   .     A
C606   C609    1.423   .     S
C606   O634    1.294   .     A
C607   C609    1.389   .     A
C607   C617    1.390   .     A
C607   Br637   1.941   .     S
C608   C610    1.389   .     A
C608   Br638   1.941   .     S
C608   C618    1.390   .     A
C609   C611    1.397   .     A
C610   C612    1.397   .     A
C611   Cl639   1.774   .     S
C611   C613    1.409   .     A
C612   Cl640   1.774   .     S
C612   C614    1.409   .     A
C613   C619    1.421   .     A
C613   C615    1.432   .     A
C614   C616    1.432   .     A
C614   C620    1.421   .     A
C615   C617    1.416   .     A
C616   C618    1.416   .     A
C616   C201    1.408   1_556 S
C619   Br641   1.931   .     S
C620   Br642   1.931   .     S
C620   C188    1.381   1_556 S
H624   C742    1.088   .     S
N625   Zn636   2.036   .     S
N625   N672    1.280   .     S
N625   Br689   1.873   .     S
N626   Zn635   2.036   .     S
O627   Zn635   1.956   .     S
O628   Zn636   1.956   .     S
O629   Zn636   1.975   .     S
O630   Zn635   1.975   .     S
O631   Zn635   2.006   .     S
O632   Zn636   2.006   .     S
O633   Zn636   2.014   .     S
O634   Zn635   2.014   .     S
Br644  N672    1.873   .     S
C645   O673    1.285   .     A
C645   C649    1.402   .     S
C645   O675    1.294   .     A
C646   O674    1.285   .     A
C646   O676    1.294   .     A
C646   C650    1.402   .     S
C647   H667    1.081   .     S
C647   C664    1.395   .     A
C647   C251    1.381   1_556 S
C648   H668    1.081   .     S
C648   C663    1.395   .     A
C649   C788    1.336   .     S
C649   H807    1.088   .     S
C651   C656    1.423   .     S
C651   O677    1.290   .     A
C651   O679    1.294   .     A
C652   O678    1.290   .     A
C652   C655    1.423   .     S
C652   O680    1.294   .     A
C653   C655    1.389   .     A
C653   C663    1.390   .     A
C653   Br683   1.941   .     S
C654   C656    1.389   .     A
C654   Br684   1.941   .     S
C654   C664    1.390   .     A
C655   C657    1.397   .     A
C656   C658    1.397   .     A
C657   Cl685   1.774   .     S
C657   C659    1.409   .     A
C658   Cl686   1.774   .     S
C658   C660    1.409   .     A
C659   C665    1.421   .     A
C659   C661    1.432   .     A
C660   C662    1.432   .     A
C660   C666    1.421   .     A
C661   C663    1.416   .     A
C662   C664    1.416   .     A
C662   C247    1.408   1_556 S
C665   Br687   1.931   .     S
C666   Br688   1.931   .     S
C666   C234    1.381   1_556 S
H670   C788    1.088   .     S
N671   Zn682   2.036   .     S
N671   N580    1.280   1_655 S
N671   Br597   1.873   1_655 S
N672   Zn681   2.036   .     S
O673   Zn681   1.956   .     S
O674   Zn682   1.956   .     S
O675   Zn682   1.975   .     S
O676   Zn681   1.975   .     S
O677   Zn681   2.006   .     S
O678   Zn682   2.006   .     S
O679   Zn682   2.014   .     S
O680   Zn681   2.014   .     S
Br690  N580    1.873   1_655 S
C691   O719    1.285   .     A
C691   C695    1.402   .     S
C691   O721    1.294   .     A
C692   O720    1.285   .     A
C692   O722    1.294   .     A
C692   C696    1.402   .     S
C693   H713    1.081   .     S
C693   C710    1.395   .     A
C693   C297    1.381   1_556 S
C694   H714    1.081   .     S
C694   C709    1.395   .     A
C695   C420    1.336   1_565 S
C695   H439    1.088   1_565 S
C697   C702    1.423   .     S
C697   O723    1.290   .     A
C697   O725    1.294   .     A
C698   O724    1.290   .     A
C698   C701    1.423   .     S
C698   O726    1.294   .     A
C699   C701    1.389   .     A
C699   C709    1.390   .     A
C699   Br729   1.941   .     S
C700   C702    1.389   .     A
C700   Br730   1.941   .     S
C700   C710    1.390   .     A
C701   C703    1.397   .     A
C702   C704    1.397   .     A
C703   Cl731   1.774   .     S
C703   C705    1.409   .     A
C704   Cl732   1.774   .     S
C704   C706    1.409   .     A
C705   C711    1.421   .     A
C705   C707    1.432   .     A
C706   C708    1.432   .     A
C706   C712    1.421   .     A
C707   C709    1.416   .     A
C708   C710    1.416   .     A
C708   C293    1.408   1_556 S
C711   Br733   1.931   .     S
C712   Br734   1.931   .     S
C712   C280    1.381   1_556 S
H716   C420    1.088   1_565 S
N717   Zn728   2.036   .     S
N717   N764    1.280   .     S
N717   Br781   1.873   .     S
N718   Zn727   2.036   .     S
N718   N809    1.280   1_455 S
N718   Br828   1.873   1_455 S
O719   Zn727   1.956   .     S
O720   Zn728   1.956   .     S
O721   Zn728   1.975   .     S
O722   Zn727   1.975   .     S
O723   Zn727   2.006   .     S
O724   Zn728   2.006   .     S
O725   Zn728   2.014   .     S
O726   Zn727   2.014   .     S
Br735  N809    1.873   1_455 S
Br736  N764    1.873   .     S
C737   O765    1.285   .     A
C737   C741    1.402   .     S
C737   O767    1.294   .     A
C738   O766    1.285   .     A
C738   O768    1.294   .     A
C738   C742    1.402   .     S
C739   H759    1.081   .     S
C739   C756    1.395   .     A
C739   C343    1.381   1_556 S
C740   H760    1.081   .     S
C740   C755    1.395   .     A
C741   C466    1.336   1_565 S
C741   H485    1.088   1_565 S
C743   C748    1.423   .     S
C743   O769    1.290   .     A
C743   O771    1.294   .     A
C744   O770    1.290   .     A
C744   C747    1.423   .     S
C744   O772    1.294   .     A
C745   C747    1.389   .     A
C745   C755    1.390   .     A
C745   Br775   1.941   .     S
C746   C748    1.389   .     A
C746   Br776   1.941   .     S
C746   C756    1.390   .     A
C747   C749    1.397   .     A
C748   C750    1.397   .     A
C749   Cl777   1.774   .     S
C749   C751    1.409   .     A
C750   Cl778   1.774   .     S
C750   C752    1.409   .     A
C751   C757    1.421   .     A
C751   C753    1.432   .     A
C752   C754    1.432   .     A
C752   C758    1.421   .     A
C753   C755    1.416   .     A
C754   C756    1.416   .     A
C754   C339    1.408   1_556 S
C757   Br779   1.931   .     S
C758   Br780   1.931   .     S
C758   C326    1.381   1_556 S
H762   C466    1.088   1_565 S
N763   Zn774   2.036   .     S
N763   N810    1.280   .     S
N763   Br827   1.873   .     S
N764   Zn773   2.036   .     S
O765   Zn773   1.956   .     S
O766   Zn774   1.956   .     S
O767   Zn774   1.975   .     S
O768   Zn773   1.975   .     S
O769   Zn773   2.006   .     S
O770   Zn774   2.006   .     S
O771   Zn774   2.014   .     S
O772   Zn773   2.014   .     S
Br782  N810    1.873   .     S
C783   O811    1.285   .     A
C783   C787    1.402   .     S
C783   O813    1.294   .     A
C784   O812    1.285   .     A
C784   O814    1.294   .     A
C784   C788    1.402   .     S
C785   H805    1.081   .     S
C785   C802    1.395   .     A
C785   C389    1.381   1_556 S
C786   H806    1.081   .     S
C786   C801    1.395   .     A
C787   C512    1.336   1_565 S
C787   H531    1.088   1_565 S
C789   C794    1.423   .     S
C789   O815    1.290   .     A
C789   O817    1.294   .     A
C790   O816    1.290   .     A
C790   C793    1.423   .     S
C790   O818    1.294   .     A
C791   C793    1.389   .     A
C791   C801    1.390   .     A
C791   Br821   1.941   .     S
C792   C794    1.389   .     A
C792   Br822   1.941   .     S
C792   C802    1.390   .     A
C793   C795    1.397   .     A
C794   C796    1.397   .     A
C795   Cl823   1.774   .     S
C795   C797    1.409   .     A
C796   Cl824   1.774   .     S
C796   C798    1.409   .     A
C797   C803    1.421   .     A
C797   C799    1.432   .     A
C798   C800    1.432   .     A
C798   C804    1.421   .     A
C799   C801    1.416   .     A
C800   C802    1.416   .     A
C800   C385    1.408   1_556 S
C803   Br825   1.931   .     S
C804   Br826   1.931   .     S
C804   C372    1.381   1_556 S
H808   C512    1.088   1_565 S
N809   Zn820   2.036   .     S
N809   N718    1.280   1_655 S
N809   Br735   1.873   1_655 S
N810   Zn819   2.036   .     S
O811   Zn819   1.956   .     S
O812   Zn820   1.956   .     S
O813   Zn820   1.975   .     S
O814   Zn819   1.975   .     S
O815   Zn819   2.006   .     S
O816   Zn820   2.006   .     S
O817   Zn820   2.014   .     S
O818   Zn819   2.014   .     S
Br828  N718    1.873   1_655 S
