data_str_m2_o10_o17_pcu_sym.80
_audit_creation_date              2020-01-03
_audit_creation_method            'Materials Studio'
_symmetry_space_group_name_H-M    'P1'
_symmetry_Int_Tables_number       1
_symmetry_cell_setting            triclinic
loop_
_symmetry_equiv_pos_as_xyz
  x,y,z
_cell_length_a                    30.0010
_cell_length_b                    26.1310
_cell_length_c                    22.5374
_cell_angle_alpha                 103.1285
_cell_angle_beta                  94.6458
_cell_angle_gamma                 93.6344
loop_
_atom_site_label
_atom_site_type_symbol
_atom_site_fract_x
_atom_site_fract_y
_atom_site_fract_z
_atom_site_U_iso_or_equiv
_atom_site_adp_type
_atom_site_occupancy
C1     C     0.24828   0.06672   0.15118   0.00000  Uiso   1.00
C2     C     0.09026   0.12193   0.14463   0.00000  Uiso   1.00
C3     C     0.38322   0.16472   0.16459   0.00000  Uiso   1.00
C4     C     0.11676   0.16865   0.16859   0.00000  Uiso   1.00
C5     C     0.40192   0.11709   0.14165   0.00000  Uiso   1.00
C6     C     0.09804   0.21611   0.19224   0.00000  Uiso   1.00
C7     C     0.44937   0.11664   0.14199   0.00000  Uiso   1.00
C8     C     0.05055   0.21679   0.19025   0.00000  Uiso   1.00
C9     C     0.47629   0.16560   0.16524   0.00000  Uiso   1.00
C10    C     0.02362   0.16790   0.16671   0.00000  Uiso   1.00
C11    C     0.45598   0.21255   0.18729   0.00000  Uiso   1.00
C12    C     0.25168   0.26661   0.18216   0.00000  Uiso   1.00
C13    C     0.04394   0.12103   0.14436   0.00000  Uiso   1.00
C14    C     0.47156   0.07027   0.12059   0.00000  Uiso   1.00
C15    C     0.02833   0.26339   0.21021   0.00000  Uiso   1.00
C16    C     0.01797   0.07339   0.12185   0.00000  Uiso   1.00
C17    C     0.48192   0.26033   0.20890   0.00000  Uiso   1.00
C18    C     0.24609   0.01081   0.14266   0.00000  Uiso   1.00
C19    C     0.25383   0.32252   0.19068   0.00000  Uiso   1.00
C20    C     0.16476   0.16717   0.16728   0.00000  Uiso   1.00
C21    C     0.33524   0.16622   0.16605   0.00000  Uiso   1.00
C22    C     0.40968   0.21166   0.18721   0.00000  Uiso   1.00
Cl23   Cl    0.36362   0.06036   0.11462   0.00000  Uiso   1.00
Cl24   Cl    0.13637   0.27207   0.22392   0.00000  Uiso   1.00
Cl25   Cl    0.44587   0.00572   0.09162   0.00000  Uiso   1.00
Cl26   Cl    0.05397   0.32831   0.23541   0.00000  Uiso   1.00
Cl27   Cl    0.19612   0.10706   0.30265   0.00000  Uiso   1.00
Cl28   Cl    0.30387   0.22629   0.03068   0.00000  Uiso   1.00
Cu29   Cu    0.25501   0.17246   0.22813   0.00000  Uiso   1.00
Cu30   Cu    0.24500   0.16087   0.10521   0.00000  Uiso   1.00
F31    F     0.38984   0.25682   0.20861   0.00000  Uiso   1.00
F32    F     0.11008   0.07691   0.12250   0.00000  Uiso   1.00
F33    F     0.23513   0.31472   0.08448   0.00000  Uiso   1.00
F34    F     0.26479   0.01861   0.24887   0.00000  Uiso   1.00
H35    H     0.03399   0.03754   0.10511   0.00000  Uiso   1.00
H36    H     0.46589   0.29634   0.22466   0.00000  Uiso   1.00
N37    N     0.23745   0.15214   0.01284   0.00000  Uiso   1.00
N38    N     0.26256   0.18119   0.32049   0.00000  Uiso   1.00
O39    O     0.25326   0.09538   0.20659   0.00000  Uiso   1.00
O40    O     0.24675   0.23796   0.12674   0.00000  Uiso   1.00
O41    O     0.24480   0.08559   0.10279   0.00000  Uiso   1.00
O42    O     0.25520   0.24774   0.23055   0.00000  Uiso   1.00
O43    O     0.18936   0.17155   0.21857   0.00000  Uiso   1.00
O44    O     0.31065   0.16179   0.11476   0.00000  Uiso   1.00
O45    O     0.18090   0.16176   0.11477   0.00000  Uiso   1.00
O46    O     0.31910   0.17157   0.21857   0.00000  Uiso   1.00
C47    C     0.74828   0.06672   0.15118   0.00000  Uiso   1.00
C48    C     0.59026   0.12193   0.14463   0.00000  Uiso   1.00
C49    C     0.88322   0.16472   0.16459   0.00000  Uiso   1.00
C50    C     0.61676   0.16865   0.16859   0.00000  Uiso   1.00
C51    C     0.90192   0.11709   0.14165   0.00000  Uiso   1.00
C52    C     0.59804   0.21611   0.19224   0.00000  Uiso   1.00
C53    C     0.94937   0.11664   0.14199   0.00000  Uiso   1.00
C54    C     0.55055   0.21679   0.19025   0.00000  Uiso   1.00
C55    C     0.97629   0.16560   0.16524   0.00000  Uiso   1.00
C56    C     0.52362   0.16790   0.16671   0.00000  Uiso   1.00
C57    C     0.95598   0.21255   0.18729   0.00000  Uiso   1.00
C58    C     0.75168   0.26661   0.18216   0.00000  Uiso   1.00
C59    C     0.54394   0.12103   0.14436   0.00000  Uiso   1.00
C60    C     0.97156   0.07027   0.12059   0.00000  Uiso   1.00
C61    C     0.52833   0.26339   0.21021   0.00000  Uiso   1.00
C62    C     0.51797   0.07339   0.12185   0.00000  Uiso   1.00
C63    C     0.98192   0.26033   0.20890   0.00000  Uiso   1.00
C64    C     0.74609   0.01081   0.14266   0.00000  Uiso   1.00
C65    C     0.75383   0.32252   0.19068   0.00000  Uiso   1.00
C66    C     0.66476   0.16717   0.16728   0.00000  Uiso   1.00
C67    C     0.83524   0.16622   0.16605   0.00000  Uiso   1.00
C68    C     0.90968   0.21166   0.18721   0.00000  Uiso   1.00
Cl69   Cl    0.86362   0.06036   0.11462   0.00000  Uiso   1.00
Cl70   Cl    0.63637   0.27207   0.22392   0.00000  Uiso   1.00
Cl71   Cl    0.94587   0.00572   0.09162   0.00000  Uiso   1.00
Cl72   Cl    0.55397   0.32831   0.23541   0.00000  Uiso   1.00
Cl73   Cl    0.69612   0.10706   0.30265   0.00000  Uiso   1.00
Cl74   Cl    0.80387   0.22629   0.03068   0.00000  Uiso   1.00
Cu75   Cu    0.75501   0.17246   0.22813   0.00000  Uiso   1.00
Cu76   Cu    0.74500   0.16087   0.10521   0.00000  Uiso   1.00
F77    F     0.88984   0.25682   0.20861   0.00000  Uiso   1.00
F78    F     0.61008   0.07691   0.12250   0.00000  Uiso   1.00
F79    F     0.73513   0.31472   0.08448   0.00000  Uiso   1.00
F80    F     0.76479   0.01861   0.24887   0.00000  Uiso   1.00
H81    H     0.53399   0.03754   0.10511   0.00000  Uiso   1.00
H82    H     0.96589   0.29634   0.22466   0.00000  Uiso   1.00
N83    N     0.73745   0.15214   0.01284   0.00000  Uiso   1.00
N84    N     0.76256   0.18119   0.32049   0.00000  Uiso   1.00
O85    O     0.75326   0.09538   0.20659   0.00000  Uiso   1.00
O86    O     0.74675   0.23796   0.12674   0.00000  Uiso   1.00
O87    O     0.74480   0.08559   0.10279   0.00000  Uiso   1.00
O88    O     0.75520   0.24774   0.23055   0.00000  Uiso   1.00
O89    O     0.68936   0.17155   0.21857   0.00000  Uiso   1.00
O90    O     0.81065   0.16179   0.11476   0.00000  Uiso   1.00
O91    O     0.68090   0.16176   0.11477   0.00000  Uiso   1.00
O92    O     0.81910   0.17157   0.21857   0.00000  Uiso   1.00
C93    C     0.24828   0.40006   0.15118   0.00000  Uiso   1.00
C94    C     0.09026   0.45526   0.14463   0.00000  Uiso   1.00
C95    C     0.38322   0.49805   0.16459   0.00000  Uiso   1.00
C96    C     0.11676   0.50199   0.16859   0.00000  Uiso   1.00
C97    C     0.40192   0.45043   0.14165   0.00000  Uiso   1.00
C98    C     0.09804   0.54944   0.19224   0.00000  Uiso   1.00
C99    C     0.44937   0.44998   0.14199   0.00000  Uiso   1.00
C100   C     0.05055   0.55013   0.19025   0.00000  Uiso   1.00
C101   C     0.47629   0.49893   0.16524   0.00000  Uiso   1.00
C102   C     0.02362   0.50123   0.16671   0.00000  Uiso   1.00
C103   C     0.45598   0.54588   0.18729   0.00000  Uiso   1.00
C104   C     0.25168   0.59994   0.18216   0.00000  Uiso   1.00
C105   C     0.04394   0.45436   0.14436   0.00000  Uiso   1.00
C106   C     0.47156   0.40360   0.12059   0.00000  Uiso   1.00
C107   C     0.02833   0.59672   0.21021   0.00000  Uiso   1.00
C108   C     0.01797   0.40672   0.12185   0.00000  Uiso   1.00
C109   C     0.48192   0.59366   0.20890   0.00000  Uiso   1.00
C110   C     0.24609   0.34414   0.14266   0.00000  Uiso   1.00
C111   C     0.25383   0.65585   0.19068   0.00000  Uiso   1.00
C112   C     0.16476   0.50051   0.16728   0.00000  Uiso   1.00
C113   C     0.33524   0.49955   0.16605   0.00000  Uiso   1.00
C114   C     0.40968   0.54500   0.18721   0.00000  Uiso   1.00
Cl115  Cl    0.36362   0.39369   0.11462   0.00000  Uiso   1.00
Cl116  Cl    0.13637   0.60540   0.22392   0.00000  Uiso   1.00
Cl117  Cl    0.44587   0.33906   0.09162   0.00000  Uiso   1.00
Cl118  Cl    0.05397   0.66164   0.23541   0.00000  Uiso   1.00
Cl119  Cl    0.19612   0.44039   0.30265   0.00000  Uiso   1.00
Cl120  Cl    0.30387   0.55962   0.03068   0.00000  Uiso   1.00
Cu121  Cu    0.25501   0.50579   0.22813   0.00000  Uiso   1.00
Cu122  Cu    0.24500   0.49421   0.10521   0.00000  Uiso   1.00
F123   F     0.38984   0.59015   0.20861   0.00000  Uiso   1.00
F124   F     0.11008   0.41025   0.12250   0.00000  Uiso   1.00
F125   F     0.23513   0.64805   0.08448   0.00000  Uiso   1.00
F126   F     0.26479   0.35194   0.24887   0.00000  Uiso   1.00
H127   H     0.03399   0.37088   0.10511   0.00000  Uiso   1.00
H128   H     0.46589   0.62967   0.22466   0.00000  Uiso   1.00
N129   N     0.23745   0.48547   0.01284   0.00000  Uiso   1.00
N130   N     0.26256   0.51453   0.32049   0.00000  Uiso   1.00
O131   O     0.25326   0.42871   0.20659   0.00000  Uiso   1.00
O132   O     0.24675   0.57129   0.12674   0.00000  Uiso   1.00
O133   O     0.24480   0.41892   0.10279   0.00000  Uiso   1.00
O134   O     0.25520   0.58108   0.23055   0.00000  Uiso   1.00
O135   O     0.18936   0.50488   0.21857   0.00000  Uiso   1.00
O136   O     0.31065   0.49512   0.11476   0.00000  Uiso   1.00
O137   O     0.18090   0.49510   0.11477   0.00000  Uiso   1.00
O138   O     0.31910   0.50490   0.21857   0.00000  Uiso   1.00
C139   C     0.74828   0.40006   0.15118   0.00000  Uiso   1.00
C140   C     0.59026   0.45526   0.14463   0.00000  Uiso   1.00
C141   C     0.88322   0.49805   0.16459   0.00000  Uiso   1.00
C142   C     0.61676   0.50199   0.16859   0.00000  Uiso   1.00
C143   C     0.90192   0.45043   0.14165   0.00000  Uiso   1.00
C144   C     0.59804   0.54944   0.19224   0.00000  Uiso   1.00
C145   C     0.94937   0.44998   0.14199   0.00000  Uiso   1.00
C146   C     0.55055   0.55013   0.19025   0.00000  Uiso   1.00
C147   C     0.97629   0.49893   0.16524   0.00000  Uiso   1.00
C148   C     0.52362   0.50123   0.16671   0.00000  Uiso   1.00
C149   C     0.95598   0.54588   0.18729   0.00000  Uiso   1.00
C150   C     0.75168   0.59994   0.18216   0.00000  Uiso   1.00
C151   C     0.54394   0.45436   0.14436   0.00000  Uiso   1.00
C152   C     0.97156   0.40360   0.12059   0.00000  Uiso   1.00
C153   C     0.52833   0.59672   0.21021   0.00000  Uiso   1.00
C154   C     0.51797   0.40672   0.12185   0.00000  Uiso   1.00
C155   C     0.98192   0.59366   0.20890   0.00000  Uiso   1.00
C156   C     0.74609   0.34414   0.14266   0.00000  Uiso   1.00
C157   C     0.75383   0.65585   0.19068   0.00000  Uiso   1.00
C158   C     0.66476   0.50051   0.16728   0.00000  Uiso   1.00
C159   C     0.83524   0.49955   0.16605   0.00000  Uiso   1.00
C160   C     0.90968   0.54500   0.18721   0.00000  Uiso   1.00
Cl161  Cl    0.86362   0.39369   0.11462   0.00000  Uiso   1.00
Cl162  Cl    0.63637   0.60540   0.22392   0.00000  Uiso   1.00
Cl163  Cl    0.94587   0.33906   0.09162   0.00000  Uiso   1.00
Cl164  Cl    0.55397   0.66164   0.23541   0.00000  Uiso   1.00
Cl165  Cl    0.69612   0.44039   0.30265   0.00000  Uiso   1.00
Cl166  Cl    0.80387   0.55962   0.03068   0.00000  Uiso   1.00
Cu167  Cu    0.75501   0.50579   0.22813   0.00000  Uiso   1.00
Cu168  Cu    0.74500   0.49421   0.10521   0.00000  Uiso   1.00
F169   F     0.88984   0.59015   0.20861   0.00000  Uiso   1.00
F170   F     0.61008   0.41025   0.12250   0.00000  Uiso   1.00
F171   F     0.73513   0.64805   0.08448   0.00000  Uiso   1.00
F172   F     0.76479   0.35194   0.24887   0.00000  Uiso   1.00
H173   H     0.53399   0.37088   0.10511   0.00000  Uiso   1.00
H174   H     0.96589   0.62967   0.22466   0.00000  Uiso   1.00
N175   N     0.73745   0.48547   0.01284   0.00000  Uiso   1.00
N176   N     0.76256   0.51453   0.32049   0.00000  Uiso   1.00
O177   O     0.75326   0.42871   0.20659   0.00000  Uiso   1.00
O178   O     0.74675   0.57129   0.12674   0.00000  Uiso   1.00
O179   O     0.74480   0.41892   0.10279   0.00000  Uiso   1.00
O180   O     0.75520   0.58108   0.23055   0.00000  Uiso   1.00
O181   O     0.68936   0.50488   0.21857   0.00000  Uiso   1.00
O182   O     0.81065   0.49512   0.11476   0.00000  Uiso   1.00
O183   O     0.68090   0.49510   0.11477   0.00000  Uiso   1.00
O184   O     0.81910   0.50490   0.21857   0.00000  Uiso   1.00
C185   C     0.24828   0.73339   0.15118   0.00000  Uiso   1.00
C186   C     0.09026   0.78859   0.14463   0.00000  Uiso   1.00
C187   C     0.38322   0.83138   0.16459   0.00000  Uiso   1.00
C188   C     0.11676   0.83532   0.16859   0.00000  Uiso   1.00
C189   C     0.40192   0.78376   0.14165   0.00000  Uiso   1.00
C190   C     0.09804   0.88277   0.19224   0.00000  Uiso   1.00
C191   C     0.44937   0.78331   0.14199   0.00000  Uiso   1.00
C192   C     0.05055   0.88346   0.19025   0.00000  Uiso   1.00
C193   C     0.47629   0.83227   0.16524   0.00000  Uiso   1.00
C194   C     0.02362   0.83457   0.16671   0.00000  Uiso   1.00
C195   C     0.45598   0.87922   0.18729   0.00000  Uiso   1.00
C196   C     0.25168   0.93328   0.18216   0.00000  Uiso   1.00
C197   C     0.04394   0.78770   0.14436   0.00000  Uiso   1.00
C198   C     0.47156   0.73693   0.12059   0.00000  Uiso   1.00
C199   C     0.02833   0.93005   0.21021   0.00000  Uiso   1.00
C200   C     0.01797   0.74006   0.12185   0.00000  Uiso   1.00
C201   C     0.48192   0.92699   0.20890   0.00000  Uiso   1.00
C202   C     0.24609   0.67748   0.14266   0.00000  Uiso   1.00
C203   C     0.25383   0.98919   0.19068   0.00000  Uiso   1.00
C204   C     0.16476   0.83384   0.16728   0.00000  Uiso   1.00
C205   C     0.33524   0.83288   0.16605   0.00000  Uiso   1.00
C206   C     0.40968   0.87833   0.18721   0.00000  Uiso   1.00
Cl207  Cl    0.36362   0.72703   0.11462   0.00000  Uiso   1.00
Cl208  Cl    0.13637   0.93874   0.22392   0.00000  Uiso   1.00
Cl209  Cl    0.44587   0.67239   0.09162   0.00000  Uiso   1.00
Cl210  Cl    0.05397   0.99497   0.23541   0.00000  Uiso   1.00
Cl211  Cl    0.19612   0.77372   0.30265   0.00000  Uiso   1.00
Cl212  Cl    0.30387   0.89295   0.03068   0.00000  Uiso   1.00
Cu213  Cu    0.25501   0.83913   0.22813   0.00000  Uiso   1.00
Cu214  Cu    0.24500   0.82754   0.10521   0.00000  Uiso   1.00
F215   F     0.38984   0.92349   0.20861   0.00000  Uiso   1.00
F216   F     0.11008   0.74358   0.12250   0.00000  Uiso   1.00
F217   F     0.23513   0.98138   0.08448   0.00000  Uiso   1.00
F218   F     0.26479   0.68528   0.24887   0.00000  Uiso   1.00
H219   H     0.03399   0.70421   0.10511   0.00000  Uiso   1.00
H220   H     0.46589   0.96301   0.22466   0.00000  Uiso   1.00
N221   N     0.23745   0.81881   0.01284   0.00000  Uiso   1.00
N222   N     0.26256   0.84786   0.32049   0.00000  Uiso   1.00
O223   O     0.25326   0.76204   0.20659   0.00000  Uiso   1.00
O224   O     0.24675   0.90462   0.12674   0.00000  Uiso   1.00
O225   O     0.24480   0.75226   0.10279   0.00000  Uiso   1.00
O226   O     0.25520   0.91441   0.23055   0.00000  Uiso   1.00
O227   O     0.18936   0.83821   0.21857   0.00000  Uiso   1.00
O228   O     0.31065   0.82845   0.11476   0.00000  Uiso   1.00
O229   O     0.18090   0.82843   0.11477   0.00000  Uiso   1.00
O230   O     0.31910   0.83824   0.21857   0.00000  Uiso   1.00
C231   C     0.74828   0.73339   0.15118   0.00000  Uiso   1.00
C232   C     0.59026   0.78859   0.14463   0.00000  Uiso   1.00
C233   C     0.88322   0.83138   0.16459   0.00000  Uiso   1.00
C234   C     0.61676   0.83532   0.16859   0.00000  Uiso   1.00
C235   C     0.90192   0.78376   0.14165   0.00000  Uiso   1.00
C236   C     0.59804   0.88277   0.19224   0.00000  Uiso   1.00
C237   C     0.94937   0.78331   0.14199   0.00000  Uiso   1.00
C238   C     0.55055   0.88346   0.19025   0.00000  Uiso   1.00
C239   C     0.97629   0.83227   0.16524   0.00000  Uiso   1.00
C240   C     0.52362   0.83457   0.16671   0.00000  Uiso   1.00
C241   C     0.95598   0.87922   0.18729   0.00000  Uiso   1.00
C242   C     0.75168   0.93328   0.18216   0.00000  Uiso   1.00
C243   C     0.54394   0.78770   0.14436   0.00000  Uiso   1.00
C244   C     0.97156   0.73693   0.12059   0.00000  Uiso   1.00
C245   C     0.52833   0.93005   0.21021   0.00000  Uiso   1.00
C246   C     0.51797   0.74006   0.12185   0.00000  Uiso   1.00
C247   C     0.98192   0.92699   0.20890   0.00000  Uiso   1.00
C248   C     0.74609   0.67748   0.14266   0.00000  Uiso   1.00
C249   C     0.75383   0.98919   0.19068   0.00000  Uiso   1.00
C250   C     0.66476   0.83384   0.16728   0.00000  Uiso   1.00
C251   C     0.83524   0.83288   0.16605   0.00000  Uiso   1.00
C252   C     0.90968   0.87833   0.18721   0.00000  Uiso   1.00
Cl253  Cl    0.86362   0.72703   0.11462   0.00000  Uiso   1.00
Cl254  Cl    0.63637   0.93874   0.22392   0.00000  Uiso   1.00
Cl255  Cl    0.94587   0.67239   0.09162   0.00000  Uiso   1.00
Cl256  Cl    0.55397   0.99497   0.23541   0.00000  Uiso   1.00
Cl257  Cl    0.69612   0.77372   0.30265   0.00000  Uiso   1.00
Cl258  Cl    0.80387   0.89295   0.03068   0.00000  Uiso   1.00
Cu259  Cu    0.75501   0.83913   0.22813   0.00000  Uiso   1.00
Cu260  Cu    0.74500   0.82754   0.10521   0.00000  Uiso   1.00
F261   F     0.88984   0.92349   0.20861   0.00000  Uiso   1.00
F262   F     0.61008   0.74358   0.12250   0.00000  Uiso   1.00
F263   F     0.73513   0.98138   0.08448   0.00000  Uiso   1.00
F264   F     0.76479   0.68528   0.24887   0.00000  Uiso   1.00
H265   H     0.53399   0.70421   0.10511   0.00000  Uiso   1.00
H266   H     0.96589   0.96301   0.22466   0.00000  Uiso   1.00
N267   N     0.73745   0.81881   0.01284   0.00000  Uiso   1.00
N268   N     0.76256   0.84786   0.32049   0.00000  Uiso   1.00
O269   O     0.75326   0.76204   0.20659   0.00000  Uiso   1.00
O270   O     0.74675   0.90462   0.12674   0.00000  Uiso   1.00
O271   O     0.74480   0.75226   0.10279   0.00000  Uiso   1.00
O272   O     0.75520   0.91441   0.23055   0.00000  Uiso   1.00
O273   O     0.68936   0.83821   0.21857   0.00000  Uiso   1.00
O274   O     0.81065   0.82845   0.11476   0.00000  Uiso   1.00
O275   O     0.68090   0.82843   0.11477   0.00000  Uiso   1.00
O276   O     0.81910   0.83824   0.21857   0.00000  Uiso   1.00
C277   C     0.24828   0.06672   0.48451   0.00000  Uiso   1.00
C278   C     0.09026   0.12193   0.47797   0.00000  Uiso   1.00
C279   C     0.38322   0.16472   0.49793   0.00000  Uiso   1.00
C280   C     0.11676   0.16865   0.50192   0.00000  Uiso   1.00
C281   C     0.40192   0.11709   0.47498   0.00000  Uiso   1.00
C282   C     0.09804   0.21611   0.52557   0.00000  Uiso   1.00
C283   C     0.44937   0.11664   0.47532   0.00000  Uiso   1.00
C284   C     0.05055   0.21679   0.52359   0.00000  Uiso   1.00
C285   C     0.47629   0.16560   0.49857   0.00000  Uiso   1.00
C286   C     0.02362   0.16790   0.50004   0.00000  Uiso   1.00
C287   C     0.45598   0.21255   0.52062   0.00000  Uiso   1.00
C288   C     0.25168   0.26661   0.51549   0.00000  Uiso   1.00
C289   C     0.04394   0.12103   0.47770   0.00000  Uiso   1.00
C290   C     0.47156   0.07027   0.45393   0.00000  Uiso   1.00
C291   C     0.02833   0.26339   0.54354   0.00000  Uiso   1.00
C292   C     0.01797   0.07339   0.45518   0.00000  Uiso   1.00
C293   C     0.48192   0.26033   0.54223   0.00000  Uiso   1.00
C294   C     0.24609   0.01081   0.47599   0.00000  Uiso   1.00
C295   C     0.25383   0.32252   0.52402   0.00000  Uiso   1.00
C296   C     0.16476   0.16717   0.50062   0.00000  Uiso   1.00
C297   C     0.33524   0.16622   0.49938   0.00000  Uiso   1.00
C298   C     0.40968   0.21166   0.52055   0.00000  Uiso   1.00
Cl299  Cl    0.36362   0.06036   0.44795   0.00000  Uiso   1.00
Cl300  Cl    0.13637   0.27207   0.55726   0.00000  Uiso   1.00
Cl301  Cl    0.44587   0.00572   0.42495   0.00000  Uiso   1.00
Cl302  Cl    0.05397   0.32831   0.56874   0.00000  Uiso   1.00
Cl303  Cl    0.19612   0.10706   0.63599   0.00000  Uiso   1.00
Cl304  Cl    0.30387   0.22629   0.36402   0.00000  Uiso   1.00
Cu305  Cu    0.25501   0.17246   0.56146   0.00000  Uiso   1.00
Cu306  Cu    0.24500   0.16087   0.43854   0.00000  Uiso   1.00
F307   F     0.38984   0.25682   0.54195   0.00000  Uiso   1.00
F308   F     0.11008   0.07691   0.45584   0.00000  Uiso   1.00
F309   F     0.23513   0.31472   0.41781   0.00000  Uiso   1.00
F310   F     0.26479   0.01861   0.58220   0.00000  Uiso   1.00
H311   H     0.03399   0.03754   0.43845   0.00000  Uiso   1.00
H312   H     0.46589   0.29634   0.55800   0.00000  Uiso   1.00
N313   N     0.23745   0.15214   0.34617   0.00000  Uiso   1.00
N314   N     0.26256   0.18119   0.65383   0.00000  Uiso   1.00
O315   O     0.25326   0.09538   0.53992   0.00000  Uiso   1.00
O316   O     0.24675   0.23796   0.46008   0.00000  Uiso   1.00
O317   O     0.24480   0.08559   0.43612   0.00000  Uiso   1.00
O318   O     0.25520   0.24774   0.56388   0.00000  Uiso   1.00
O319   O     0.18936   0.17155   0.55191   0.00000  Uiso   1.00
O320   O     0.31065   0.16179   0.44809   0.00000  Uiso   1.00
O321   O     0.18090   0.16176   0.44810   0.00000  Uiso   1.00
O322   O     0.31910   0.17157   0.55190   0.00000  Uiso   1.00
C323   C     0.74828   0.06672   0.48451   0.00000  Uiso   1.00
C324   C     0.59026   0.12193   0.47797   0.00000  Uiso   1.00
C325   C     0.88322   0.16472   0.49793   0.00000  Uiso   1.00
C326   C     0.61676   0.16865   0.50192   0.00000  Uiso   1.00
C327   C     0.90192   0.11709   0.47498   0.00000  Uiso   1.00
C328   C     0.59804   0.21611   0.52557   0.00000  Uiso   1.00
C329   C     0.94937   0.11664   0.47532   0.00000  Uiso   1.00
C330   C     0.55055   0.21679   0.52359   0.00000  Uiso   1.00
C331   C     0.97629   0.16560   0.49857   0.00000  Uiso   1.00
C332   C     0.52362   0.16790   0.50004   0.00000  Uiso   1.00
C333   C     0.95598   0.21255   0.52062   0.00000  Uiso   1.00
C334   C     0.75168   0.26661   0.51549   0.00000  Uiso   1.00
C335   C     0.54394   0.12103   0.47770   0.00000  Uiso   1.00
C336   C     0.97156   0.07027   0.45393   0.00000  Uiso   1.00
C337   C     0.52833   0.26339   0.54354   0.00000  Uiso   1.00
C338   C     0.51797   0.07339   0.45518   0.00000  Uiso   1.00
C339   C     0.98192   0.26033   0.54223   0.00000  Uiso   1.00
C340   C     0.74609   0.01081   0.47599   0.00000  Uiso   1.00
C341   C     0.75383   0.32252   0.52402   0.00000  Uiso   1.00
C342   C     0.66476   0.16717   0.50062   0.00000  Uiso   1.00
C343   C     0.83524   0.16622   0.49938   0.00000  Uiso   1.00
C344   C     0.90968   0.21166   0.52055   0.00000  Uiso   1.00
Cl345  Cl    0.86362   0.06036   0.44795   0.00000  Uiso   1.00
Cl346  Cl    0.63637   0.27207   0.55726   0.00000  Uiso   1.00
Cl347  Cl    0.94587   0.00572   0.42495   0.00000  Uiso   1.00
Cl348  Cl    0.55397   0.32831   0.56874   0.00000  Uiso   1.00
Cl349  Cl    0.69612   0.10706   0.63599   0.00000  Uiso   1.00
Cl350  Cl    0.80387   0.22629   0.36402   0.00000  Uiso   1.00
Cu351  Cu    0.75501   0.17246   0.56146   0.00000  Uiso   1.00
Cu352  Cu    0.74500   0.16087   0.43854   0.00000  Uiso   1.00
F353   F     0.88984   0.25682   0.54195   0.00000  Uiso   1.00
F354   F     0.61008   0.07691   0.45584   0.00000  Uiso   1.00
F355   F     0.73513   0.31472   0.41781   0.00000  Uiso   1.00
F356   F     0.76479   0.01861   0.58220   0.00000  Uiso   1.00
H357   H     0.53399   0.03754   0.43845   0.00000  Uiso   1.00
H358   H     0.96589   0.29634   0.55800   0.00000  Uiso   1.00
N359   N     0.73745   0.15214   0.34617   0.00000  Uiso   1.00
N360   N     0.76256   0.18119   0.65383   0.00000  Uiso   1.00
O361   O     0.75326   0.09538   0.53992   0.00000  Uiso   1.00
O362   O     0.74675   0.23796   0.46008   0.00000  Uiso   1.00
O363   O     0.74480   0.08559   0.43612   0.00000  Uiso   1.00
O364   O     0.75520   0.24774   0.56388   0.00000  Uiso   1.00
O365   O     0.68936   0.17155   0.55191   0.00000  Uiso   1.00
O366   O     0.81065   0.16179   0.44809   0.00000  Uiso   1.00
O367   O     0.68090   0.16176   0.44810   0.00000  Uiso   1.00
O368   O     0.81910   0.17157   0.55190   0.00000  Uiso   1.00
C369   C     0.24828   0.40006   0.48451   0.00000  Uiso   1.00
C370   C     0.09026   0.45526   0.47797   0.00000  Uiso   1.00
C371   C     0.38322   0.49805   0.49793   0.00000  Uiso   1.00
C372   C     0.11676   0.50199   0.50192   0.00000  Uiso   1.00
C373   C     0.40192   0.45043   0.47498   0.00000  Uiso   1.00
C374   C     0.09804   0.54944   0.52557   0.00000  Uiso   1.00
C375   C     0.44937   0.44998   0.47532   0.00000  Uiso   1.00
C376   C     0.05055   0.55013   0.52359   0.00000  Uiso   1.00
C377   C     0.47629   0.49893   0.49857   0.00000  Uiso   1.00
C378   C     0.02362   0.50123   0.50004   0.00000  Uiso   1.00
C379   C     0.45598   0.54588   0.52062   0.00000  Uiso   1.00
C380   C     0.25168   0.59994   0.51549   0.00000  Uiso   1.00
C381   C     0.04394   0.45436   0.47770   0.00000  Uiso   1.00
C382   C     0.47156   0.40360   0.45393   0.00000  Uiso   1.00
C383   C     0.02833   0.59672   0.54354   0.00000  Uiso   1.00
C384   C     0.01797   0.40672   0.45518   0.00000  Uiso   1.00
C385   C     0.48192   0.59366   0.54223   0.00000  Uiso   1.00
C386   C     0.24609   0.34414   0.47599   0.00000  Uiso   1.00
C387   C     0.25383   0.65585   0.52402   0.00000  Uiso   1.00
C388   C     0.16476   0.50051   0.50062   0.00000  Uiso   1.00
C389   C     0.33524   0.49955   0.49938   0.00000  Uiso   1.00
C390   C     0.40968   0.54500   0.52055   0.00000  Uiso   1.00
Cl391  Cl    0.36362   0.39369   0.44795   0.00000  Uiso   1.00
Cl392  Cl    0.13637   0.60540   0.55726   0.00000  Uiso   1.00
Cl393  Cl    0.44587   0.33906   0.42495   0.00000  Uiso   1.00
Cl394  Cl    0.05397   0.66164   0.56874   0.00000  Uiso   1.00
Cl395  Cl    0.19612   0.44039   0.63599   0.00000  Uiso   1.00
Cl396  Cl    0.30387   0.55962   0.36402   0.00000  Uiso   1.00
Cu397  Cu    0.25501   0.50579   0.56146   0.00000  Uiso   1.00
Cu398  Cu    0.24500   0.49421   0.43854   0.00000  Uiso   1.00
F399   F     0.38984   0.59015   0.54195   0.00000  Uiso   1.00
F400   F     0.11008   0.41025   0.45584   0.00000  Uiso   1.00
F401   F     0.23513   0.64805   0.41781   0.00000  Uiso   1.00
F402   F     0.26479   0.35194   0.58220   0.00000  Uiso   1.00
H403   H     0.03399   0.37088   0.43845   0.00000  Uiso   1.00
H404   H     0.46589   0.62967   0.55800   0.00000  Uiso   1.00
N405   N     0.23745   0.48547   0.34617   0.00000  Uiso   1.00
N406   N     0.26256   0.51453   0.65383   0.00000  Uiso   1.00
O407   O     0.25326   0.42871   0.53992   0.00000  Uiso   1.00
O408   O     0.24675   0.57129   0.46008   0.00000  Uiso   1.00
O409   O     0.24480   0.41892   0.43612   0.00000  Uiso   1.00
O410   O     0.25520   0.58108   0.56388   0.00000  Uiso   1.00
O411   O     0.18936   0.50488   0.55191   0.00000  Uiso   1.00
O412   O     0.31065   0.49512   0.44809   0.00000  Uiso   1.00
O413   O     0.18090   0.49510   0.44810   0.00000  Uiso   1.00
O414   O     0.31910   0.50490   0.55190   0.00000  Uiso   1.00
C415   C     0.74828   0.40006   0.48451   0.00000  Uiso   1.00
C416   C     0.59026   0.45526   0.47797   0.00000  Uiso   1.00
C417   C     0.88322   0.49805   0.49793   0.00000  Uiso   1.00
C418   C     0.61676   0.50199   0.50192   0.00000  Uiso   1.00
C419   C     0.90192   0.45043   0.47498   0.00000  Uiso   1.00
C420   C     0.59804   0.54944   0.52557   0.00000  Uiso   1.00
C421   C     0.94937   0.44998   0.47532   0.00000  Uiso   1.00
C422   C     0.55055   0.55013   0.52359   0.00000  Uiso   1.00
C423   C     0.97629   0.49893   0.49857   0.00000  Uiso   1.00
C424   C     0.52362   0.50123   0.50004   0.00000  Uiso   1.00
C425   C     0.95598   0.54588   0.52062   0.00000  Uiso   1.00
C426   C     0.75168   0.59994   0.51549   0.00000  Uiso   1.00
C427   C     0.54394   0.45436   0.47770   0.00000  Uiso   1.00
C428   C     0.97156   0.40360   0.45393   0.00000  Uiso   1.00
C429   C     0.52833   0.59672   0.54354   0.00000  Uiso   1.00
C430   C     0.51797   0.40672   0.45518   0.00000  Uiso   1.00
C431   C     0.98192   0.59366   0.54223   0.00000  Uiso   1.00
C432   C     0.74609   0.34414   0.47599   0.00000  Uiso   1.00
C433   C     0.75383   0.65585   0.52402   0.00000  Uiso   1.00
C434   C     0.66476   0.50051   0.50062   0.00000  Uiso   1.00
C435   C     0.83524   0.49955   0.49938   0.00000  Uiso   1.00
C436   C     0.90968   0.54500   0.52055   0.00000  Uiso   1.00
Cl437  Cl    0.86362   0.39369   0.44795   0.00000  Uiso   1.00
Cl438  Cl    0.63637   0.60540   0.55726   0.00000  Uiso   1.00
Cl439  Cl    0.94587   0.33906   0.42495   0.00000  Uiso   1.00
Cl440  Cl    0.55397   0.66164   0.56874   0.00000  Uiso   1.00
Cl441  Cl    0.69612   0.44039   0.63599   0.00000  Uiso   1.00
Cl442  Cl    0.80387   0.55962   0.36402   0.00000  Uiso   1.00
Cu443  Cu    0.75501   0.50579   0.56146   0.00000  Uiso   1.00
Cu444  Cu    0.74500   0.49421   0.43854   0.00000  Uiso   1.00
F445   F     0.88984   0.59015   0.54195   0.00000  Uiso   1.00
F446   F     0.61008   0.41025   0.45584   0.00000  Uiso   1.00
F447   F     0.73513   0.64805   0.41781   0.00000  Uiso   1.00
F448   F     0.76479   0.35194   0.58220   0.00000  Uiso   1.00
H449   H     0.53399   0.37088   0.43845   0.00000  Uiso   1.00
H450   H     0.96589   0.62967   0.55800   0.00000  Uiso   1.00
N451   N     0.73745   0.48547   0.34617   0.00000  Uiso   1.00
N452   N     0.76256   0.51453   0.65383   0.00000  Uiso   1.00
O453   O     0.75326   0.42871   0.53992   0.00000  Uiso   1.00
O454   O     0.74675   0.57129   0.46008   0.00000  Uiso   1.00
O455   O     0.74480   0.41892   0.43612   0.00000  Uiso   1.00
O456   O     0.75520   0.58108   0.56388   0.00000  Uiso   1.00
O457   O     0.68936   0.50488   0.55191   0.00000  Uiso   1.00
O458   O     0.81065   0.49512   0.44809   0.00000  Uiso   1.00
O459   O     0.68090   0.49510   0.44810   0.00000  Uiso   1.00
O460   O     0.81910   0.50490   0.55190   0.00000  Uiso   1.00
C461   C     0.24828   0.73339   0.48451   0.00000  Uiso   1.00
C462   C     0.09026   0.78859   0.47797   0.00000  Uiso   1.00
C463   C     0.38322   0.83138   0.49793   0.00000  Uiso   1.00
C464   C     0.11676   0.83532   0.50192   0.00000  Uiso   1.00
C465   C     0.40192   0.78376   0.47498   0.00000  Uiso   1.00
C466   C     0.09804   0.88277   0.52557   0.00000  Uiso   1.00
C467   C     0.44937   0.78331   0.47532   0.00000  Uiso   1.00
C468   C     0.05055   0.88346   0.52359   0.00000  Uiso   1.00
C469   C     0.47629   0.83227   0.49857   0.00000  Uiso   1.00
C470   C     0.02362   0.83457   0.50004   0.00000  Uiso   1.00
C471   C     0.45598   0.87922   0.52062   0.00000  Uiso   1.00
C472   C     0.25168   0.93328   0.51549   0.00000  Uiso   1.00
C473   C     0.04394   0.78770   0.47770   0.00000  Uiso   1.00
C474   C     0.47156   0.73693   0.45393   0.00000  Uiso   1.00
C475   C     0.02833   0.93005   0.54354   0.00000  Uiso   1.00
C476   C     0.01797   0.74006   0.45518   0.00000  Uiso   1.00
C477   C     0.48192   0.92699   0.54223   0.00000  Uiso   1.00
C478   C     0.24609   0.67748   0.47599   0.00000  Uiso   1.00
C479   C     0.25383   0.98919   0.52402   0.00000  Uiso   1.00
C480   C     0.16476   0.83384   0.50062   0.00000  Uiso   1.00
C481   C     0.33524   0.83288   0.49938   0.00000  Uiso   1.00
C482   C     0.40968   0.87833   0.52055   0.00000  Uiso   1.00
Cl483  Cl    0.36362   0.72703   0.44795   0.00000  Uiso   1.00
Cl484  Cl    0.13637   0.93874   0.55726   0.00000  Uiso   1.00
Cl485  Cl    0.44587   0.67239   0.42495   0.00000  Uiso   1.00
Cl486  Cl    0.05397   0.99497   0.56874   0.00000  Uiso   1.00
Cl487  Cl    0.19612   0.77372   0.63599   0.00000  Uiso   1.00
Cl488  Cl    0.30387   0.89295   0.36402   0.00000  Uiso   1.00
Cu489  Cu    0.25501   0.83913   0.56146   0.00000  Uiso   1.00
Cu490  Cu    0.24500   0.82754   0.43854   0.00000  Uiso   1.00
F491   F     0.38984   0.92349   0.54195   0.00000  Uiso   1.00
F492   F     0.11008   0.74358   0.45584   0.00000  Uiso   1.00
F493   F     0.23513   0.98138   0.41781   0.00000  Uiso   1.00
F494   F     0.26479   0.68528   0.58220   0.00000  Uiso   1.00
H495   H     0.03399   0.70421   0.43845   0.00000  Uiso   1.00
H496   H     0.46589   0.96301   0.55800   0.00000  Uiso   1.00
N497   N     0.23745   0.81881   0.34617   0.00000  Uiso   1.00
N498   N     0.26256   0.84786   0.65383   0.00000  Uiso   1.00
O499   O     0.25326   0.76204   0.53992   0.00000  Uiso   1.00
O500   O     0.24675   0.90462   0.46008   0.00000  Uiso   1.00
O501   O     0.24480   0.75226   0.43612   0.00000  Uiso   1.00
O502   O     0.25520   0.91441   0.56388   0.00000  Uiso   1.00
O503   O     0.18936   0.83821   0.55191   0.00000  Uiso   1.00
O504   O     0.31065   0.82845   0.44809   0.00000  Uiso   1.00
O505   O     0.18090   0.82843   0.44810   0.00000  Uiso   1.00
O506   O     0.31910   0.83824   0.55190   0.00000  Uiso   1.00
C507   C     0.74828   0.73339   0.48451   0.00000  Uiso   1.00
C508   C     0.59026   0.78859   0.47797   0.00000  Uiso   1.00
C509   C     0.88322   0.83138   0.49793   0.00000  Uiso   1.00
C510   C     0.61676   0.83532   0.50192   0.00000  Uiso   1.00
C511   C     0.90192   0.78376   0.47498   0.00000  Uiso   1.00
C512   C     0.59804   0.88277   0.52557   0.00000  Uiso   1.00
C513   C     0.94937   0.78331   0.47532   0.00000  Uiso   1.00
C514   C     0.55055   0.88346   0.52359   0.00000  Uiso   1.00
C515   C     0.97629   0.83227   0.49857   0.00000  Uiso   1.00
C516   C     0.52362   0.83457   0.50004   0.00000  Uiso   1.00
C517   C     0.95598   0.87922   0.52062   0.00000  Uiso   1.00
C518   C     0.75168   0.93328   0.51549   0.00000  Uiso   1.00
C519   C     0.54394   0.78770   0.47770   0.00000  Uiso   1.00
C520   C     0.97156   0.73693   0.45393   0.00000  Uiso   1.00
C521   C     0.52833   0.93005   0.54354   0.00000  Uiso   1.00
C522   C     0.51797   0.74006   0.45518   0.00000  Uiso   1.00
C523   C     0.98192   0.92699   0.54223   0.00000  Uiso   1.00
C524   C     0.74609   0.67748   0.47599   0.00000  Uiso   1.00
C525   C     0.75383   0.98919   0.52402   0.00000  Uiso   1.00
C526   C     0.66476   0.83384   0.50062   0.00000  Uiso   1.00
C527   C     0.83524   0.83288   0.49938   0.00000  Uiso   1.00
C528   C     0.90968   0.87833   0.52055   0.00000  Uiso   1.00
Cl529  Cl    0.86362   0.72703   0.44795   0.00000  Uiso   1.00
Cl530  Cl    0.63637   0.93874   0.55726   0.00000  Uiso   1.00
Cl531  Cl    0.94587   0.67239   0.42495   0.00000  Uiso   1.00
Cl532  Cl    0.55397   0.99497   0.56874   0.00000  Uiso   1.00
Cl533  Cl    0.69612   0.77372   0.63599   0.00000  Uiso   1.00
Cl534  Cl    0.80387   0.89295   0.36402   0.00000  Uiso   1.00
Cu535  Cu    0.75501   0.83913   0.56146   0.00000  Uiso   1.00
Cu536  Cu    0.74500   0.82754   0.43854   0.00000  Uiso   1.00
F537   F     0.88984   0.92349   0.54195   0.00000  Uiso   1.00
F538   F     0.61008   0.74358   0.45584   0.00000  Uiso   1.00
F539   F     0.73513   0.98138   0.41781   0.00000  Uiso   1.00
F540   F     0.76479   0.68528   0.58220   0.00000  Uiso   1.00
H541   H     0.53399   0.70421   0.43845   0.00000  Uiso   1.00
H542   H     0.96589   0.96301   0.55800   0.00000  Uiso   1.00
N543   N     0.73745   0.81881   0.34617   0.00000  Uiso   1.00
N544   N     0.76256   0.84786   0.65383   0.00000  Uiso   1.00
O545   O     0.75326   0.76204   0.53992   0.00000  Uiso   1.00
O546   O     0.74675   0.90462   0.46008   0.00000  Uiso   1.00
O547   O     0.74480   0.75226   0.43612   0.00000  Uiso   1.00
O548   O     0.75520   0.91441   0.56388   0.00000  Uiso   1.00
O549   O     0.68936   0.83821   0.55191   0.00000  Uiso   1.00
O550   O     0.81065   0.82845   0.44809   0.00000  Uiso   1.00
O551   O     0.68090   0.82843   0.44810   0.00000  Uiso   1.00
O552   O     0.81910   0.83824   0.55190   0.00000  Uiso   1.00
C553   C     0.24828   0.06672   0.81784   0.00000  Uiso   1.00
C554   C     0.09026   0.12193   0.81130   0.00000  Uiso   1.00
C555   C     0.38322   0.16472   0.83126   0.00000  Uiso   1.00
C556   C     0.11676   0.16865   0.83526   0.00000  Uiso   1.00
C557   C     0.40192   0.11709   0.80831   0.00000  Uiso   1.00
C558   C     0.09804   0.21611   0.85891   0.00000  Uiso   1.00
C559   C     0.44937   0.11664   0.80866   0.00000  Uiso   1.00
C560   C     0.05055   0.21679   0.85692   0.00000  Uiso   1.00
C561   C     0.47629   0.16560   0.83190   0.00000  Uiso   1.00
C562   C     0.02362   0.16790   0.83337   0.00000  Uiso   1.00
C563   C     0.45598   0.21255   0.85395   0.00000  Uiso   1.00
C564   C     0.25168   0.26661   0.84882   0.00000  Uiso   1.00
C565   C     0.04394   0.12103   0.81103   0.00000  Uiso   1.00
C566   C     0.47156   0.07027   0.78726   0.00000  Uiso   1.00
C567   C     0.02833   0.26339   0.87688   0.00000  Uiso   1.00
C568   C     0.01797   0.07339   0.78851   0.00000  Uiso   1.00
C569   C     0.48192   0.26033   0.87557   0.00000  Uiso   1.00
C570   C     0.24609   0.01081   0.80932   0.00000  Uiso   1.00
C571   C     0.25383   0.32252   0.85735   0.00000  Uiso   1.00
C572   C     0.16476   0.16717   0.83395   0.00000  Uiso   1.00
C573   C     0.33524   0.16622   0.83272   0.00000  Uiso   1.00
C574   C     0.40968   0.21166   0.85388   0.00000  Uiso   1.00
Cl575  Cl    0.36362   0.06036   0.78129   0.00000  Uiso   1.00
Cl576  Cl    0.13637   0.27207   0.89059   0.00000  Uiso   1.00
Cl577  Cl    0.44587   0.00572   0.75828   0.00000  Uiso   1.00
Cl578  Cl    0.05397   0.32831   0.90207   0.00000  Uiso   1.00
Cl579  Cl    0.19612   0.10706   0.96932   0.00000  Uiso   1.00
Cl580  Cl    0.30387   0.22629   0.69735   0.00000  Uiso   1.00
Cu581  Cu    0.25501   0.17246   0.89479   0.00000  Uiso   1.00
Cu582  Cu    0.24500   0.16087   0.77187   0.00000  Uiso   1.00
F583   F     0.38984   0.25682   0.87528   0.00000  Uiso   1.00
F584   F     0.11008   0.07691   0.78917   0.00000  Uiso   1.00
F585   F     0.23513   0.31472   0.75114   0.00000  Uiso   1.00
F586   F     0.26479   0.01861   0.91553   0.00000  Uiso   1.00
H587   H     0.03399   0.03754   0.77178   0.00000  Uiso   1.00
H588   H     0.46589   0.29634   0.89133   0.00000  Uiso   1.00
N589   N     0.23745   0.15214   0.67951   0.00000  Uiso   1.00
N590   N     0.26256   0.18119   0.98716   0.00000  Uiso   1.00
O591   O     0.25326   0.09538   0.87326   0.00000  Uiso   1.00
O592   O     0.24675   0.23796   0.79341   0.00000  Uiso   1.00
O593   O     0.24480   0.08559   0.76945   0.00000  Uiso   1.00
O594   O     0.25520   0.24774   0.89721   0.00000  Uiso   1.00
O595   O     0.18936   0.17155   0.88524   0.00000  Uiso   1.00
O596   O     0.31065   0.16179   0.78143   0.00000  Uiso   1.00
O597   O     0.18090   0.16176   0.78143   0.00000  Uiso   1.00
O598   O     0.31910   0.17157   0.88523   0.00000  Uiso   1.00
C599   C     0.74828   0.06672   0.81784   0.00000  Uiso   1.00
C600   C     0.59026   0.12193   0.81130   0.00000  Uiso   1.00
C601   C     0.88322   0.16472   0.83126   0.00000  Uiso   1.00
C602   C     0.61676   0.16865   0.83526   0.00000  Uiso   1.00
C603   C     0.90192   0.11709   0.80831   0.00000  Uiso   1.00
C604   C     0.59804   0.21611   0.85891   0.00000  Uiso   1.00
C605   C     0.94937   0.11664   0.80866   0.00000  Uiso   1.00
C606   C     0.55055   0.21679   0.85692   0.00000  Uiso   1.00
C607   C     0.97629   0.16560   0.83190   0.00000  Uiso   1.00
C608   C     0.52362   0.16790   0.83337   0.00000  Uiso   1.00
C609   C     0.95598   0.21255   0.85395   0.00000  Uiso   1.00
C610   C     0.75168   0.26661   0.84882   0.00000  Uiso   1.00
C611   C     0.54394   0.12103   0.81103   0.00000  Uiso   1.00
C612   C     0.97156   0.07027   0.78726   0.00000  Uiso   1.00
C613   C     0.52833   0.26339   0.87688   0.00000  Uiso   1.00
C614   C     0.51797   0.07339   0.78851   0.00000  Uiso   1.00
C615   C     0.98192   0.26033   0.87557   0.00000  Uiso   1.00
C616   C     0.74609   0.01081   0.80932   0.00000  Uiso   1.00
C617   C     0.75383   0.32252   0.85735   0.00000  Uiso   1.00
C618   C     0.66476   0.16717   0.83395   0.00000  Uiso   1.00
C619   C     0.83524   0.16622   0.83272   0.00000  Uiso   1.00
C620   C     0.90968   0.21166   0.85388   0.00000  Uiso   1.00
Cl621  Cl    0.86362   0.06036   0.78129   0.00000  Uiso   1.00
Cl622  Cl    0.63637   0.27207   0.89059   0.00000  Uiso   1.00
Cl623  Cl    0.94587   0.00572   0.75828   0.00000  Uiso   1.00
Cl624  Cl    0.55397   0.32831   0.90207   0.00000  Uiso   1.00
Cl625  Cl    0.69612   0.10706   0.96932   0.00000  Uiso   1.00
Cl626  Cl    0.80387   0.22629   0.69735   0.00000  Uiso   1.00
Cu627  Cu    0.75501   0.17246   0.89479   0.00000  Uiso   1.00
Cu628  Cu    0.74500   0.16087   0.77187   0.00000  Uiso   1.00
F629   F     0.88984   0.25682   0.87528   0.00000  Uiso   1.00
F630   F     0.61008   0.07691   0.78917   0.00000  Uiso   1.00
F631   F     0.73513   0.31472   0.75114   0.00000  Uiso   1.00
F632   F     0.76479   0.01861   0.91553   0.00000  Uiso   1.00
H633   H     0.53399   0.03754   0.77178   0.00000  Uiso   1.00
H634   H     0.96589   0.29634   0.89133   0.00000  Uiso   1.00
N635   N     0.73745   0.15214   0.67951   0.00000  Uiso   1.00
N636   N     0.76256   0.18119   0.98716   0.00000  Uiso   1.00
O637   O     0.75326   0.09538   0.87326   0.00000  Uiso   1.00
O638   O     0.74675   0.23796   0.79341   0.00000  Uiso   1.00
O639   O     0.74480   0.08559   0.76945   0.00000  Uiso   1.00
O640   O     0.75520   0.24774   0.89721   0.00000  Uiso   1.00
O641   O     0.68936   0.17155   0.88524   0.00000  Uiso   1.00
O642   O     0.81065   0.16179   0.78143   0.00000  Uiso   1.00
O643   O     0.68090   0.16176   0.78143   0.00000  Uiso   1.00
O644   O     0.81910   0.17157   0.88523   0.00000  Uiso   1.00
C645   C     0.24828   0.40006   0.81784   0.00000  Uiso   1.00
C646   C     0.09026   0.45526   0.81130   0.00000  Uiso   1.00
C647   C     0.38322   0.49805   0.83126   0.00000  Uiso   1.00
C648   C     0.11676   0.50199   0.83526   0.00000  Uiso   1.00
C649   C     0.40192   0.45043   0.80831   0.00000  Uiso   1.00
C650   C     0.09804   0.54944   0.85891   0.00000  Uiso   1.00
C651   C     0.44937   0.44998   0.80866   0.00000  Uiso   1.00
C652   C     0.05055   0.55013   0.85692   0.00000  Uiso   1.00
C653   C     0.47629   0.49893   0.83190   0.00000  Uiso   1.00
C654   C     0.02362   0.50123   0.83337   0.00000  Uiso   1.00
C655   C     0.45598   0.54588   0.85395   0.00000  Uiso   1.00
C656   C     0.25168   0.59994   0.84882   0.00000  Uiso   1.00
C657   C     0.04394   0.45436   0.81103   0.00000  Uiso   1.00
C658   C     0.47156   0.40360   0.78726   0.00000  Uiso   1.00
C659   C     0.02833   0.59672   0.87688   0.00000  Uiso   1.00
C660   C     0.01797   0.40672   0.78851   0.00000  Uiso   1.00
C661   C     0.48192   0.59366   0.87557   0.00000  Uiso   1.00
C662   C     0.24609   0.34414   0.80932   0.00000  Uiso   1.00
C663   C     0.25383   0.65585   0.85735   0.00000  Uiso   1.00
C664   C     0.16476   0.50051   0.83395   0.00000  Uiso   1.00
C665   C     0.33524   0.49955   0.83272   0.00000  Uiso   1.00
C666   C     0.40968   0.54500   0.85388   0.00000  Uiso   1.00
Cl667  Cl    0.36362   0.39369   0.78129   0.00000  Uiso   1.00
Cl668  Cl    0.13637   0.60540   0.89059   0.00000  Uiso   1.00
Cl669  Cl    0.44587   0.33906   0.75828   0.00000  Uiso   1.00
Cl670  Cl    0.05397   0.66164   0.90207   0.00000  Uiso   1.00
Cl671  Cl    0.19612   0.44039   0.96932   0.00000  Uiso   1.00
Cl672  Cl    0.30387   0.55962   0.69735   0.00000  Uiso   1.00
Cu673  Cu    0.25501   0.50579   0.89479   0.00000  Uiso   1.00
Cu674  Cu    0.24500   0.49421   0.77187   0.00000  Uiso   1.00
F675   F     0.38984   0.59015   0.87528   0.00000  Uiso   1.00
F676   F     0.11008   0.41025   0.78917   0.00000  Uiso   1.00
F677   F     0.23513   0.64805   0.75114   0.00000  Uiso   1.00
F678   F     0.26479   0.35194   0.91553   0.00000  Uiso   1.00
H679   H     0.03399   0.37088   0.77178   0.00000  Uiso   1.00
H680   H     0.46589   0.62967   0.89133   0.00000  Uiso   1.00
N681   N     0.23745   0.48547   0.67951   0.00000  Uiso   1.00
N682   N     0.26256   0.51453   0.98716   0.00000  Uiso   1.00
O683   O     0.25326   0.42871   0.87326   0.00000  Uiso   1.00
O684   O     0.24675   0.57129   0.79341   0.00000  Uiso   1.00
O685   O     0.24480   0.41892   0.76945   0.00000  Uiso   1.00
O686   O     0.25520   0.58108   0.89721   0.00000  Uiso   1.00
O687   O     0.18936   0.50488   0.88524   0.00000  Uiso   1.00
O688   O     0.31065   0.49512   0.78143   0.00000  Uiso   1.00
O689   O     0.18090   0.49510   0.78143   0.00000  Uiso   1.00
O690   O     0.31910   0.50490   0.88523   0.00000  Uiso   1.00
C691   C     0.74828   0.40006   0.81784   0.00000  Uiso   1.00
C692   C     0.59026   0.45526   0.81130   0.00000  Uiso   1.00
C693   C     0.88322   0.49805   0.83126   0.00000  Uiso   1.00
C694   C     0.61676   0.50199   0.83526   0.00000  Uiso   1.00
C695   C     0.90192   0.45043   0.80831   0.00000  Uiso   1.00
C696   C     0.59804   0.54944   0.85891   0.00000  Uiso   1.00
C697   C     0.94937   0.44998   0.80866   0.00000  Uiso   1.00
C698   C     0.55055   0.55013   0.85692   0.00000  Uiso   1.00
C699   C     0.97629   0.49893   0.83190   0.00000  Uiso   1.00
C700   C     0.52362   0.50123   0.83337   0.00000  Uiso   1.00
C701   C     0.95598   0.54588   0.85395   0.00000  Uiso   1.00
C702   C     0.75168   0.59994   0.84882   0.00000  Uiso   1.00
C703   C     0.54394   0.45436   0.81103   0.00000  Uiso   1.00
C704   C     0.97156   0.40360   0.78726   0.00000  Uiso   1.00
C705   C     0.52833   0.59672   0.87688   0.00000  Uiso   1.00
C706   C     0.51797   0.40672   0.78851   0.00000  Uiso   1.00
C707   C     0.98192   0.59366   0.87557   0.00000  Uiso   1.00
C708   C     0.74609   0.34414   0.80932   0.00000  Uiso   1.00
C709   C     0.75383   0.65585   0.85735   0.00000  Uiso   1.00
C710   C     0.66476   0.50051   0.83395   0.00000  Uiso   1.00
C711   C     0.83524   0.49955   0.83272   0.00000  Uiso   1.00
C712   C     0.90968   0.54500   0.85388   0.00000  Uiso   1.00
Cl713  Cl    0.86362   0.39369   0.78129   0.00000  Uiso   1.00
Cl714  Cl    0.63637   0.60540   0.89059   0.00000  Uiso   1.00
Cl715  Cl    0.94587   0.33906   0.75828   0.00000  Uiso   1.00
Cl716  Cl    0.55397   0.66164   0.90207   0.00000  Uiso   1.00
Cl717  Cl    0.69612   0.44039   0.96932   0.00000  Uiso   1.00
Cl718  Cl    0.80387   0.55962   0.69735   0.00000  Uiso   1.00
Cu719  Cu    0.75501   0.50579   0.89479   0.00000  Uiso   1.00
Cu720  Cu    0.74500   0.49421   0.77187   0.00000  Uiso   1.00
F721   F     0.88984   0.59015   0.87528   0.00000  Uiso   1.00
F722   F     0.61008   0.41025   0.78917   0.00000  Uiso   1.00
F723   F     0.73513   0.64805   0.75114   0.00000  Uiso   1.00
F724   F     0.76479   0.35194   0.91553   0.00000  Uiso   1.00
H725   H     0.53399   0.37088   0.77178   0.00000  Uiso   1.00
H726   H     0.96589   0.62967   0.89133   0.00000  Uiso   1.00
N727   N     0.73745   0.48547   0.67951   0.00000  Uiso   1.00
N728   N     0.76256   0.51453   0.98716   0.00000  Uiso   1.00
O729   O     0.75326   0.42871   0.87326   0.00000  Uiso   1.00
O730   O     0.74675   0.57129   0.79341   0.00000  Uiso   1.00
O731   O     0.74480   0.41892   0.76945   0.00000  Uiso   1.00
O732   O     0.75520   0.58108   0.89721   0.00000  Uiso   1.00
O733   O     0.68936   0.50488   0.88524   0.00000  Uiso   1.00
O734   O     0.81065   0.49512   0.78143   0.00000  Uiso   1.00
O735   O     0.68090   0.49510   0.78143   0.00000  Uiso   1.00
O736   O     0.81910   0.50490   0.88523   0.00000  Uiso   1.00
C737   C     0.24828   0.73339   0.81784   0.00000  Uiso   1.00
C738   C     0.09026   0.78859   0.81130   0.00000  Uiso   1.00
C739   C     0.38322   0.83138   0.83126   0.00000  Uiso   1.00
C740   C     0.11676   0.83532   0.83526   0.00000  Uiso   1.00
C741   C     0.40192   0.78376   0.80831   0.00000  Uiso   1.00
C742   C     0.09804   0.88277   0.85891   0.00000  Uiso   1.00
C743   C     0.44937   0.78331   0.80866   0.00000  Uiso   1.00
C744   C     0.05055   0.88346   0.85692   0.00000  Uiso   1.00
C745   C     0.47629   0.83227   0.83190   0.00000  Uiso   1.00
C746   C     0.02362   0.83457   0.83337   0.00000  Uiso   1.00
C747   C     0.45598   0.87922   0.85395   0.00000  Uiso   1.00
C748   C     0.25168   0.93328   0.84882   0.00000  Uiso   1.00
C749   C     0.04394   0.78770   0.81103   0.00000  Uiso   1.00
C750   C     0.47156   0.73693   0.78726   0.00000  Uiso   1.00
C751   C     0.02833   0.93005   0.87688   0.00000  Uiso   1.00
C752   C     0.01797   0.74006   0.78851   0.00000  Uiso   1.00
C753   C     0.48192   0.92699   0.87557   0.00000  Uiso   1.00
C754   C     0.24609   0.67748   0.80932   0.00000  Uiso   1.00
C755   C     0.25383   0.98919   0.85735   0.00000  Uiso   1.00
C756   C     0.16476   0.83384   0.83395   0.00000  Uiso   1.00
C757   C     0.33524   0.83288   0.83272   0.00000  Uiso   1.00
C758   C     0.40968   0.87833   0.85388   0.00000  Uiso   1.00
Cl759  Cl    0.36362   0.72703   0.78129   0.00000  Uiso   1.00
Cl760  Cl    0.13637   0.93874   0.89059   0.00000  Uiso   1.00
Cl761  Cl    0.44587   0.67239   0.75828   0.00000  Uiso   1.00
Cl762  Cl    0.05397   0.99497   0.90207   0.00000  Uiso   1.00
Cl763  Cl    0.19612   0.77372   0.96932   0.00000  Uiso   1.00
Cl764  Cl    0.30387   0.89295   0.69735   0.00000  Uiso   1.00
Cu765  Cu    0.25501   0.83913   0.89479   0.00000  Uiso   1.00
Cu766  Cu    0.24500   0.82754   0.77187   0.00000  Uiso   1.00
F767   F     0.38984   0.92349   0.87528   0.00000  Uiso   1.00
F768   F     0.11008   0.74358   0.78917   0.00000  Uiso   1.00
F769   F     0.23513   0.98138   0.75114   0.00000  Uiso   1.00
F770   F     0.26479   0.68528   0.91553   0.00000  Uiso   1.00
H771   H     0.03399   0.70421   0.77178   0.00000  Uiso   1.00
H772   H     0.46589   0.96301   0.89133   0.00000  Uiso   1.00
N773   N     0.23745   0.81881   0.67951   0.00000  Uiso   1.00
N774   N     0.26256   0.84786   0.98716   0.00000  Uiso   1.00
O775   O     0.25326   0.76204   0.87326   0.00000  Uiso   1.00
O776   O     0.24675   0.90462   0.79341   0.00000  Uiso   1.00
O777   O     0.24480   0.75226   0.76945   0.00000  Uiso   1.00
O778   O     0.25520   0.91441   0.89721   0.00000  Uiso   1.00
O779   O     0.18936   0.83821   0.88524   0.00000  Uiso   1.00
O780   O     0.31065   0.82845   0.78143   0.00000  Uiso   1.00
O781   O     0.18090   0.82843   0.78143   0.00000  Uiso   1.00
O782   O     0.31910   0.83824   0.88523   0.00000  Uiso   1.00
C783   C     0.74828   0.73339   0.81784   0.00000  Uiso   1.00
C784   C     0.59026   0.78859   0.81130   0.00000  Uiso   1.00
C785   C     0.88322   0.83138   0.83126   0.00000  Uiso   1.00
C786   C     0.61676   0.83532   0.83526   0.00000  Uiso   1.00
C787   C     0.90192   0.78376   0.80831   0.00000  Uiso   1.00
C788   C     0.59804   0.88277   0.85891   0.00000  Uiso   1.00
C789   C     0.94937   0.78331   0.80866   0.00000  Uiso   1.00
C790   C     0.55055   0.88346   0.85692   0.00000  Uiso   1.00
C791   C     0.97629   0.83227   0.83190   0.00000  Uiso   1.00
C792   C     0.52362   0.83457   0.83337   0.00000  Uiso   1.00
C793   C     0.95598   0.87922   0.85395   0.00000  Uiso   1.00
C794   C     0.75168   0.93328   0.84882   0.00000  Uiso   1.00
C795   C     0.54394   0.78770   0.81103   0.00000  Uiso   1.00
C796   C     0.97156   0.73693   0.78726   0.00000  Uiso   1.00
C797   C     0.52833   0.93005   0.87688   0.00000  Uiso   1.00
C798   C     0.51797   0.74006   0.78851   0.00000  Uiso   1.00
C799   C     0.98192   0.92699   0.87557   0.00000  Uiso   1.00
C800   C     0.74609   0.67748   0.80932   0.00000  Uiso   1.00
C801   C     0.75383   0.98919   0.85735   0.00000  Uiso   1.00
C802   C     0.66476   0.83384   0.83395   0.00000  Uiso   1.00
C803   C     0.83524   0.83288   0.83272   0.00000  Uiso   1.00
C804   C     0.90968   0.87833   0.85388   0.00000  Uiso   1.00
Cl805  Cl    0.86362   0.72703   0.78129   0.00000  Uiso   1.00
Cl806  Cl    0.63637   0.93874   0.89059   0.00000  Uiso   1.00
Cl807  Cl    0.94587   0.67239   0.75828   0.00000  Uiso   1.00
Cl808  Cl    0.55397   0.99497   0.90207   0.00000  Uiso   1.00
Cl809  Cl    0.69612   0.77372   0.96932   0.00000  Uiso   1.00
Cl810  Cl    0.80387   0.89295   0.69735   0.00000  Uiso   1.00
Cu811  Cu    0.75501   0.83913   0.89479   0.00000  Uiso   1.00
Cu812  Cu    0.74500   0.82754   0.77187   0.00000  Uiso   1.00
F813   F     0.88984   0.92349   0.87528   0.00000  Uiso   1.00
F814   F     0.61008   0.74358   0.78917   0.00000  Uiso   1.00
F815   F     0.73513   0.98138   0.75114   0.00000  Uiso   1.00
F816   F     0.76479   0.68528   0.91553   0.00000  Uiso   1.00
H817   H     0.53399   0.70421   0.77178   0.00000  Uiso   1.00
H818   H     0.96589   0.96301   0.89133   0.00000  Uiso   1.00
N819   N     0.73745   0.81881   0.67951   0.00000  Uiso   1.00
N820   N     0.76256   0.84786   0.98716   0.00000  Uiso   1.00
O821   O     0.75326   0.76204   0.87326   0.00000  Uiso   1.00
O822   O     0.74675   0.90462   0.79341   0.00000  Uiso   1.00
O823   O     0.74480   0.75226   0.76945   0.00000  Uiso   1.00
O824   O     0.75520   0.91441   0.89721   0.00000  Uiso   1.00
O825   O     0.68936   0.83821   0.88524   0.00000  Uiso   1.00
O826   O     0.81065   0.82845   0.78143   0.00000  Uiso   1.00
O827   O     0.68090   0.82843   0.78143   0.00000  Uiso   1.00
O828   O     0.81910   0.83824   0.88523   0.00000  Uiso   1.00
loop_
_geom_bond_atom_site_label_1
_geom_bond_atom_site_label_2
_geom_bond_distance
_geom_bond_site_symmetry_2
_ccdc_geom_bond_type
C1     C18     1.426   .     S
C1     O39     1.294   .     A
C1     O41     1.295   .     A
C2     C4      1.387   .     A
C2     F32     1.362   .     S
C2     C13     1.388   .     A
C3     C22     1.386   .     A
C3     C21     1.445   .     S
C3     C5      1.405   .     A
C4     C6      1.405   .     A
C4     C20     1.445   .     S
C5     Cl23    1.775   .     S
C5     C7      1.424   .     A
C6     Cl24    1.775   .     S
C6     C8      1.423   .     A
C7     C9      1.435   .     A
C7     C14     1.426   .     A
C8     C10     1.435   .     A
C8     C15     1.425   .     A
C9     C11     1.411   .     A
C9     C56     1.415   .     S
C10    C13     1.411   .     A
C10    C55     1.415   1_455 S
C11    C17     1.393   .     A
C11    C22     1.388   .     A
C12    O40     1.294   .     A
C12    C19     1.426   .     S
C12    O42     1.294   .     A
C13    C16     1.393   .     A
C14    Cl25    1.766   .     S
C14    C62     1.387   .     S
C15    Cl26    1.766   .     S
C15    C63     1.387   1_455 S
C16    H35     1.085   .     S
C16    C60     1.387   1_455 S
C17    H36     1.085   .     S
C17    C61     1.387   .     S
C18    C203    1.341   1_545 S
C18    F217    1.363   1_545 S
C19    C110    1.341   .     S
C19    F126    1.363   .     S
C20    O45     1.297   .     A
C20    O43     1.298   .     A
C21    O44     1.298   .     A
C21    O46     1.297   .     A
C22    F31     1.362   .     S
Cl27   N313    1.726   .     S
Cl28   N590    1.726   1_554 S
Cu29   N38     2.034   .     S
Cu29   O42     1.955   .     S
Cu29   O46     1.953   .     S
Cu29   O39     1.958   .     S
Cu29   O43     1.962   .     S
Cu29   Cu30    2.707   .     S
Cu30   O41     1.955   .     S
Cu30   O45     1.953   .     S
Cu30   O40     1.958   .     S
Cu30   O44     1.962   .     S
Cu30   N37     2.034   .     S
F33    C110    1.363   .     S
F34    C203    1.363   1_545 S
N37    Cl579   1.726   1_554 S
N37    N590    1.295   1_554 S
N38    N313    1.295   .     S
N38    Cl304   1.726   .     S
C47    C64     1.426   .     S
C47    O85     1.294   .     A
C47    O87     1.295   .     A
C48    C50     1.387   .     A
C48    F78     1.362   .     S
C48    C59     1.388   .     A
C49    C68     1.386   .     A
C49    C67     1.445   .     S
C49    C51     1.405   .     A
C50    C52     1.405   .     A
C50    C66     1.445   .     S
C51    Cl69    1.775   .     S
C51    C53     1.424   .     A
C52    Cl70    1.775   .     S
C52    C54     1.423   .     A
C53    C55     1.435   .     A
C53    C60     1.426   .     A
C54    C56     1.435   .     A
C54    C61     1.425   .     A
C55    C57     1.411   .     A
C55    C10     1.415   1_655 S
C56    C59     1.411   .     A
C57    C63     1.393   .     A
C57    C68     1.388   .     A
C58    O86     1.294   .     A
C58    C65     1.426   .     S
C58    O88     1.294   .     A
C59    C62     1.393   .     A
C60    Cl71    1.766   .     S
C60    C16     1.387   1_655 S
C61    Cl72    1.766   .     S
C62    H81     1.085   .     S
C63    H82     1.085   .     S
C63    C15     1.387   1_655 S
C64    C249    1.341   1_545 S
C64    F263    1.363   1_545 S
C65    C156    1.341   .     S
C65    F172    1.363   .     S
C66    O91     1.297   .     A
C66    O89     1.298   .     A
C67    O90     1.298   .     A
C67    O92     1.297   .     A
C68    F77     1.362   .     S
Cl73   N359    1.726   .     S
Cl74   N636    1.726   1_554 S
Cu75   N84     2.034   .     S
Cu75   O88     1.955   .     S
Cu75   O92     1.953   .     S
Cu75   O85     1.958   .     S
Cu75   O89     1.962   .     S
Cu75   Cu76    2.707   .     S
Cu76   O87     1.955   .     S
Cu76   O91     1.953   .     S
Cu76   O86     1.958   .     S
Cu76   O90     1.962   .     S
Cu76   N83     2.034   .     S
F79    C156    1.363   .     S
F80    C249    1.363   1_545 S
N83    Cl625   1.726   1_554 S
N83    N636    1.295   1_554 S
N84    N359    1.295   .     S
N84    Cl350   1.726   .     S
C93    C110    1.426   .     S
C93    O131    1.294   .     A
C93    O133    1.295   .     A
C94    C96     1.387   .     A
C94    F124    1.362   .     S
C94    C105    1.388   .     A
C95    C114    1.386   .     A
C95    C113    1.445   .     S
C95    C97     1.405   .     A
C96    C98     1.405   .     A
C96    C112    1.445   .     S
C97    Cl115   1.775   .     S
C97    C99     1.424   .     A
C98    Cl116   1.775   .     S
C98    C100    1.423   .     A
C99    C101    1.435   .     A
C99    C106    1.426   .     A
C100   C102    1.435   .     A
C100   C107    1.425   .     A
C101   C103    1.411   .     A
C101   C148    1.415   .     S
C102   C105    1.411   .     A
C102   C147    1.415   1_455 S
C103   C109    1.393   .     A
C103   C114    1.388   .     A
C104   O132    1.294   .     A
C104   C111    1.426   .     S
C104   O134    1.294   .     A
C105   C108    1.393   .     A
C106   Cl117   1.766   .     S
C106   C154    1.387   .     S
C107   Cl118   1.766   .     S
C107   C155    1.387   1_455 S
C108   H127    1.085   .     S
C108   C152    1.387   1_455 S
C109   H128    1.085   .     S
C109   C153    1.387   .     S
C111   C202    1.341   .     S
C111   F218    1.363   .     S
C112   O137    1.297   .     A
C112   O135    1.298   .     A
C113   O136    1.298   .     A
C113   O138    1.297   .     A
C114   F123    1.362   .     S
Cl119  N405    1.726   .     S
Cl120  N682    1.726   1_554 S
Cu121  N130    2.034   .     S
Cu121  O134    1.955   .     S
Cu121  O138    1.953   .     S
Cu121  O131    1.958   .     S
Cu121  O135    1.962   .     S
Cu121  Cu122   2.707   .     S
Cu122  O133    1.955   .     S
Cu122  O137    1.953   .     S
Cu122  O132    1.958   .     S
Cu122  O136    1.962   .     S
Cu122  N129    2.034   .     S
F125   C202    1.363   .     S
N129   Cl671   1.726   1_554 S
N129   N682    1.295   1_554 S
N130   N405    1.295   .     S
N130   Cl396   1.726   .     S
C139   C156    1.426   .     S
C139   O177    1.294   .     A
C139   O179    1.295   .     A
C140   C142    1.387   .     A
C140   F170    1.362   .     S
C140   C151    1.388   .     A
C141   C160    1.386   .     A
C141   C159    1.445   .     S
C141   C143    1.405   .     A
C142   C144    1.405   .     A
C142   C158    1.445   .     S
C143   Cl161   1.775   .     S
C143   C145    1.424   .     A
C144   Cl162   1.775   .     S
C144   C146    1.423   .     A
C145   C147    1.435   .     A
C145   C152    1.426   .     A
C146   C148    1.435   .     A
C146   C153    1.425   .     A
C147   C149    1.411   .     A
C147   C102    1.415   1_655 S
C148   C151    1.411   .     A
C149   C155    1.393   .     A
C149   C160    1.388   .     A
C150   O178    1.294   .     A
C150   C157    1.426   .     S
C150   O180    1.294   .     A
C151   C154    1.393   .     A
C152   Cl163   1.766   .     S
C152   C108    1.387   1_655 S
C153   Cl164   1.766   .     S
C154   H173    1.085   .     S
C155   H174    1.085   .     S
C155   C107    1.387   1_655 S
C157   C248    1.341   .     S
C157   F264    1.363   .     S
C158   O183    1.297   .     A
C158   O181    1.298   .     A
C159   O182    1.298   .     A
C159   O184    1.297   .     A
C160   F169    1.362   .     S
Cl165  N451    1.726   .     S
Cl166  N728    1.726   1_554 S
Cu167  N176    2.034   .     S
Cu167  O180    1.955   .     S
Cu167  O184    1.953   .     S
Cu167  O177    1.958   .     S
Cu167  O181    1.962   .     S
Cu167  Cu168   2.707   .     S
Cu168  O179    1.955   .     S
Cu168  O183    1.953   .     S
Cu168  O178    1.958   .     S
Cu168  O182    1.962   .     S
Cu168  N175    2.034   .     S
F171   C248    1.363   .     S
N175   Cl717   1.726   1_554 S
N175   N728    1.295   1_554 S
N176   N451    1.295   .     S
N176   Cl442   1.726   .     S
C185   C202    1.426   .     S
C185   O223    1.294   .     A
C185   O225    1.295   .     A
C186   C188    1.387   .     A
C186   F216    1.362   .     S
C186   C197    1.388   .     A
C187   C206    1.386   .     A
C187   C205    1.445   .     S
C187   C189    1.405   .     A
C188   C190    1.405   .     A
C188   C204    1.445   .     S
C189   Cl207   1.775   .     S
C189   C191    1.424   .     A
C190   Cl208   1.775   .     S
C190   C192    1.423   .     A
C191   C193    1.435   .     A
C191   C198    1.426   .     A
C192   C194    1.435   .     A
C192   C199    1.425   .     A
C193   C195    1.411   .     A
C193   C240    1.415   .     S
C194   C197    1.411   .     A
C194   C239    1.415   1_455 S
C195   C201    1.393   .     A
C195   C206    1.388   .     A
C196   O224    1.294   .     A
C196   C203    1.426   .     S
C196   O226    1.294   .     A
C197   C200    1.393   .     A
C198   Cl209   1.766   .     S
C198   C246    1.387   .     S
C199   Cl210   1.766   .     S
C199   C247    1.387   1_455 S
C200   H219    1.085   .     S
C200   C244    1.387   1_455 S
C201   H220    1.085   .     S
C201   C245    1.387   .     S
C203   C18     1.341   1_565 S
C203   F34     1.363   1_565 S
C204   O229    1.297   .     A
C204   O227    1.298   .     A
C205   O228    1.298   .     A
C205   O230    1.297   .     A
C206   F215    1.362   .     S
Cl211  N497    1.726   .     S
Cl212  N774    1.726   1_554 S
Cu213  N222    2.034   .     S
Cu213  O226    1.955   .     S
Cu213  O230    1.953   .     S
Cu213  O223    1.958   .     S
Cu213  O227    1.962   .     S
Cu213  Cu214   2.707   .     S
Cu214  O225    1.955   .     S
Cu214  O229    1.953   .     S
Cu214  O224    1.958   .     S
Cu214  O228    1.962   .     S
Cu214  N221    2.034   .     S
F217   C18     1.363   1_565 S
N221   Cl763   1.726   1_554 S
N221   N774    1.295   1_554 S
N222   N497    1.295   .     S
N222   Cl488   1.726   .     S
C231   C248    1.426   .     S
C231   O269    1.294   .     A
C231   O271    1.295   .     A
C232   C234    1.387   .     A
C232   F262    1.362   .     S
C232   C243    1.388   .     A
C233   C252    1.386   .     A
C233   C251    1.445   .     S
C233   C235    1.405   .     A
C234   C236    1.405   .     A
C234   C250    1.445   .     S
C235   Cl253   1.775   .     S
C235   C237    1.424   .     A
C236   Cl254   1.775   .     S
C236   C238    1.423   .     A
C237   C239    1.435   .     A
C237   C244    1.426   .     A
C238   C240    1.435   .     A
C238   C245    1.425   .     A
C239   C241    1.411   .     A
C239   C194    1.415   1_655 S
C240   C243    1.411   .     A
C241   C247    1.393   .     A
C241   C252    1.388   .     A
C242   O270    1.294   .     A
C242   C249    1.426   .     S
C242   O272    1.294   .     A
C243   C246    1.393   .     A
C244   Cl255   1.766   .     S
C244   C200    1.387   1_655 S
C245   Cl256   1.766   .     S
C246   H265    1.085   .     S
C247   H266    1.085   .     S
C247   C199    1.387   1_655 S
C249   C64     1.341   1_565 S
C249   F80     1.363   1_565 S
C250   O275    1.297   .     A
C250   O273    1.298   .     A
C251   O274    1.298   .     A
C251   O276    1.297   .     A
C252   F261    1.362   .     S
Cl257  N543    1.726   .     S
Cl258  N820    1.726   1_554 S
Cu259  N268    2.034   .     S
Cu259  O272    1.955   .     S
Cu259  O276    1.953   .     S
Cu259  O269    1.958   .     S
Cu259  O273    1.962   .     S
Cu259  Cu260   2.707   .     S
Cu260  O271    1.955   .     S
Cu260  O275    1.953   .     S
Cu260  O270    1.958   .     S
Cu260  O274    1.962   .     S
Cu260  N267    2.034   .     S
F263   C64     1.363   1_565 S
N267   Cl809   1.726   1_554 S
N267   N820    1.295   1_554 S
N268   N543    1.295   .     S
N268   Cl534   1.726   .     S
C277   C294    1.426   .     S
C277   O315    1.294   .     A
C277   O317    1.295   .     A
C278   C280    1.387   .     A
C278   F308    1.362   .     S
C278   C289    1.388   .     A
C279   C298    1.386   .     A
C279   C297    1.445   .     S
C279   C281    1.405   .     A
C280   C282    1.405   .     A
C280   C296    1.445   .     S
C281   Cl299   1.775   .     S
C281   C283    1.424   .     A
C282   Cl300   1.775   .     S
C282   C284    1.423   .     A
C283   C285    1.435   .     A
C283   C290    1.426   .     A
C284   C286    1.435   .     A
C284   C291    1.425   .     A
C285   C287    1.411   .     A
C285   C332    1.415   .     S
C286   C289    1.411   .     A
C286   C331    1.415   1_455 S
C287   C293    1.393   .     A
C287   C298    1.388   .     A
C288   O316    1.294   .     A
C288   C295    1.426   .     S
C288   O318    1.294   .     A
C289   C292    1.393   .     A
C290   Cl301   1.766   .     S
C290   C338    1.387   .     S
C291   Cl302   1.766   .     S
C291   C339    1.387   1_455 S
C292   H311    1.085   .     S
C292   C336    1.387   1_455 S
C293   H312    1.085   .     S
C293   C337    1.387   .     S
C294   C479    1.341   1_545 S
C294   F493    1.363   1_545 S
C295   C386    1.341   .     S
C295   F402    1.363   .     S
C296   O321    1.297   .     A
C296   O319    1.298   .     A
C297   O320    1.298   .     A
C297   O322    1.297   .     A
C298   F307    1.362   .     S
Cl303  N589    1.726   .     S
Cu305  N314    2.034   .     S
Cu305  O318    1.955   .     S
Cu305  O322    1.953   .     S
Cu305  O315    1.958   .     S
Cu305  O319    1.962   .     S
Cu305  Cu306   2.707   .     S
Cu306  O317    1.955   .     S
Cu306  O321    1.953   .     S
Cu306  O316    1.958   .     S
Cu306  O320    1.962   .     S
Cu306  N313    2.034   .     S
F309   C386    1.363   .     S
F310   C479    1.363   1_545 S
N314   N589    1.295   .     S
N314   Cl580   1.726   .     S
C323   C340    1.426   .     S
C323   O361    1.294   .     A
C323   O363    1.295   .     A
C324   C326    1.387   .     A
C324   F354    1.362   .     S
C324   C335    1.388   .     A
C325   C344    1.386   .     A
C325   C343    1.445   .     S
C325   C327    1.405   .     A
C326   C328    1.405   .     A
C326   C342    1.445   .     S
C327   Cl345   1.775   .     S
C327   C329    1.424   .     A
C328   Cl346   1.775   .     S
C328   C330    1.423   .     A
C329   C331    1.435   .     A
C329   C336    1.426   .     A
C330   C332    1.435   .     A
C330   C337    1.425   .     A
C331   C333    1.411   .     A
C331   C286    1.415   1_655 S
C332   C335    1.411   .     A
C333   C339    1.393   .     A
C333   C344    1.388   .     A
C334   O362    1.294   .     A
C334   C341    1.426   .     S
C334   O364    1.294   .     A
C335   C338    1.393   .     A
C336   Cl347   1.766   .     S
C336   C292    1.387   1_655 S
C337   Cl348   1.766   .     S
C338   H357    1.085   .     S
C339   H358    1.085   .     S
C339   C291    1.387   1_655 S
C340   C525    1.341   1_545 S
C340   F539    1.363   1_545 S
C341   C432    1.341   .     S
C341   F448    1.363   .     S
C342   O367    1.297   .     A
C342   O365    1.298   .     A
C343   O366    1.298   .     A
C343   O368    1.297   .     A
C344   F353    1.362   .     S
Cl349  N635    1.726   .     S
Cu351  N360    2.034   .     S
Cu351  O364    1.955   .     S
Cu351  O368    1.953   .     S
Cu351  O361    1.958   .     S
Cu351  O365    1.962   .     S
Cu351  Cu352   2.707   .     S
Cu352  O363    1.955   .     S
Cu352  O367    1.953   .     S
Cu352  O362    1.958   .     S
Cu352  O366    1.962   .     S
Cu352  N359    2.034   .     S
F355   C432    1.363   .     S
F356   C525    1.363   1_545 S
N360   N635    1.295   .     S
N360   Cl626   1.726   .     S
C369   C386    1.426   .     S
C369   O407    1.294   .     A
C369   O409    1.295   .     A
C370   C372    1.387   .     A
C370   F400    1.362   .     S
C370   C381    1.388   .     A
C371   C390    1.386   .     A
C371   C389    1.445   .     S
C371   C373    1.405   .     A
C372   C374    1.405   .     A
C372   C388    1.445   .     S
C373   Cl391   1.775   .     S
C373   C375    1.424   .     A
C374   Cl392   1.775   .     S
C374   C376    1.423   .     A
C375   C377    1.435   .     A
C375   C382    1.426   .     A
C376   C378    1.435   .     A
C376   C383    1.425   .     A
C377   C379    1.411   .     A
C377   C424    1.415   .     S
C378   C381    1.411   .     A
C378   C423    1.415   1_455 S
C379   C385    1.393   .     A
C379   C390    1.388   .     A
C380   O408    1.294   .     A
C380   C387    1.426   .     S
C380   O410    1.294   .     A
C381   C384    1.393   .     A
C382   Cl393   1.766   .     S
C382   C430    1.387   .     S
C383   Cl394   1.766   .     S
C383   C431    1.387   1_455 S
C384   H403    1.085   .     S
C384   C428    1.387   1_455 S
C385   H404    1.085   .     S
C385   C429    1.387   .     S
C387   C478    1.341   .     S
C387   F494    1.363   .     S
C388   O413    1.297   .     A
C388   O411    1.298   .     A
C389   O412    1.298   .     A
C389   O414    1.297   .     A
C390   F399    1.362   .     S
Cl395  N681    1.726   .     S
Cu397  N406    2.034   .     S
Cu397  O410    1.955   .     S
Cu397  O414    1.953   .     S
Cu397  O407    1.958   .     S
Cu397  O411    1.962   .     S
Cu397  Cu398   2.707   .     S
Cu398  O409    1.955   .     S
Cu398  O413    1.953   .     S
Cu398  O408    1.958   .     S
Cu398  O412    1.962   .     S
Cu398  N405    2.034   .     S
F401   C478    1.363   .     S
N406   N681    1.295   .     S
N406   Cl672   1.726   .     S
C415   C432    1.426   .     S
C415   O453    1.294   .     A
C415   O455    1.295   .     A
C416   C418    1.387   .     A
C416   F446    1.362   .     S
C416   C427    1.388   .     A
C417   C436    1.386   .     A
C417   C435    1.445   .     S
C417   C419    1.405   .     A
C418   C420    1.405   .     A
C418   C434    1.445   .     S
C419   Cl437   1.775   .     S
C419   C421    1.424   .     A
C420   Cl438   1.775   .     S
C420   C422    1.423   .     A
C421   C423    1.435   .     A
C421   C428    1.426   .     A
C422   C424    1.435   .     A
C422   C429    1.425   .     A
C423   C425    1.411   .     A
C423   C378    1.415   1_655 S
C424   C427    1.411   .     A
C425   C431    1.393   .     A
C425   C436    1.388   .     A
C426   O454    1.294   .     A
C426   C433    1.426   .     S
C426   O456    1.294   .     A
C427   C430    1.393   .     A
C428   Cl439   1.766   .     S
C428   C384    1.387   1_655 S
C429   Cl440   1.766   .     S
C430   H449    1.085   .     S
C431   H450    1.085   .     S
C431   C383    1.387   1_655 S
C433   C524    1.341   .     S
C433   F540    1.363   .     S
C434   O459    1.297   .     A
C434   O457    1.298   .     A
C435   O458    1.298   .     A
C435   O460    1.297   .     A
C436   F445    1.362   .     S
Cl441  N727    1.726   .     S
Cu443  N452    2.034   .     S
Cu443  O456    1.955   .     S
Cu443  O460    1.953   .     S
Cu443  O453    1.958   .     S
Cu443  O457    1.962   .     S
Cu443  Cu444   2.707   .     S
Cu444  O455    1.955   .     S
Cu444  O459    1.953   .     S
Cu444  O454    1.958   .     S
Cu444  O458    1.962   .     S
Cu444  N451    2.034   .     S
F447   C524    1.363   .     S
N452   N727    1.295   .     S
N452   Cl718   1.726   .     S
C461   C478    1.426   .     S
C461   O499    1.294   .     A
C461   O501    1.295   .     A
C462   C464    1.387   .     A
C462   F492    1.362   .     S
C462   C473    1.388   .     A
C463   C482    1.386   .     A
C463   C481    1.445   .     S
C463   C465    1.405   .     A
C464   C466    1.405   .     A
C464   C480    1.445   .     S
C465   Cl483   1.775   .     S
C465   C467    1.424   .     A
C466   Cl484   1.775   .     S
C466   C468    1.423   .     A
C467   C469    1.435   .     A
C467   C474    1.426   .     A
C468   C470    1.435   .     A
C468   C475    1.425   .     A
C469   C471    1.411   .     A
C469   C516    1.415   .     S
C470   C473    1.411   .     A
C470   C515    1.415   1_455 S
C471   C477    1.393   .     A
C471   C482    1.388   .     A
C472   O500    1.294   .     A
C472   C479    1.426   .     S
C472   O502    1.294   .     A
C473   C476    1.393   .     A
C474   Cl485   1.766   .     S
C474   C522    1.387   .     S
C475   Cl486   1.766   .     S
C475   C523    1.387   1_455 S
C476   H495    1.085   .     S
C476   C520    1.387   1_455 S
C477   H496    1.085   .     S
C477   C521    1.387   .     S
C479   C294    1.341   1_565 S
C479   F310    1.363   1_565 S
C480   O505    1.297   .     A
C480   O503    1.298   .     A
C481   O504    1.298   .     A
C481   O506    1.297   .     A
C482   F491    1.362   .     S
Cl487  N773    1.726   .     S
Cu489  N498    2.034   .     S
Cu489  O502    1.955   .     S
Cu489  O506    1.953   .     S
Cu489  O499    1.958   .     S
Cu489  O503    1.962   .     S
Cu489  Cu490   2.707   .     S
Cu490  O501    1.955   .     S
Cu490  O505    1.953   .     S
Cu490  O500    1.958   .     S
Cu490  O504    1.962   .     S
Cu490  N497    2.034   .     S
F493   C294    1.363   1_565 S
N498   N773    1.295   .     S
N498   Cl764   1.726   .     S
C507   C524    1.426   .     S
C507   O545    1.294   .     A
C507   O547    1.295   .     A
C508   C510    1.387   .     A
C508   F538    1.362   .     S
C508   C519    1.388   .     A
C509   C528    1.386   .     A
C509   C527    1.445   .     S
C509   C511    1.405   .     A
C510   C512    1.405   .     A
C510   C526    1.445   .     S
C511   Cl529   1.775   .     S
C511   C513    1.424   .     A
C512   Cl530   1.775   .     S
C512   C514    1.423   .     A
C513   C515    1.435   .     A
C513   C520    1.426   .     A
C514   C516    1.435   .     A
C514   C521    1.425   .     A
C515   C517    1.411   .     A
C515   C470    1.415   1_655 S
C516   C519    1.411   .     A
C517   C523    1.393   .     A
C517   C528    1.388   .     A
C518   O546    1.294   .     A
C518   C525    1.426   .     S
C518   O548    1.294   .     A
C519   C522    1.393   .     A
C520   Cl531   1.766   .     S
C520   C476    1.387   1_655 S
C521   Cl532   1.766   .     S
C522   H541    1.085   .     S
C523   H542    1.085   .     S
C523   C475    1.387   1_655 S
C525   C340    1.341   1_565 S
C525   F356    1.363   1_565 S
C526   O551    1.297   .     A
C526   O549    1.298   .     A
C527   O550    1.298   .     A
C527   O552    1.297   .     A
C528   F537    1.362   .     S
Cl533  N819    1.726   .     S
Cu535  N544    2.034   .     S
Cu535  O548    1.955   .     S
Cu535  O552    1.953   .     S
Cu535  O545    1.958   .     S
Cu535  O549    1.962   .     S
Cu535  Cu536   2.707   .     S
Cu536  O547    1.955   .     S
Cu536  O551    1.953   .     S
Cu536  O546    1.958   .     S
Cu536  O550    1.962   .     S
Cu536  N543    2.034   .     S
F539   C340    1.363   1_565 S
N544   N819    1.295   .     S
N544   Cl810   1.726   .     S
C553   C570    1.426   .     S
C553   O591    1.294   .     A
C553   O593    1.295   .     A
C554   C556    1.387   .     A
C554   F584    1.362   .     S
C554   C565    1.388   .     A
C555   C574    1.386   .     A
C555   C573    1.445   .     S
C555   C557    1.405   .     A
C556   C558    1.405   .     A
C556   C572    1.445   .     S
C557   Cl575   1.775   .     S
C557   C559    1.424   .     A
C558   Cl576   1.775   .     S
C558   C560    1.423   .     A
C559   C561    1.435   .     A
C559   C566    1.426   .     A
C560   C562    1.435   .     A
C560   C567    1.425   .     A
C561   C563    1.411   .     A
C561   C608    1.415   .     S
C562   C565    1.411   .     A
C562   C607    1.415   1_455 S
C563   C569    1.393   .     A
C563   C574    1.388   .     A
C564   O592    1.294   .     A
C564   C571    1.426   .     S
C564   O594    1.294   .     A
C565   C568    1.393   .     A
C566   Cl577   1.766   .     S
C566   C614    1.387   .     S
C567   Cl578   1.766   .     S
C567   C615    1.387   1_455 S
C568   H587    1.085   .     S
C568   C612    1.387   1_455 S
C569   H588    1.085   .     S
C569   C613    1.387   .     S
C570   C755    1.341   1_545 S
C570   F769    1.363   1_545 S
C571   C662    1.341   .     S
C571   F678    1.363   .     S
C572   O597    1.297   .     A
C572   O595    1.298   .     A
C573   O596    1.298   .     A
C573   O598    1.297   .     A
C574   F583    1.362   .     S
Cl579  N37     1.726   1_556 S
Cu581  N590    2.034   .     S
Cu581  O594    1.955   .     S
Cu581  O598    1.953   .     S
Cu581  O591    1.958   .     S
Cu581  O595    1.962   .     S
Cu581  Cu582   2.707   .     S
Cu582  O593    1.955   .     S
Cu582  O597    1.953   .     S
Cu582  O592    1.958   .     S
Cu582  O596    1.962   .     S
Cu582  N589    2.034   .     S
F585   C662    1.363   .     S
F586   C755    1.363   1_545 S
N590   N37     1.295   1_556 S
N590   Cl28    1.726   1_556 S
C599   C616    1.426   .     S
C599   O637    1.294   .     A
C599   O639    1.295   .     A
C600   C602    1.387   .     A
C600   F630    1.362   .     S
C600   C611    1.388   .     A
C601   C620    1.386   .     A
C601   C619    1.445   .     S
C601   C603    1.405   .     A
C602   C604    1.405   .     A
C602   C618    1.445   .     S
C603   Cl621   1.775   .     S
C603   C605    1.424   .     A
C604   Cl622   1.775   .     S
C604   C606    1.423   .     A
C605   C607    1.435   .     A
C605   C612    1.426   .     A
C606   C608    1.435   .     A
C606   C613    1.425   .     A
C607   C609    1.411   .     A
C607   C562    1.415   1_655 S
C608   C611    1.411   .     A
C609   C615    1.393   .     A
C609   C620    1.388   .     A
C610   O638    1.294   .     A
C610   C617    1.426   .     S
C610   O640    1.294   .     A
C611   C614    1.393   .     A
C612   Cl623   1.766   .     S
C612   C568    1.387   1_655 S
C613   Cl624   1.766   .     S
C614   H633    1.085   .     S
C615   H634    1.085   .     S
C615   C567    1.387   1_655 S
C616   C801    1.341   1_545 S
C616   F815    1.363   1_545 S
C617   C708    1.341   .     S
C617   F724    1.363   .     S
C618   O643    1.297   .     A
C618   O641    1.298   .     A
C619   O642    1.298   .     A
C619   O644    1.297   .     A
C620   F629    1.362   .     S
Cl625  N83     1.726   1_556 S
Cu627  N636    2.034   .     S
Cu627  O640    1.955   .     S
Cu627  O644    1.953   .     S
Cu627  O637    1.958   .     S
Cu627  O641    1.962   .     S
Cu627  Cu628   2.707   .     S
Cu628  O639    1.955   .     S
Cu628  O643    1.953   .     S
Cu628  O638    1.958   .     S
Cu628  O642    1.962   .     S
Cu628  N635    2.034   .     S
F631   C708    1.363   .     S
F632   C801    1.363   1_545 S
N636   N83     1.295   1_556 S
N636   Cl74    1.726   1_556 S
C645   C662    1.426   .     S
C645   O683    1.294   .     A
C645   O685    1.295   .     A
C646   C648    1.387   .     A
C646   F676    1.362   .     S
C646   C657    1.388   .     A
C647   C666    1.386   .     A
C647   C665    1.445   .     S
C647   C649    1.405   .     A
C648   C650    1.405   .     A
C648   C664    1.445   .     S
C649   Cl667   1.775   .     S
C649   C651    1.424   .     A
C650   Cl668   1.775   .     S
C650   C652    1.423   .     A
C651   C653    1.435   .     A
C651   C658    1.426   .     A
C652   C654    1.435   .     A
C652   C659    1.425   .     A
C653   C655    1.411   .     A
C653   C700    1.415   .     S
C654   C657    1.411   .     A
C654   C699    1.415   1_455 S
C655   C661    1.393   .     A
C655   C666    1.388   .     A
C656   O684    1.294   .     A
C656   C663    1.426   .     S
C656   O686    1.294   .     A
C657   C660    1.393   .     A
C658   Cl669   1.766   .     S
C658   C706    1.387   .     S
C659   Cl670   1.766   .     S
C659   C707    1.387   1_455 S
C660   H679    1.085   .     S
C660   C704    1.387   1_455 S
C661   H680    1.085   .     S
C661   C705    1.387   .     S
C663   C754    1.341   .     S
C663   F770    1.363   .     S
C664   O689    1.297   .     A
C664   O687    1.298   .     A
C665   O688    1.298   .     A
C665   O690    1.297   .     A
C666   F675    1.362   .     S
Cl671  N129    1.726   1_556 S
Cu673  N682    2.034   .     S
Cu673  O686    1.955   .     S
Cu673  O690    1.953   .     S
Cu673  O683    1.958   .     S
Cu673  O687    1.962   .     S
Cu673  Cu674   2.707   .     S
Cu674  O685    1.955   .     S
Cu674  O689    1.953   .     S
Cu674  O684    1.958   .     S
Cu674  O688    1.962   .     S
Cu674  N681    2.034   .     S
F677   C754    1.363   .     S
N682   N129    1.295   1_556 S
N682   Cl120   1.726   1_556 S
C691   C708    1.426   .     S
C691   O729    1.294   .     A
C691   O731    1.295   .     A
C692   C694    1.387   .     A
C692   F722    1.362   .     S
C692   C703    1.388   .     A
C693   C712    1.386   .     A
C693   C711    1.445   .     S
C693   C695    1.405   .     A
C694   C696    1.405   .     A
C694   C710    1.445   .     S
C695   Cl713   1.775   .     S
C695   C697    1.424   .     A
C696   Cl714   1.775   .     S
C696   C698    1.423   .     A
C697   C699    1.435   .     A
C697   C704    1.426   .     A
C698   C700    1.435   .     A
C698   C705    1.425   .     A
C699   C701    1.411   .     A
C699   C654    1.415   1_655 S
C700   C703    1.411   .     A
C701   C707    1.393   .     A
C701   C712    1.388   .     A
C702   O730    1.294   .     A
C702   C709    1.426   .     S
C702   O732    1.294   .     A
C703   C706    1.393   .     A
C704   Cl715   1.766   .     S
C704   C660    1.387   1_655 S
C705   Cl716   1.766   .     S
C706   H725    1.085   .     S
C707   H726    1.085   .     S
C707   C659    1.387   1_655 S
C709   C800    1.341   .     S
C709   F816    1.363   .     S
C710   O735    1.297   .     A
C710   O733    1.298   .     A
C711   O734    1.298   .     A
C711   O736    1.297   .     A
C712   F721    1.362   .     S
Cl717  N175    1.726   1_556 S
Cu719  N728    2.034   .     S
Cu719  O732    1.955   .     S
Cu719  O736    1.953   .     S
Cu719  O729    1.958   .     S
Cu719  O733    1.962   .     S
Cu719  Cu720   2.707   .     S
Cu720  O731    1.955   .     S
Cu720  O735    1.953   .     S
Cu720  O730    1.958   .     S
Cu720  O734    1.962   .     S
Cu720  N727    2.034   .     S
F723   C800    1.363   .     S
N728   N175    1.295   1_556 S
N728   Cl166   1.726   1_556 S
C737   C754    1.426   .     S
C737   O775    1.294   .     A
C737   O777    1.295   .     A
C738   C740    1.387   .     A
C738   F768    1.362   .     S
C738   C749    1.388   .     A
C739   C758    1.386   .     A
C739   C757    1.445   .     S
C739   C741    1.405   .     A
C740   C742    1.405   .     A
C740   C756    1.445   .     S
C741   Cl759   1.775   .     S
C741   C743    1.424   .     A
C742   Cl760   1.775   .     S
C742   C744    1.423   .     A
C743   C745    1.435   .     A
C743   C750    1.426   .     A
C744   C746    1.435   .     A
C744   C751    1.425   .     A
C745   C747    1.411   .     A
C745   C792    1.415   .     S
C746   C749    1.411   .     A
C746   C791    1.415   1_455 S
C747   C753    1.393   .     A
C747   C758    1.388   .     A
C748   O776    1.294   .     A
C748   C755    1.426   .     S
C748   O778    1.294   .     A
C749   C752    1.393   .     A
C750   Cl761   1.766   .     S
C750   C798    1.387   .     S
C751   Cl762   1.766   .     S
C751   C799    1.387   1_455 S
C752   H771    1.085   .     S
C752   C796    1.387   1_455 S
C753   H772    1.085   .     S
C753   C797    1.387   .     S
C755   C570    1.341   1_565 S
C755   F586    1.363   1_565 S
C756   O781    1.297   .     A
C756   O779    1.298   .     A
C757   O780    1.298   .     A
C757   O782    1.297   .     A
C758   F767    1.362   .     S
Cl763  N221    1.726   1_556 S
Cu765  N774    2.034   .     S
Cu765  O778    1.955   .     S
Cu765  O782    1.953   .     S
Cu765  O775    1.958   .     S
Cu765  O779    1.962   .     S
Cu765  Cu766   2.707   .     S
Cu766  O777    1.955   .     S
Cu766  O781    1.953   .     S
Cu766  O776    1.958   .     S
Cu766  O780    1.962   .     S
Cu766  N773    2.034   .     S
F769   C570    1.363   1_565 S
N774   N221    1.295   1_556 S
N774   Cl212   1.726   1_556 S
C783   C800    1.426   .     S
C783   O821    1.294   .     A
C783   O823    1.295   .     A
C784   C786    1.387   .     A
C784   F814    1.362   .     S
C784   C795    1.388   .     A
C785   C804    1.386   .     A
C785   C803    1.445   .     S
C785   C787    1.405   .     A
C786   C788    1.405   .     A
C786   C802    1.445   .     S
C787   Cl805   1.775   .     S
C787   C789    1.424   .     A
C788   Cl806   1.775   .     S
C788   C790    1.423   .     A
C789   C791    1.435   .     A
C789   C796    1.426   .     A
C790   C792    1.435   .     A
C790   C797    1.425   .     A
C791   C793    1.411   .     A
C791   C746    1.415   1_655 S
C792   C795    1.411   .     A
C793   C799    1.393   .     A
C793   C804    1.388   .     A
C794   O822    1.294   .     A
C794   C801    1.426   .     S
C794   O824    1.294   .     A
C795   C798    1.393   .     A
C796   Cl807   1.766   .     S
C796   C752    1.387   1_655 S
C797   Cl808   1.766   .     S
C798   H817    1.085   .     S
C799   H818    1.085   .     S
C799   C751    1.387   1_655 S
C801   C616    1.341   1_565 S
C801   F632    1.363   1_565 S
C802   O827    1.297   .     A
C802   O825    1.298   .     A
C803   O826    1.298   .     A
C803   O828    1.297   .     A
C804   F813    1.362   .     S
Cl809  N267    1.726   1_556 S
Cu811  N820    2.034   .     S
Cu811  O824    1.955   .     S
Cu811  O828    1.953   .     S
Cu811  O821    1.958   .     S
Cu811  O825    1.962   .     S
Cu811  Cu812   2.707   .     S
Cu812  O823    1.955   .     S
Cu812  O827    1.953   .     S
Cu812  O822    1.958   .     S
Cu812  O826    1.962   .     S
Cu812  N819    2.034   .     S
F815   C616    1.363   1_565 S
N820   N267    1.295   1_556 S
N820   Cl258   1.726   1_556 S
