data_str_m2_o10_o17_pcu_sym.117
_audit_creation_date              2020-01-03
_audit_creation_method            'Materials Studio'
_symmetry_space_group_name_H-M    'P1'
_symmetry_Int_Tables_number       1
_symmetry_cell_setting            triclinic
loop_
_symmetry_equiv_pos_as_xyz
  x,y,z
_cell_length_a                    30.0009
_cell_length_b                    25.9259
_cell_length_c                    22.3577
_cell_angle_alpha                 103.1497
_cell_angle_beta                  93.6308
_cell_angle_gamma                 91.0312
loop_
_atom_site_label
_atom_site_type_symbol
_atom_site_fract_x
_atom_site_fract_y
_atom_site_fract_z
_atom_site_U_iso_or_equiv
_atom_site_adp_type
_atom_site_occupancy
C1     C     0.24869   0.06659   0.15107   0.00000  Uiso   1.00
C2     C     0.25131   0.26674   0.18226   0.00000  Uiso   1.00
C3     C     0.01642   0.07249   0.10749   0.00000  Uiso   1.00
C4     C     0.48358   0.26085   0.22584   0.00000  Uiso   1.00
C5     C     0.24797   0.01055   0.14231   0.00000  Uiso   1.00
C6     C     0.25203   0.32279   0.19102   0.00000  Uiso   1.00
C7     C     0.16456   0.16574   0.16761   0.00000  Uiso   1.00
C8     C     0.33544   0.16759   0.16572   0.00000  Uiso   1.00
C9     C     0.40924   0.21307   0.20161   0.00000  Uiso   1.00
C10    C     0.09076   0.12027   0.13172   0.00000  Uiso   1.00
C11    C     0.38363   0.17029   0.16403   0.00000  Uiso   1.00
C12    C     0.11637   0.16305   0.16931   0.00000  Uiso   1.00
C13    C     0.40399   0.12735   0.12831   0.00000  Uiso   1.00
C14    C     0.09601   0.20599   0.20503   0.00000  Uiso   1.00
C15    C     0.45025   0.12463   0.13163   0.00000  Uiso   1.00
C16    C     0.04975   0.20870   0.20170   0.00000  Uiso   1.00
C17    C     0.47665   0.16820   0.16592   0.00000  Uiso   1.00
C18    C     0.02335   0.16514   0.16741   0.00000  Uiso   1.00
C19    C     0.45627   0.21475   0.19822   0.00000  Uiso   1.00
C20    C     0.04373   0.11858   0.13511   0.00000  Uiso   1.00
C21    C     0.46993   0.07772   0.10310   0.00000  Uiso   1.00
C22    C     0.03007   0.25562   0.23023   0.00000  Uiso   1.00
Cu23   Cu    0.25501   0.17246   0.22813   0.00000  Uiso   1.00
Cu24   Cu    0.24500   0.16087   0.10521   0.00000  Uiso   1.00
H25    H     0.38351   0.09416   0.10138   0.00000  Uiso   1.00
H26    H     0.11649   0.23918   0.23195   0.00000  Uiso   1.00
H27    H     0.44838   0.04454   0.07915   0.00000  Uiso   1.00
H28    H     0.05162   0.28879   0.25418   0.00000  Uiso   1.00
H29    H     0.24408   0.31990   0.09545   0.00000  Uiso   1.00
H30    H     0.25592   0.01343   0.23789   0.00000  Uiso   1.00
H31    H     0.21531   0.12637   0.31626   0.00000  Uiso   1.00
H32    H     0.28469   0.20696   0.01708   0.00000  Uiso   1.00
N33    N     0.23745   0.15214   0.01284   0.00000  Uiso   1.00
N34    N     0.26256   0.18119   0.32049   0.00000  Uiso   1.00
O35    O     0.25326   0.09538   0.20659   0.00000  Uiso   1.00
O36    O     0.24675   0.23796   0.12674   0.00000  Uiso   1.00
O37    O     0.24480   0.08559   0.10279   0.00000  Uiso   1.00
O38    O     0.25520   0.24774   0.23055   0.00000  Uiso   1.00
O39    O     0.18936   0.17155   0.21857   0.00000  Uiso   1.00
O40    O     0.31065   0.16179   0.11476   0.00000  Uiso   1.00
O41    O     0.18090   0.16176   0.11477   0.00000  Uiso   1.00
O42    O     0.31910   0.17157   0.21857   0.00000  Uiso   1.00
N43    N     0.38812   0.25196   0.24562   0.00000  Uiso   1.00
H44    H     0.35700   0.26292   0.23167   0.00000  Uiso   1.00
C45    C     0.39105   0.24349   0.30765   0.00000  Uiso   1.00
H46    H     0.37920   0.27893   0.00657   0.00000  Uiso   1.00
H47    H     0.42609   0.23691   0.32243   0.00000  Uiso   1.00
H48    H     0.37022   0.20847   0.31047   0.00000  Uiso   1.00
N49    N     0.11188   0.08137   0.08771   0.00000  Uiso   1.00
H50    H     0.14300   0.07041   0.10166   0.00000  Uiso   1.00
C51    C     0.10895   0.08985   0.02568   0.00000  Uiso   1.00
H52    H     0.12082   0.05443   0.32676   0.00000  Uiso   1.00
H53    H     0.12977   0.12488   0.02288   0.00000  Uiso   1.00
H54    H     0.07392   0.09641   0.01089   0.00000  Uiso   1.00
C55    C     0.03638   0.01748   0.08878   0.00000  Uiso   1.00
C56    C     0.00404   0.30304   0.08087   0.00000  Uiso   1.00
H57    H     0.48263   0.30720   0.12003   0.00000  Uiso   1.00
H58    H     0.48273   0.29839   0.03779   0.00000  Uiso   1.00
H59    H     0.02322   0.26638   0.07779   0.00000  Uiso   1.00
H60    H     0.05256   0.01316   0.04492   0.00000  Uiso   1.00
H61    H     0.06241   0.01358   0.12499   0.00000  Uiso   1.00
C62    C     0.46362   0.31585   0.24455   0.00000  Uiso   1.00
C63    C     0.49596   0.03029   0.25246   0.00000  Uiso   1.00
H64    H     0.01727   0.03495   0.29554   0.00000  Uiso   1.00
H65    H     0.01737   0.02613   0.21330   0.00000  Uiso   1.00
H66    H     0.47678   0.06695   0.25553   0.00000  Uiso   1.00
H67    H     0.43759   0.31975   0.20833   0.00000  Uiso   1.00
H68    H     0.44744   0.32017   0.28841   0.00000  Uiso   1.00
C69    C     0.74869   0.06659   0.15107   0.00000  Uiso   1.00
C70    C     0.75131   0.26674   0.18226   0.00000  Uiso   1.00
C71    C     0.51642   0.07249   0.10749   0.00000  Uiso   1.00
C72    C     0.98358   0.26085   0.22584   0.00000  Uiso   1.00
C73    C     0.74797   0.01055   0.14231   0.00000  Uiso   1.00
C74    C     0.75203   0.32279   0.19102   0.00000  Uiso   1.00
C75    C     0.66456   0.16574   0.16761   0.00000  Uiso   1.00
C76    C     0.83544   0.16759   0.16572   0.00000  Uiso   1.00
C77    C     0.90924   0.21307   0.20161   0.00000  Uiso   1.00
C78    C     0.59076   0.12027   0.13172   0.00000  Uiso   1.00
C79    C     0.88363   0.17029   0.16403   0.00000  Uiso   1.00
C80    C     0.61637   0.16305   0.16931   0.00000  Uiso   1.00
C81    C     0.90399   0.12735   0.12831   0.00000  Uiso   1.00
C82    C     0.59601   0.20599   0.20503   0.00000  Uiso   1.00
C83    C     0.95025   0.12463   0.13163   0.00000  Uiso   1.00
C84    C     0.54975   0.20870   0.20170   0.00000  Uiso   1.00
C85    C     0.97665   0.16820   0.16592   0.00000  Uiso   1.00
C86    C     0.52335   0.16514   0.16741   0.00000  Uiso   1.00
C87    C     0.95627   0.21475   0.19822   0.00000  Uiso   1.00
C88    C     0.54373   0.11858   0.13511   0.00000  Uiso   1.00
C89    C     0.96993   0.07772   0.10310   0.00000  Uiso   1.00
C90    C     0.53007   0.25562   0.23023   0.00000  Uiso   1.00
Cu91   Cu    0.75501   0.17246   0.22813   0.00000  Uiso   1.00
Cu92   Cu    0.74500   0.16087   0.10521   0.00000  Uiso   1.00
H93    H     0.88351   0.09416   0.10138   0.00000  Uiso   1.00
H94    H     0.61649   0.23918   0.23195   0.00000  Uiso   1.00
H95    H     0.94838   0.04454   0.07915   0.00000  Uiso   1.00
H96    H     0.55162   0.28879   0.25418   0.00000  Uiso   1.00
H97    H     0.74408   0.31990   0.09545   0.00000  Uiso   1.00
H98    H     0.75592   0.01343   0.23789   0.00000  Uiso   1.00
H99    H     0.71531   0.12637   0.31626   0.00000  Uiso   1.00
H100   H     0.78469   0.20696   0.01708   0.00000  Uiso   1.00
N101   N     0.73745   0.15214   0.01284   0.00000  Uiso   1.00
N102   N     0.76256   0.18119   0.32049   0.00000  Uiso   1.00
O103   O     0.75326   0.09538   0.20659   0.00000  Uiso   1.00
O104   O     0.74675   0.23796   0.12674   0.00000  Uiso   1.00
O105   O     0.74480   0.08559   0.10279   0.00000  Uiso   1.00
O106   O     0.75520   0.24774   0.23055   0.00000  Uiso   1.00
O107   O     0.68936   0.17155   0.21857   0.00000  Uiso   1.00
O108   O     0.81065   0.16179   0.11476   0.00000  Uiso   1.00
O109   O     0.68090   0.16176   0.11477   0.00000  Uiso   1.00
O110   O     0.81910   0.17157   0.21857   0.00000  Uiso   1.00
N111   N     0.88812   0.25196   0.24562   0.00000  Uiso   1.00
H112   H     0.85700   0.26292   0.23167   0.00000  Uiso   1.00
C113   C     0.89105   0.24349   0.30765   0.00000  Uiso   1.00
H114   H     0.87920   0.27893   0.00657   0.00000  Uiso   1.00
H115   H     0.92609   0.23691   0.32243   0.00000  Uiso   1.00
H116   H     0.87022   0.20847   0.31047   0.00000  Uiso   1.00
N117   N     0.61188   0.08137   0.08771   0.00000  Uiso   1.00
H118   H     0.64300   0.07041   0.10166   0.00000  Uiso   1.00
C119   C     0.60895   0.08985   0.02568   0.00000  Uiso   1.00
H120   H     0.62082   0.05443   0.32676   0.00000  Uiso   1.00
H121   H     0.62977   0.12488   0.02288   0.00000  Uiso   1.00
H122   H     0.57392   0.09641   0.01089   0.00000  Uiso   1.00
C123   C     0.53638   0.01748   0.08878   0.00000  Uiso   1.00
C124   C     0.50404   0.30304   0.08087   0.00000  Uiso   1.00
H125   H     0.98263   0.30720   0.12003   0.00000  Uiso   1.00
H126   H     0.98273   0.29839   0.03779   0.00000  Uiso   1.00
H127   H     0.52322   0.26638   0.07779   0.00000  Uiso   1.00
H128   H     0.55256   0.01316   0.04492   0.00000  Uiso   1.00
H129   H     0.56241   0.01358   0.12499   0.00000  Uiso   1.00
C130   C     0.96362   0.31585   0.24455   0.00000  Uiso   1.00
C131   C     0.99596   0.03029   0.25246   0.00000  Uiso   1.00
H132   H     0.51727   0.03495   0.29554   0.00000  Uiso   1.00
H133   H     0.51737   0.02613   0.21330   0.00000  Uiso   1.00
H134   H     0.97678   0.06695   0.25553   0.00000  Uiso   1.00
H135   H     0.93759   0.31975   0.20833   0.00000  Uiso   1.00
H136   H     0.94744   0.32017   0.28841   0.00000  Uiso   1.00
C137   C     0.24869   0.39992   0.15107   0.00000  Uiso   1.00
C138   C     0.25131   0.60008   0.18226   0.00000  Uiso   1.00
C139   C     0.01642   0.40582   0.10749   0.00000  Uiso   1.00
C140   C     0.48358   0.59418   0.22584   0.00000  Uiso   1.00
C141   C     0.24797   0.34388   0.14231   0.00000  Uiso   1.00
C142   C     0.25203   0.65612   0.19102   0.00000  Uiso   1.00
C143   C     0.16456   0.49907   0.16761   0.00000  Uiso   1.00
C144   C     0.33544   0.50093   0.16572   0.00000  Uiso   1.00
C145   C     0.40924   0.54640   0.20161   0.00000  Uiso   1.00
C146   C     0.09076   0.45360   0.13172   0.00000  Uiso   1.00
C147   C     0.38363   0.50362   0.16403   0.00000  Uiso   1.00
C148   C     0.11637   0.49638   0.16931   0.00000  Uiso   1.00
C149   C     0.40399   0.46068   0.12831   0.00000  Uiso   1.00
C150   C     0.09601   0.53932   0.20503   0.00000  Uiso   1.00
C151   C     0.45025   0.45796   0.13163   0.00000  Uiso   1.00
C152   C     0.04975   0.54204   0.20170   0.00000  Uiso   1.00
C153   C     0.47665   0.50153   0.16592   0.00000  Uiso   1.00
C154   C     0.02335   0.49847   0.16741   0.00000  Uiso   1.00
C155   C     0.45627   0.54808   0.19822   0.00000  Uiso   1.00
C156   C     0.04373   0.45192   0.13511   0.00000  Uiso   1.00
C157   C     0.46993   0.41105   0.10310   0.00000  Uiso   1.00
C158   C     0.03007   0.58895   0.23023   0.00000  Uiso   1.00
Cu159  Cu    0.25501   0.50579   0.22813   0.00000  Uiso   1.00
Cu160  Cu    0.24500   0.49421   0.10521   0.00000  Uiso   1.00
H161   H     0.38351   0.42749   0.10138   0.00000  Uiso   1.00
H162   H     0.11649   0.57251   0.23195   0.00000  Uiso   1.00
H163   H     0.44838   0.37787   0.07915   0.00000  Uiso   1.00
H164   H     0.05162   0.62213   0.25418   0.00000  Uiso   1.00
H165   H     0.24408   0.65324   0.09545   0.00000  Uiso   1.00
H166   H     0.25592   0.34676   0.23789   0.00000  Uiso   1.00
H167   H     0.21531   0.45971   0.31626   0.00000  Uiso   1.00
H168   H     0.28469   0.54029   0.01708   0.00000  Uiso   1.00
N169   N     0.23745   0.48547   0.01284   0.00000  Uiso   1.00
N170   N     0.26256   0.51453   0.32049   0.00000  Uiso   1.00
O171   O     0.25326   0.42871   0.20659   0.00000  Uiso   1.00
O172   O     0.24675   0.57129   0.12674   0.00000  Uiso   1.00
O173   O     0.24480   0.41892   0.10279   0.00000  Uiso   1.00
O174   O     0.25520   0.58108   0.23055   0.00000  Uiso   1.00
O175   O     0.18936   0.50488   0.21857   0.00000  Uiso   1.00
O176   O     0.31065   0.49512   0.11476   0.00000  Uiso   1.00
O177   O     0.18090   0.49510   0.11477   0.00000  Uiso   1.00
O178   O     0.31910   0.50490   0.21857   0.00000  Uiso   1.00
N179   N     0.38812   0.58529   0.24562   0.00000  Uiso   1.00
H180   H     0.35700   0.59626   0.23167   0.00000  Uiso   1.00
C181   C     0.39105   0.57682   0.30765   0.00000  Uiso   1.00
H182   H     0.37920   0.61226   0.00657   0.00000  Uiso   1.00
H183   H     0.42609   0.57025   0.32243   0.00000  Uiso   1.00
H184   H     0.37022   0.54180   0.31047   0.00000  Uiso   1.00
N185   N     0.11188   0.41471   0.08771   0.00000  Uiso   1.00
H186   H     0.14300   0.40374   0.10166   0.00000  Uiso   1.00
C187   C     0.10895   0.42318   0.02568   0.00000  Uiso   1.00
H188   H     0.12082   0.38776   0.32676   0.00000  Uiso   1.00
H189   H     0.12977   0.45821   0.02288   0.00000  Uiso   1.00
H190   H     0.07392   0.42975   0.01089   0.00000  Uiso   1.00
C191   C     0.03638   0.35081   0.08878   0.00000  Uiso   1.00
C192   C     0.00404   0.63637   0.08087   0.00000  Uiso   1.00
H193   H     0.48263   0.64053   0.12003   0.00000  Uiso   1.00
H194   H     0.48273   0.63172   0.03779   0.00000  Uiso   1.00
H195   H     0.02322   0.59971   0.07779   0.00000  Uiso   1.00
H196   H     0.05256   0.34650   0.04492   0.00000  Uiso   1.00
H197   H     0.06241   0.34691   0.12499   0.00000  Uiso   1.00
C198   C     0.46362   0.64919   0.24455   0.00000  Uiso   1.00
C199   C     0.49596   0.36363   0.25246   0.00000  Uiso   1.00
H200   H     0.01727   0.36828   0.29554   0.00000  Uiso   1.00
H201   H     0.01737   0.35947   0.21330   0.00000  Uiso   1.00
H202   H     0.47678   0.40029   0.25553   0.00000  Uiso   1.00
H203   H     0.43759   0.65309   0.20833   0.00000  Uiso   1.00
H204   H     0.44744   0.65350   0.28841   0.00000  Uiso   1.00
C205   C     0.74869   0.39992   0.15107   0.00000  Uiso   1.00
C206   C     0.75131   0.60008   0.18226   0.00000  Uiso   1.00
C207   C     0.51642   0.40582   0.10749   0.00000  Uiso   1.00
C208   C     0.98358   0.59418   0.22584   0.00000  Uiso   1.00
C209   C     0.74797   0.34388   0.14231   0.00000  Uiso   1.00
C210   C     0.75203   0.65612   0.19102   0.00000  Uiso   1.00
C211   C     0.66456   0.49907   0.16761   0.00000  Uiso   1.00
C212   C     0.83544   0.50093   0.16572   0.00000  Uiso   1.00
C213   C     0.90924   0.54640   0.20161   0.00000  Uiso   1.00
C214   C     0.59076   0.45360   0.13172   0.00000  Uiso   1.00
C215   C     0.88363   0.50362   0.16403   0.00000  Uiso   1.00
C216   C     0.61637   0.49638   0.16931   0.00000  Uiso   1.00
C217   C     0.90399   0.46068   0.12831   0.00000  Uiso   1.00
C218   C     0.59601   0.53932   0.20503   0.00000  Uiso   1.00
C219   C     0.95025   0.45796   0.13163   0.00000  Uiso   1.00
C220   C     0.54975   0.54204   0.20170   0.00000  Uiso   1.00
C221   C     0.97665   0.50153   0.16592   0.00000  Uiso   1.00
C222   C     0.52335   0.49847   0.16741   0.00000  Uiso   1.00
C223   C     0.95627   0.54808   0.19822   0.00000  Uiso   1.00
C224   C     0.54373   0.45192   0.13511   0.00000  Uiso   1.00
C225   C     0.96993   0.41105   0.10310   0.00000  Uiso   1.00
C226   C     0.53007   0.58895   0.23023   0.00000  Uiso   1.00
Cu227  Cu    0.75501   0.50579   0.22813   0.00000  Uiso   1.00
Cu228  Cu    0.74500   0.49421   0.10521   0.00000  Uiso   1.00
H229   H     0.88351   0.42749   0.10138   0.00000  Uiso   1.00
H230   H     0.61649   0.57251   0.23195   0.00000  Uiso   1.00
H231   H     0.94838   0.37787   0.07915   0.00000  Uiso   1.00
H232   H     0.55162   0.62213   0.25418   0.00000  Uiso   1.00
H233   H     0.74408   0.65324   0.09545   0.00000  Uiso   1.00
H234   H     0.75592   0.34676   0.23789   0.00000  Uiso   1.00
H235   H     0.71531   0.45971   0.31626   0.00000  Uiso   1.00
H236   H     0.78469   0.54029   0.01708   0.00000  Uiso   1.00
N237   N     0.73745   0.48547   0.01284   0.00000  Uiso   1.00
N238   N     0.76256   0.51453   0.32049   0.00000  Uiso   1.00
O239   O     0.75326   0.42871   0.20659   0.00000  Uiso   1.00
O240   O     0.74675   0.57129   0.12674   0.00000  Uiso   1.00
O241   O     0.74480   0.41892   0.10279   0.00000  Uiso   1.00
O242   O     0.75520   0.58108   0.23055   0.00000  Uiso   1.00
O243   O     0.68936   0.50488   0.21857   0.00000  Uiso   1.00
O244   O     0.81065   0.49512   0.11476   0.00000  Uiso   1.00
O245   O     0.68090   0.49510   0.11477   0.00000  Uiso   1.00
O246   O     0.81910   0.50490   0.21857   0.00000  Uiso   1.00
N247   N     0.88812   0.58529   0.24562   0.00000  Uiso   1.00
H248   H     0.85700   0.59626   0.23167   0.00000  Uiso   1.00
C249   C     0.89105   0.57682   0.30765   0.00000  Uiso   1.00
H250   H     0.87920   0.61226   0.00657   0.00000  Uiso   1.00
H251   H     0.92609   0.57025   0.32243   0.00000  Uiso   1.00
H252   H     0.87022   0.54180   0.31047   0.00000  Uiso   1.00
N253   N     0.61188   0.41471   0.08771   0.00000  Uiso   1.00
H254   H     0.64300   0.40374   0.10166   0.00000  Uiso   1.00
C255   C     0.60895   0.42318   0.02568   0.00000  Uiso   1.00
H256   H     0.62082   0.38776   0.32676   0.00000  Uiso   1.00
H257   H     0.62977   0.45821   0.02288   0.00000  Uiso   1.00
H258   H     0.57392   0.42975   0.01089   0.00000  Uiso   1.00
C259   C     0.53638   0.35081   0.08878   0.00000  Uiso   1.00
C260   C     0.50404   0.63637   0.08087   0.00000  Uiso   1.00
H261   H     0.98263   0.64053   0.12003   0.00000  Uiso   1.00
H262   H     0.98273   0.63172   0.03779   0.00000  Uiso   1.00
H263   H     0.52322   0.59971   0.07779   0.00000  Uiso   1.00
H264   H     0.55256   0.34650   0.04492   0.00000  Uiso   1.00
H265   H     0.56241   0.34691   0.12499   0.00000  Uiso   1.00
C266   C     0.96362   0.64919   0.24455   0.00000  Uiso   1.00
C267   C     0.99596   0.36363   0.25246   0.00000  Uiso   1.00
H268   H     0.51727   0.36828   0.29554   0.00000  Uiso   1.00
H269   H     0.51737   0.35947   0.21330   0.00000  Uiso   1.00
H270   H     0.97678   0.40029   0.25553   0.00000  Uiso   1.00
H271   H     0.93759   0.65309   0.20833   0.00000  Uiso   1.00
H272   H     0.94744   0.65350   0.28841   0.00000  Uiso   1.00
C273   C     0.24869   0.73326   0.15107   0.00000  Uiso   1.00
C274   C     0.25131   0.93341   0.18226   0.00000  Uiso   1.00
C275   C     0.01642   0.73915   0.10749   0.00000  Uiso   1.00
C276   C     0.48358   0.92751   0.22584   0.00000  Uiso   1.00
C277   C     0.24797   0.67721   0.14231   0.00000  Uiso   1.00
C278   C     0.25203   0.98945   0.19102   0.00000  Uiso   1.00
C279   C     0.16456   0.83241   0.16761   0.00000  Uiso   1.00
C280   C     0.33544   0.83426   0.16572   0.00000  Uiso   1.00
C281   C     0.40924   0.87973   0.20161   0.00000  Uiso   1.00
C282   C     0.09076   0.78693   0.13172   0.00000  Uiso   1.00
C283   C     0.38363   0.83695   0.16403   0.00000  Uiso   1.00
C284   C     0.11637   0.82971   0.16931   0.00000  Uiso   1.00
C285   C     0.40399   0.79401   0.12831   0.00000  Uiso   1.00
C286   C     0.09601   0.87265   0.20503   0.00000  Uiso   1.00
C287   C     0.45025   0.79129   0.13163   0.00000  Uiso   1.00
C288   C     0.04975   0.87537   0.20170   0.00000  Uiso   1.00
C289   C     0.47665   0.83486   0.16592   0.00000  Uiso   1.00
C290   C     0.02335   0.83180   0.16741   0.00000  Uiso   1.00
C291   C     0.45627   0.88142   0.19822   0.00000  Uiso   1.00
C292   C     0.04373   0.78525   0.13511   0.00000  Uiso   1.00
C293   C     0.46993   0.74438   0.10310   0.00000  Uiso   1.00
C294   C     0.03007   0.92228   0.23023   0.00000  Uiso   1.00
Cu295  Cu    0.25501   0.83913   0.22813   0.00000  Uiso   1.00
Cu296  Cu    0.24500   0.82754   0.10521   0.00000  Uiso   1.00
H297   H     0.38351   0.76082   0.10138   0.00000  Uiso   1.00
H298   H     0.11649   0.90584   0.23195   0.00000  Uiso   1.00
H299   H     0.44838   0.71121   0.07915   0.00000  Uiso   1.00
H300   H     0.05162   0.95546   0.25418   0.00000  Uiso   1.00
H301   H     0.24408   0.98657   0.09545   0.00000  Uiso   1.00
H302   H     0.25592   0.68010   0.23789   0.00000  Uiso   1.00
H303   H     0.21531   0.79304   0.31626   0.00000  Uiso   1.00
H304   H     0.28469   0.87363   0.01708   0.00000  Uiso   1.00
N305   N     0.23745   0.81881   0.01284   0.00000  Uiso   1.00
N306   N     0.26256   0.84786   0.32049   0.00000  Uiso   1.00
O307   O     0.25326   0.76204   0.20659   0.00000  Uiso   1.00
O308   O     0.24675   0.90462   0.12674   0.00000  Uiso   1.00
O309   O     0.24480   0.75226   0.10279   0.00000  Uiso   1.00
O310   O     0.25520   0.91441   0.23055   0.00000  Uiso   1.00
O311   O     0.18936   0.83821   0.21857   0.00000  Uiso   1.00
O312   O     0.31065   0.82845   0.11476   0.00000  Uiso   1.00
O313   O     0.18090   0.82843   0.11477   0.00000  Uiso   1.00
O314   O     0.31910   0.83824   0.21857   0.00000  Uiso   1.00
N315   N     0.38812   0.91863   0.24562   0.00000  Uiso   1.00
H316   H     0.35700   0.92959   0.23167   0.00000  Uiso   1.00
C317   C     0.39105   0.91016   0.30765   0.00000  Uiso   1.00
H318   H     0.37920   0.94560   0.00657   0.00000  Uiso   1.00
H319   H     0.42609   0.90358   0.32243   0.00000  Uiso   1.00
H320   H     0.37022   0.87514   0.31047   0.00000  Uiso   1.00
N321   N     0.11188   0.74804   0.08771   0.00000  Uiso   1.00
H322   H     0.14300   0.73708   0.10166   0.00000  Uiso   1.00
C323   C     0.10895   0.75652   0.02568   0.00000  Uiso   1.00
H324   H     0.12082   0.72110   0.32676   0.00000  Uiso   1.00
H325   H     0.12977   0.79155   0.02288   0.00000  Uiso   1.00
H326   H     0.07392   0.76308   0.01089   0.00000  Uiso   1.00
C327   C     0.03638   0.68415   0.08878   0.00000  Uiso   1.00
C328   C     0.00404   0.96971   0.08087   0.00000  Uiso   1.00
H329   H     0.48263   0.97387   0.12003   0.00000  Uiso   1.00
H330   H     0.48273   0.96505   0.03779   0.00000  Uiso   1.00
H331   H     0.02322   0.93305   0.07779   0.00000  Uiso   1.00
H332   H     0.05256   0.67983   0.04492   0.00000  Uiso   1.00
H333   H     0.06241   0.68024   0.12499   0.00000  Uiso   1.00
C334   C     0.46362   0.98252   0.24455   0.00000  Uiso   1.00
C335   C     0.49596   0.69696   0.25246   0.00000  Uiso   1.00
H336   H     0.01727   0.70161   0.29554   0.00000  Uiso   1.00
H337   H     0.01737   0.69280   0.21330   0.00000  Uiso   1.00
H338   H     0.47678   0.73362   0.25553   0.00000  Uiso   1.00
H339   H     0.43759   0.98642   0.20833   0.00000  Uiso   1.00
H340   H     0.44744   0.98684   0.28841   0.00000  Uiso   1.00
C341   C     0.74869   0.73326   0.15107   0.00000  Uiso   1.00
C342   C     0.75131   0.93341   0.18226   0.00000  Uiso   1.00
C343   C     0.51642   0.73915   0.10749   0.00000  Uiso   1.00
C344   C     0.98358   0.92751   0.22584   0.00000  Uiso   1.00
C345   C     0.74797   0.67721   0.14231   0.00000  Uiso   1.00
C346   C     0.75203   0.98945   0.19102   0.00000  Uiso   1.00
C347   C     0.66456   0.83241   0.16761   0.00000  Uiso   1.00
C348   C     0.83544   0.83426   0.16572   0.00000  Uiso   1.00
C349   C     0.90924   0.87973   0.20161   0.00000  Uiso   1.00
C350   C     0.59076   0.78693   0.13172   0.00000  Uiso   1.00
C351   C     0.88363   0.83695   0.16403   0.00000  Uiso   1.00
C352   C     0.61637   0.82971   0.16931   0.00000  Uiso   1.00
C353   C     0.90399   0.79401   0.12831   0.00000  Uiso   1.00
C354   C     0.59601   0.87265   0.20503   0.00000  Uiso   1.00
C355   C     0.95025   0.79129   0.13163   0.00000  Uiso   1.00
C356   C     0.54975   0.87537   0.20170   0.00000  Uiso   1.00
C357   C     0.97665   0.83486   0.16592   0.00000  Uiso   1.00
C358   C     0.52335   0.83180   0.16741   0.00000  Uiso   1.00
C359   C     0.95627   0.88142   0.19822   0.00000  Uiso   1.00
C360   C     0.54373   0.78525   0.13511   0.00000  Uiso   1.00
C361   C     0.96993   0.74438   0.10310   0.00000  Uiso   1.00
C362   C     0.53007   0.92228   0.23023   0.00000  Uiso   1.00
Cu363  Cu    0.75501   0.83913   0.22813   0.00000  Uiso   1.00
Cu364  Cu    0.74500   0.82754   0.10521   0.00000  Uiso   1.00
H365   H     0.88351   0.76082   0.10138   0.00000  Uiso   1.00
H366   H     0.61649   0.90584   0.23195   0.00000  Uiso   1.00
H367   H     0.94838   0.71121   0.07915   0.00000  Uiso   1.00
H368   H     0.55162   0.95546   0.25418   0.00000  Uiso   1.00
H369   H     0.74408   0.98657   0.09545   0.00000  Uiso   1.00
H370   H     0.75592   0.68010   0.23789   0.00000  Uiso   1.00
H371   H     0.71531   0.79304   0.31626   0.00000  Uiso   1.00
H372   H     0.78469   0.87363   0.01708   0.00000  Uiso   1.00
N373   N     0.73745   0.81881   0.01284   0.00000  Uiso   1.00
N374   N     0.76256   0.84786   0.32049   0.00000  Uiso   1.00
O375   O     0.75326   0.76204   0.20659   0.00000  Uiso   1.00
O376   O     0.74675   0.90462   0.12674   0.00000  Uiso   1.00
O377   O     0.74480   0.75226   0.10279   0.00000  Uiso   1.00
O378   O     0.75520   0.91441   0.23055   0.00000  Uiso   1.00
O379   O     0.68936   0.83821   0.21857   0.00000  Uiso   1.00
O380   O     0.81065   0.82845   0.11476   0.00000  Uiso   1.00
O381   O     0.68090   0.82843   0.11477   0.00000  Uiso   1.00
O382   O     0.81910   0.83824   0.21857   0.00000  Uiso   1.00
N383   N     0.88812   0.91863   0.24562   0.00000  Uiso   1.00
H384   H     0.85700   0.92959   0.23167   0.00000  Uiso   1.00
C385   C     0.89105   0.91016   0.30765   0.00000  Uiso   1.00
H386   H     0.87920   0.94560   0.00657   0.00000  Uiso   1.00
H387   H     0.92609   0.90358   0.32243   0.00000  Uiso   1.00
H388   H     0.87022   0.87514   0.31047   0.00000  Uiso   1.00
N389   N     0.61188   0.74804   0.08771   0.00000  Uiso   1.00
H390   H     0.64300   0.73708   0.10166   0.00000  Uiso   1.00
C391   C     0.60895   0.75652   0.02568   0.00000  Uiso   1.00
H392   H     0.62082   0.72110   0.32676   0.00000  Uiso   1.00
H393   H     0.62977   0.79155   0.02288   0.00000  Uiso   1.00
H394   H     0.57392   0.76308   0.01089   0.00000  Uiso   1.00
C395   C     0.53638   0.68415   0.08878   0.00000  Uiso   1.00
C396   C     0.50404   0.96971   0.08087   0.00000  Uiso   1.00
H397   H     0.98263   0.97387   0.12003   0.00000  Uiso   1.00
H398   H     0.98273   0.96505   0.03779   0.00000  Uiso   1.00
H399   H     0.52322   0.93305   0.07779   0.00000  Uiso   1.00
H400   H     0.55256   0.67983   0.04492   0.00000  Uiso   1.00
H401   H     0.56241   0.68024   0.12499   0.00000  Uiso   1.00
C402   C     0.96362   0.98252   0.24455   0.00000  Uiso   1.00
C403   C     0.99596   0.69696   0.25246   0.00000  Uiso   1.00
H404   H     0.51727   0.70161   0.29554   0.00000  Uiso   1.00
H405   H     0.51737   0.69280   0.21330   0.00000  Uiso   1.00
H406   H     0.97678   0.73362   0.25553   0.00000  Uiso   1.00
H407   H     0.93759   0.98642   0.20833   0.00000  Uiso   1.00
H408   H     0.94744   0.98684   0.28841   0.00000  Uiso   1.00
C409   C     0.24869   0.06659   0.48440   0.00000  Uiso   1.00
C410   C     0.25131   0.26674   0.51560   0.00000  Uiso   1.00
C411   C     0.01642   0.07249   0.44083   0.00000  Uiso   1.00
C412   C     0.48358   0.26085   0.55917   0.00000  Uiso   1.00
C413   C     0.24797   0.01055   0.47565   0.00000  Uiso   1.00
C414   C     0.25203   0.32279   0.52435   0.00000  Uiso   1.00
C415   C     0.16456   0.16574   0.50095   0.00000  Uiso   1.00
C416   C     0.33544   0.16759   0.49905   0.00000  Uiso   1.00
C417   C     0.40924   0.21307   0.53495   0.00000  Uiso   1.00
C418   C     0.09076   0.12027   0.46505   0.00000  Uiso   1.00
C419   C     0.38363   0.17029   0.49736   0.00000  Uiso   1.00
C420   C     0.11637   0.16305   0.50264   0.00000  Uiso   1.00
C421   C     0.40399   0.12735   0.46164   0.00000  Uiso   1.00
C422   C     0.09601   0.20599   0.53836   0.00000  Uiso   1.00
C423   C     0.45025   0.12463   0.46496   0.00000  Uiso   1.00
C424   C     0.04975   0.20870   0.53504   0.00000  Uiso   1.00
C425   C     0.47665   0.16820   0.49925   0.00000  Uiso   1.00
C426   C     0.02335   0.16514   0.50075   0.00000  Uiso   1.00
C427   C     0.45627   0.21475   0.53155   0.00000  Uiso   1.00
C428   C     0.04373   0.11858   0.46844   0.00000  Uiso   1.00
C429   C     0.46993   0.07772   0.43643   0.00000  Uiso   1.00
C430   C     0.03007   0.25562   0.56356   0.00000  Uiso   1.00
Cu431  Cu    0.25501   0.17246   0.56146   0.00000  Uiso   1.00
Cu432  Cu    0.24500   0.16087   0.43854   0.00000  Uiso   1.00
H433   H     0.38351   0.09416   0.43471   0.00000  Uiso   1.00
H434   H     0.11649   0.23918   0.56529   0.00000  Uiso   1.00
H435   H     0.44838   0.04454   0.41248   0.00000  Uiso   1.00
H436   H     0.05162   0.28879   0.58752   0.00000  Uiso   1.00
H437   H     0.24408   0.31990   0.42878   0.00000  Uiso   1.00
H438   H     0.25592   0.01343   0.57122   0.00000  Uiso   1.00
H439   H     0.21531   0.12637   0.64959   0.00000  Uiso   1.00
H440   H     0.28469   0.20696   0.35041   0.00000  Uiso   1.00
N441   N     0.23745   0.15214   0.34617   0.00000  Uiso   1.00
N442   N     0.26256   0.18119   0.65383   0.00000  Uiso   1.00
O443   O     0.25326   0.09538   0.53992   0.00000  Uiso   1.00
O444   O     0.24675   0.23796   0.46008   0.00000  Uiso   1.00
O445   O     0.24480   0.08559   0.43612   0.00000  Uiso   1.00
O446   O     0.25520   0.24774   0.56388   0.00000  Uiso   1.00
O447   O     0.18936   0.17155   0.55191   0.00000  Uiso   1.00
O448   O     0.31065   0.16179   0.44809   0.00000  Uiso   1.00
O449   O     0.18090   0.16176   0.44810   0.00000  Uiso   1.00
O450   O     0.31910   0.17157   0.55190   0.00000  Uiso   1.00
N451   N     0.38812   0.25196   0.57896   0.00000  Uiso   1.00
H452   H     0.35700   0.26292   0.56500   0.00000  Uiso   1.00
C453   C     0.39105   0.24349   0.64099   0.00000  Uiso   1.00
H454   H     0.37920   0.27893   0.33991   0.00000  Uiso   1.00
H455   H     0.42609   0.23691   0.65577   0.00000  Uiso   1.00
H456   H     0.37022   0.20847   0.64380   0.00000  Uiso   1.00
N457   N     0.11188   0.08137   0.42104   0.00000  Uiso   1.00
H458   H     0.14300   0.07041   0.43500   0.00000  Uiso   1.00
C459   C     0.10895   0.08985   0.35901   0.00000  Uiso   1.00
H460   H     0.12082   0.05443   0.66010   0.00000  Uiso   1.00
H461   H     0.12977   0.12488   0.35621   0.00000  Uiso   1.00
H462   H     0.07392   0.09641   0.34422   0.00000  Uiso   1.00
C463   C     0.03638   0.01748   0.42211   0.00000  Uiso   1.00
C464   C     0.00404   0.30304   0.41420   0.00000  Uiso   1.00
H465   H     0.48263   0.30720   0.45336   0.00000  Uiso   1.00
H466   H     0.48273   0.29839   0.37112   0.00000  Uiso   1.00
H467   H     0.02322   0.26638   0.41113   0.00000  Uiso   1.00
H468   H     0.05256   0.01316   0.37826   0.00000  Uiso   1.00
H469   H     0.06241   0.01358   0.45833   0.00000  Uiso   1.00
C470   C     0.46362   0.31585   0.57788   0.00000  Uiso   1.00
C471   C     0.49596   0.03029   0.58579   0.00000  Uiso   1.00
H472   H     0.01727   0.03495   0.62887   0.00000  Uiso   1.00
H473   H     0.01737   0.02613   0.54663   0.00000  Uiso   1.00
H474   H     0.47678   0.06695   0.58887   0.00000  Uiso   1.00
H475   H     0.43759   0.31975   0.54167   0.00000  Uiso   1.00
H476   H     0.44744   0.32017   0.62174   0.00000  Uiso   1.00
C477   C     0.74869   0.06659   0.48440   0.00000  Uiso   1.00
C478   C     0.75131   0.26674   0.51560   0.00000  Uiso   1.00
C479   C     0.51642   0.07249   0.44083   0.00000  Uiso   1.00
C480   C     0.98358   0.26085   0.55917   0.00000  Uiso   1.00
C481   C     0.74797   0.01055   0.47565   0.00000  Uiso   1.00
C482   C     0.75203   0.32279   0.52435   0.00000  Uiso   1.00
C483   C     0.66456   0.16574   0.50095   0.00000  Uiso   1.00
C484   C     0.83544   0.16759   0.49905   0.00000  Uiso   1.00
C485   C     0.90924   0.21307   0.53495   0.00000  Uiso   1.00
C486   C     0.59076   0.12027   0.46505   0.00000  Uiso   1.00
C487   C     0.88363   0.17029   0.49736   0.00000  Uiso   1.00
C488   C     0.61637   0.16305   0.50264   0.00000  Uiso   1.00
C489   C     0.90399   0.12735   0.46164   0.00000  Uiso   1.00
C490   C     0.59601   0.20599   0.53836   0.00000  Uiso   1.00
C491   C     0.95025   0.12463   0.46496   0.00000  Uiso   1.00
C492   C     0.54975   0.20870   0.53504   0.00000  Uiso   1.00
C493   C     0.97665   0.16820   0.49925   0.00000  Uiso   1.00
C494   C     0.52335   0.16514   0.50075   0.00000  Uiso   1.00
C495   C     0.95627   0.21475   0.53155   0.00000  Uiso   1.00
C496   C     0.54373   0.11858   0.46844   0.00000  Uiso   1.00
C497   C     0.96993   0.07772   0.43643   0.00000  Uiso   1.00
C498   C     0.53007   0.25562   0.56356   0.00000  Uiso   1.00
Cu499  Cu    0.75501   0.17246   0.56146   0.00000  Uiso   1.00
Cu500  Cu    0.74500   0.16087   0.43854   0.00000  Uiso   1.00
H501   H     0.88351   0.09416   0.43471   0.00000  Uiso   1.00
H502   H     0.61649   0.23918   0.56529   0.00000  Uiso   1.00
H503   H     0.94838   0.04454   0.41248   0.00000  Uiso   1.00
H504   H     0.55162   0.28879   0.58752   0.00000  Uiso   1.00
H505   H     0.74408   0.31990   0.42878   0.00000  Uiso   1.00
H506   H     0.75592   0.01343   0.57122   0.00000  Uiso   1.00
H507   H     0.71531   0.12637   0.64959   0.00000  Uiso   1.00
H508   H     0.78469   0.20696   0.35041   0.00000  Uiso   1.00
N509   N     0.73745   0.15214   0.34617   0.00000  Uiso   1.00
N510   N     0.76256   0.18119   0.65383   0.00000  Uiso   1.00
O511   O     0.75326   0.09538   0.53992   0.00000  Uiso   1.00
O512   O     0.74675   0.23796   0.46008   0.00000  Uiso   1.00
O513   O     0.74480   0.08559   0.43612   0.00000  Uiso   1.00
O514   O     0.75520   0.24774   0.56388   0.00000  Uiso   1.00
O515   O     0.68936   0.17155   0.55191   0.00000  Uiso   1.00
O516   O     0.81065   0.16179   0.44809   0.00000  Uiso   1.00
O517   O     0.68090   0.16176   0.44810   0.00000  Uiso   1.00
O518   O     0.81910   0.17157   0.55190   0.00000  Uiso   1.00
N519   N     0.88812   0.25196   0.57896   0.00000  Uiso   1.00
H520   H     0.85700   0.26292   0.56500   0.00000  Uiso   1.00
C521   C     0.89105   0.24349   0.64099   0.00000  Uiso   1.00
H522   H     0.87920   0.27893   0.33991   0.00000  Uiso   1.00
H523   H     0.92609   0.23691   0.65577   0.00000  Uiso   1.00
H524   H     0.87022   0.20847   0.64380   0.00000  Uiso   1.00
N525   N     0.61188   0.08137   0.42104   0.00000  Uiso   1.00
H526   H     0.64300   0.07041   0.43500   0.00000  Uiso   1.00
C527   C     0.60895   0.08985   0.35901   0.00000  Uiso   1.00
H528   H     0.62082   0.05443   0.66010   0.00000  Uiso   1.00
H529   H     0.62977   0.12488   0.35621   0.00000  Uiso   1.00
H530   H     0.57392   0.09641   0.34422   0.00000  Uiso   1.00
C531   C     0.53638   0.01748   0.42211   0.00000  Uiso   1.00
C532   C     0.50404   0.30304   0.41420   0.00000  Uiso   1.00
H533   H     0.98263   0.30720   0.45336   0.00000  Uiso   1.00
H534   H     0.98273   0.29839   0.37112   0.00000  Uiso   1.00
H535   H     0.52322   0.26638   0.41113   0.00000  Uiso   1.00
H536   H     0.55256   0.01316   0.37826   0.00000  Uiso   1.00
H537   H     0.56241   0.01358   0.45833   0.00000  Uiso   1.00
C538   C     0.96362   0.31585   0.57788   0.00000  Uiso   1.00
C539   C     0.99596   0.03029   0.58579   0.00000  Uiso   1.00
H540   H     0.51727   0.03495   0.62887   0.00000  Uiso   1.00
H541   H     0.51737   0.02613   0.54663   0.00000  Uiso   1.00
H542   H     0.97678   0.06695   0.58887   0.00000  Uiso   1.00
H543   H     0.93759   0.31975   0.54167   0.00000  Uiso   1.00
H544   H     0.94744   0.32017   0.62174   0.00000  Uiso   1.00
C545   C     0.24869   0.39992   0.48440   0.00000  Uiso   1.00
C546   C     0.25131   0.60008   0.51560   0.00000  Uiso   1.00
C547   C     0.01642   0.40582   0.44083   0.00000  Uiso   1.00
C548   C     0.48358   0.59418   0.55917   0.00000  Uiso   1.00
C549   C     0.24797   0.34388   0.47565   0.00000  Uiso   1.00
C550   C     0.25203   0.65612   0.52435   0.00000  Uiso   1.00
C551   C     0.16456   0.49907   0.50095   0.00000  Uiso   1.00
C552   C     0.33544   0.50093   0.49905   0.00000  Uiso   1.00
C553   C     0.40924   0.54640   0.53495   0.00000  Uiso   1.00
C554   C     0.09076   0.45360   0.46505   0.00000  Uiso   1.00
C555   C     0.38363   0.50362   0.49736   0.00000  Uiso   1.00
C556   C     0.11637   0.49638   0.50264   0.00000  Uiso   1.00
C557   C     0.40399   0.46068   0.46164   0.00000  Uiso   1.00
C558   C     0.09601   0.53932   0.53836   0.00000  Uiso   1.00
C559   C     0.45025   0.45796   0.46496   0.00000  Uiso   1.00
C560   C     0.04975   0.54204   0.53504   0.00000  Uiso   1.00
C561   C     0.47665   0.50153   0.49925   0.00000  Uiso   1.00
C562   C     0.02335   0.49847   0.50075   0.00000  Uiso   1.00
C563   C     0.45627   0.54808   0.53155   0.00000  Uiso   1.00
C564   C     0.04373   0.45192   0.46844   0.00000  Uiso   1.00
C565   C     0.46993   0.41105   0.43643   0.00000  Uiso   1.00
C566   C     0.03007   0.58895   0.56356   0.00000  Uiso   1.00
Cu567  Cu    0.25501   0.50579   0.56146   0.00000  Uiso   1.00
Cu568  Cu    0.24500   0.49421   0.43854   0.00000  Uiso   1.00
H569   H     0.38351   0.42749   0.43471   0.00000  Uiso   1.00
H570   H     0.11649   0.57251   0.56529   0.00000  Uiso   1.00
H571   H     0.44838   0.37787   0.41248   0.00000  Uiso   1.00
H572   H     0.05162   0.62213   0.58752   0.00000  Uiso   1.00
H573   H     0.24408   0.65324   0.42878   0.00000  Uiso   1.00
H574   H     0.25592   0.34676   0.57122   0.00000  Uiso   1.00
H575   H     0.21531   0.45971   0.64959   0.00000  Uiso   1.00
H576   H     0.28469   0.54029   0.35041   0.00000  Uiso   1.00
N577   N     0.23745   0.48547   0.34617   0.00000  Uiso   1.00
N578   N     0.26256   0.51453   0.65383   0.00000  Uiso   1.00
O579   O     0.25326   0.42871   0.53992   0.00000  Uiso   1.00
O580   O     0.24675   0.57129   0.46008   0.00000  Uiso   1.00
O581   O     0.24480   0.41892   0.43612   0.00000  Uiso   1.00
O582   O     0.25520   0.58108   0.56388   0.00000  Uiso   1.00
O583   O     0.18936   0.50488   0.55191   0.00000  Uiso   1.00
O584   O     0.31065   0.49512   0.44809   0.00000  Uiso   1.00
O585   O     0.18090   0.49510   0.44810   0.00000  Uiso   1.00
O586   O     0.31910   0.50490   0.55190   0.00000  Uiso   1.00
N587   N     0.38812   0.58529   0.57896   0.00000  Uiso   1.00
H588   H     0.35700   0.59626   0.56500   0.00000  Uiso   1.00
C589   C     0.39105   0.57682   0.64099   0.00000  Uiso   1.00
H590   H     0.37920   0.61226   0.33991   0.00000  Uiso   1.00
H591   H     0.42609   0.57025   0.65577   0.00000  Uiso   1.00
H592   H     0.37022   0.54180   0.64380   0.00000  Uiso   1.00
N593   N     0.11188   0.41471   0.42104   0.00000  Uiso   1.00
H594   H     0.14300   0.40374   0.43500   0.00000  Uiso   1.00
C595   C     0.10895   0.42318   0.35901   0.00000  Uiso   1.00
H596   H     0.12082   0.38776   0.66010   0.00000  Uiso   1.00
H597   H     0.12977   0.45821   0.35621   0.00000  Uiso   1.00
H598   H     0.07392   0.42975   0.34422   0.00000  Uiso   1.00
C599   C     0.03638   0.35081   0.42211   0.00000  Uiso   1.00
C600   C     0.00404   0.63637   0.41420   0.00000  Uiso   1.00
H601   H     0.48263   0.64053   0.45336   0.00000  Uiso   1.00
H602   H     0.48273   0.63172   0.37112   0.00000  Uiso   1.00
H603   H     0.02322   0.59971   0.41113   0.00000  Uiso   1.00
H604   H     0.05256   0.34650   0.37826   0.00000  Uiso   1.00
H605   H     0.06241   0.34691   0.45833   0.00000  Uiso   1.00
C606   C     0.46362   0.64919   0.57788   0.00000  Uiso   1.00
C607   C     0.49596   0.36363   0.58579   0.00000  Uiso   1.00
H608   H     0.01727   0.36828   0.62887   0.00000  Uiso   1.00
H609   H     0.01737   0.35947   0.54663   0.00000  Uiso   1.00
H610   H     0.47678   0.40029   0.58887   0.00000  Uiso   1.00
H611   H     0.43759   0.65309   0.54167   0.00000  Uiso   1.00
H612   H     0.44744   0.65350   0.62174   0.00000  Uiso   1.00
C613   C     0.74869   0.39992   0.48440   0.00000  Uiso   1.00
C614   C     0.75131   0.60008   0.51560   0.00000  Uiso   1.00
C615   C     0.51642   0.40582   0.44083   0.00000  Uiso   1.00
C616   C     0.98358   0.59418   0.55917   0.00000  Uiso   1.00
C617   C     0.74797   0.34388   0.47565   0.00000  Uiso   1.00
C618   C     0.75203   0.65612   0.52435   0.00000  Uiso   1.00
C619   C     0.66456   0.49907   0.50095   0.00000  Uiso   1.00
C620   C     0.83544   0.50093   0.49905   0.00000  Uiso   1.00
C621   C     0.90924   0.54640   0.53495   0.00000  Uiso   1.00
C622   C     0.59076   0.45360   0.46505   0.00000  Uiso   1.00
C623   C     0.88363   0.50362   0.49736   0.00000  Uiso   1.00
C624   C     0.61637   0.49638   0.50264   0.00000  Uiso   1.00
C625   C     0.90399   0.46068   0.46164   0.00000  Uiso   1.00
C626   C     0.59601   0.53932   0.53836   0.00000  Uiso   1.00
C627   C     0.95025   0.45796   0.46496   0.00000  Uiso   1.00
C628   C     0.54975   0.54204   0.53504   0.00000  Uiso   1.00
C629   C     0.97665   0.50153   0.49925   0.00000  Uiso   1.00
C630   C     0.52335   0.49847   0.50075   0.00000  Uiso   1.00
C631   C     0.95627   0.54808   0.53155   0.00000  Uiso   1.00
C632   C     0.54373   0.45192   0.46844   0.00000  Uiso   1.00
C633   C     0.96993   0.41105   0.43643   0.00000  Uiso   1.00
C634   C     0.53007   0.58895   0.56356   0.00000  Uiso   1.00
Cu635  Cu    0.75501   0.50579   0.56146   0.00000  Uiso   1.00
Cu636  Cu    0.74500   0.49421   0.43854   0.00000  Uiso   1.00
H637   H     0.88351   0.42749   0.43471   0.00000  Uiso   1.00
H638   H     0.61649   0.57251   0.56529   0.00000  Uiso   1.00
H639   H     0.94838   0.37787   0.41248   0.00000  Uiso   1.00
H640   H     0.55162   0.62213   0.58752   0.00000  Uiso   1.00
H641   H     0.74408   0.65324   0.42878   0.00000  Uiso   1.00
H642   H     0.75592   0.34676   0.57122   0.00000  Uiso   1.00
H643   H     0.71531   0.45971   0.64959   0.00000  Uiso   1.00
H644   H     0.78469   0.54029   0.35041   0.00000  Uiso   1.00
N645   N     0.73745   0.48547   0.34617   0.00000  Uiso   1.00
N646   N     0.76256   0.51453   0.65383   0.00000  Uiso   1.00
O647   O     0.75326   0.42871   0.53992   0.00000  Uiso   1.00
O648   O     0.74675   0.57129   0.46008   0.00000  Uiso   1.00
O649   O     0.74480   0.41892   0.43612   0.00000  Uiso   1.00
O650   O     0.75520   0.58108   0.56388   0.00000  Uiso   1.00
O651   O     0.68936   0.50488   0.55191   0.00000  Uiso   1.00
O652   O     0.81065   0.49512   0.44809   0.00000  Uiso   1.00
O653   O     0.68090   0.49510   0.44810   0.00000  Uiso   1.00
O654   O     0.81910   0.50490   0.55190   0.00000  Uiso   1.00
N655   N     0.88812   0.58529   0.57896   0.00000  Uiso   1.00
H656   H     0.85700   0.59626   0.56500   0.00000  Uiso   1.00
C657   C     0.89105   0.57682   0.64099   0.00000  Uiso   1.00
H658   H     0.87920   0.61226   0.33991   0.00000  Uiso   1.00
H659   H     0.92609   0.57025   0.65577   0.00000  Uiso   1.00
H660   H     0.87022   0.54180   0.64380   0.00000  Uiso   1.00
N661   N     0.61188   0.41471   0.42104   0.00000  Uiso   1.00
H662   H     0.64300   0.40374   0.43500   0.00000  Uiso   1.00
C663   C     0.60895   0.42318   0.35901   0.00000  Uiso   1.00
H664   H     0.62082   0.38776   0.66010   0.00000  Uiso   1.00
H665   H     0.62977   0.45821   0.35621   0.00000  Uiso   1.00
H666   H     0.57392   0.42975   0.34422   0.00000  Uiso   1.00
C667   C     0.53638   0.35081   0.42211   0.00000  Uiso   1.00
C668   C     0.50404   0.63637   0.41420   0.00000  Uiso   1.00
H669   H     0.98263   0.64053   0.45336   0.00000  Uiso   1.00
H670   H     0.98273   0.63172   0.37112   0.00000  Uiso   1.00
H671   H     0.52322   0.59971   0.41113   0.00000  Uiso   1.00
H672   H     0.55256   0.34650   0.37826   0.00000  Uiso   1.00
H673   H     0.56241   0.34691   0.45833   0.00000  Uiso   1.00
C674   C     0.96362   0.64919   0.57788   0.00000  Uiso   1.00
C675   C     0.99596   0.36363   0.58579   0.00000  Uiso   1.00
H676   H     0.51727   0.36828   0.62887   0.00000  Uiso   1.00
H677   H     0.51737   0.35947   0.54663   0.00000  Uiso   1.00
H678   H     0.97678   0.40029   0.58887   0.00000  Uiso   1.00
H679   H     0.93759   0.65309   0.54167   0.00000  Uiso   1.00
H680   H     0.94744   0.65350   0.62174   0.00000  Uiso   1.00
C681   C     0.24869   0.73326   0.48440   0.00000  Uiso   1.00
C682   C     0.25131   0.93341   0.51560   0.00000  Uiso   1.00
C683   C     0.01642   0.73915   0.44083   0.00000  Uiso   1.00
C684   C     0.48358   0.92751   0.55917   0.00000  Uiso   1.00
C685   C     0.24797   0.67721   0.47565   0.00000  Uiso   1.00
C686   C     0.25203   0.98945   0.52435   0.00000  Uiso   1.00
C687   C     0.16456   0.83241   0.50095   0.00000  Uiso   1.00
C688   C     0.33544   0.83426   0.49905   0.00000  Uiso   1.00
C689   C     0.40924   0.87973   0.53495   0.00000  Uiso   1.00
C690   C     0.09076   0.78693   0.46505   0.00000  Uiso   1.00
C691   C     0.38363   0.83695   0.49736   0.00000  Uiso   1.00
C692   C     0.11637   0.82971   0.50264   0.00000  Uiso   1.00
C693   C     0.40399   0.79401   0.46164   0.00000  Uiso   1.00
C694   C     0.09601   0.87265   0.53836   0.00000  Uiso   1.00
C695   C     0.45025   0.79129   0.46496   0.00000  Uiso   1.00
C696   C     0.04975   0.87537   0.53504   0.00000  Uiso   1.00
C697   C     0.47665   0.83486   0.49925   0.00000  Uiso   1.00
C698   C     0.02335   0.83180   0.50075   0.00000  Uiso   1.00
C699   C     0.45627   0.88142   0.53155   0.00000  Uiso   1.00
C700   C     0.04373   0.78525   0.46844   0.00000  Uiso   1.00
C701   C     0.46993   0.74438   0.43643   0.00000  Uiso   1.00
C702   C     0.03007   0.92228   0.56356   0.00000  Uiso   1.00
Cu703  Cu    0.25501   0.83913   0.56146   0.00000  Uiso   1.00
Cu704  Cu    0.24500   0.82754   0.43854   0.00000  Uiso   1.00
H705   H     0.38351   0.76082   0.43471   0.00000  Uiso   1.00
H706   H     0.11649   0.90584   0.56529   0.00000  Uiso   1.00
H707   H     0.44838   0.71121   0.41248   0.00000  Uiso   1.00
H708   H     0.05162   0.95546   0.58752   0.00000  Uiso   1.00
H709   H     0.24408   0.98657   0.42878   0.00000  Uiso   1.00
H710   H     0.25592   0.68010   0.57122   0.00000  Uiso   1.00
H711   H     0.21531   0.79304   0.64959   0.00000  Uiso   1.00
H712   H     0.28469   0.87363   0.35041   0.00000  Uiso   1.00
N713   N     0.23745   0.81881   0.34617   0.00000  Uiso   1.00
N714   N     0.26256   0.84786   0.65383   0.00000  Uiso   1.00
O715   O     0.25326   0.76204   0.53992   0.00000  Uiso   1.00
O716   O     0.24675   0.90462   0.46008   0.00000  Uiso   1.00
O717   O     0.24480   0.75226   0.43612   0.00000  Uiso   1.00
O718   O     0.25520   0.91441   0.56388   0.00000  Uiso   1.00
O719   O     0.18936   0.83821   0.55191   0.00000  Uiso   1.00
O720   O     0.31065   0.82845   0.44809   0.00000  Uiso   1.00
O721   O     0.18090   0.82843   0.44810   0.00000  Uiso   1.00
O722   O     0.31910   0.83824   0.55190   0.00000  Uiso   1.00
N723   N     0.38812   0.91863   0.57896   0.00000  Uiso   1.00
H724   H     0.35700   0.92959   0.56500   0.00000  Uiso   1.00
C725   C     0.39105   0.91016   0.64099   0.00000  Uiso   1.00
H726   H     0.37920   0.94560   0.33991   0.00000  Uiso   1.00
H727   H     0.42609   0.90358   0.65577   0.00000  Uiso   1.00
H728   H     0.37022   0.87514   0.64380   0.00000  Uiso   1.00
N729   N     0.11188   0.74804   0.42104   0.00000  Uiso   1.00
H730   H     0.14300   0.73708   0.43500   0.00000  Uiso   1.00
C731   C     0.10895   0.75652   0.35901   0.00000  Uiso   1.00
H732   H     0.12082   0.72110   0.66010   0.00000  Uiso   1.00
H733   H     0.12977   0.79155   0.35621   0.00000  Uiso   1.00
H734   H     0.07392   0.76308   0.34422   0.00000  Uiso   1.00
C735   C     0.03638   0.68415   0.42211   0.00000  Uiso   1.00
C736   C     0.00404   0.96971   0.41420   0.00000  Uiso   1.00
H737   H     0.48263   0.97387   0.45336   0.00000  Uiso   1.00
H738   H     0.48273   0.96505   0.37112   0.00000  Uiso   1.00
H739   H     0.02322   0.93305   0.41113   0.00000  Uiso   1.00
H740   H     0.05256   0.67983   0.37826   0.00000  Uiso   1.00
H741   H     0.06241   0.68024   0.45833   0.00000  Uiso   1.00
C742   C     0.46362   0.98252   0.57788   0.00000  Uiso   1.00
C743   C     0.49596   0.69696   0.58579   0.00000  Uiso   1.00
H744   H     0.01727   0.70161   0.62887   0.00000  Uiso   1.00
H745   H     0.01737   0.69280   0.54663   0.00000  Uiso   1.00
H746   H     0.47678   0.73362   0.58887   0.00000  Uiso   1.00
H747   H     0.43759   0.98642   0.54167   0.00000  Uiso   1.00
H748   H     0.44744   0.98684   0.62174   0.00000  Uiso   1.00
C749   C     0.74869   0.73326   0.48440   0.00000  Uiso   1.00
C750   C     0.75131   0.93341   0.51560   0.00000  Uiso   1.00
C751   C     0.51642   0.73915   0.44083   0.00000  Uiso   1.00
C752   C     0.98358   0.92751   0.55917   0.00000  Uiso   1.00
C753   C     0.74797   0.67721   0.47565   0.00000  Uiso   1.00
C754   C     0.75203   0.98945   0.52435   0.00000  Uiso   1.00
C755   C     0.66456   0.83241   0.50095   0.00000  Uiso   1.00
C756   C     0.83544   0.83426   0.49905   0.00000  Uiso   1.00
C757   C     0.90924   0.87973   0.53495   0.00000  Uiso   1.00
C758   C     0.59076   0.78693   0.46505   0.00000  Uiso   1.00
C759   C     0.88363   0.83695   0.49736   0.00000  Uiso   1.00
C760   C     0.61637   0.82971   0.50264   0.00000  Uiso   1.00
C761   C     0.90399   0.79401   0.46164   0.00000  Uiso   1.00
C762   C     0.59601   0.87265   0.53836   0.00000  Uiso   1.00
C763   C     0.95025   0.79129   0.46496   0.00000  Uiso   1.00
C764   C     0.54975   0.87537   0.53504   0.00000  Uiso   1.00
C765   C     0.97665   0.83486   0.49925   0.00000  Uiso   1.00
C766   C     0.52335   0.83180   0.50075   0.00000  Uiso   1.00
C767   C     0.95627   0.88142   0.53155   0.00000  Uiso   1.00
C768   C     0.54373   0.78525   0.46844   0.00000  Uiso   1.00
C769   C     0.96993   0.74438   0.43643   0.00000  Uiso   1.00
C770   C     0.53007   0.92228   0.56356   0.00000  Uiso   1.00
Cu771  Cu    0.75501   0.83913   0.56146   0.00000  Uiso   1.00
Cu772  Cu    0.74500   0.82754   0.43854   0.00000  Uiso   1.00
H773   H     0.88351   0.76082   0.43471   0.00000  Uiso   1.00
H774   H     0.61649   0.90584   0.56529   0.00000  Uiso   1.00
H775   H     0.94838   0.71121   0.41248   0.00000  Uiso   1.00
H776   H     0.55162   0.95546   0.58752   0.00000  Uiso   1.00
H777   H     0.74408   0.98657   0.42878   0.00000  Uiso   1.00
H778   H     0.75592   0.68010   0.57122   0.00000  Uiso   1.00
H779   H     0.71531   0.79304   0.64959   0.00000  Uiso   1.00
H780   H     0.78469   0.87363   0.35041   0.00000  Uiso   1.00
N781   N     0.73745   0.81881   0.34617   0.00000  Uiso   1.00
N782   N     0.76256   0.84786   0.65383   0.00000  Uiso   1.00
O783   O     0.75326   0.76204   0.53992   0.00000  Uiso   1.00
O784   O     0.74675   0.90462   0.46008   0.00000  Uiso   1.00
O785   O     0.74480   0.75226   0.43612   0.00000  Uiso   1.00
O786   O     0.75520   0.91441   0.56388   0.00000  Uiso   1.00
O787   O     0.68936   0.83821   0.55191   0.00000  Uiso   1.00
O788   O     0.81065   0.82845   0.44809   0.00000  Uiso   1.00
O789   O     0.68090   0.82843   0.44810   0.00000  Uiso   1.00
O790   O     0.81910   0.83824   0.55190   0.00000  Uiso   1.00
N791   N     0.88812   0.91863   0.57896   0.00000  Uiso   1.00
H792   H     0.85700   0.92959   0.56500   0.00000  Uiso   1.00
C793   C     0.89105   0.91016   0.64099   0.00000  Uiso   1.00
H794   H     0.87920   0.94560   0.33991   0.00000  Uiso   1.00
H795   H     0.92609   0.90358   0.65577   0.00000  Uiso   1.00
H796   H     0.87022   0.87514   0.64380   0.00000  Uiso   1.00
N797   N     0.61188   0.74804   0.42104   0.00000  Uiso   1.00
H798   H     0.64300   0.73708   0.43500   0.00000  Uiso   1.00
C799   C     0.60895   0.75652   0.35901   0.00000  Uiso   1.00
H800   H     0.62082   0.72110   0.66010   0.00000  Uiso   1.00
H801   H     0.62977   0.79155   0.35621   0.00000  Uiso   1.00
H802   H     0.57392   0.76308   0.34422   0.00000  Uiso   1.00
C803   C     0.53638   0.68415   0.42211   0.00000  Uiso   1.00
C804   C     0.50404   0.96971   0.41420   0.00000  Uiso   1.00
H805   H     0.98263   0.97387   0.45336   0.00000  Uiso   1.00
H806   H     0.98273   0.96505   0.37112   0.00000  Uiso   1.00
H807   H     0.52322   0.93305   0.41113   0.00000  Uiso   1.00
H808   H     0.55256   0.67983   0.37826   0.00000  Uiso   1.00
H809   H     0.56241   0.68024   0.45833   0.00000  Uiso   1.00
C810   C     0.96362   0.98252   0.57788   0.00000  Uiso   1.00
C811   C     0.99596   0.69696   0.58579   0.00000  Uiso   1.00
H812   H     0.51727   0.70161   0.62887   0.00000  Uiso   1.00
H813   H     0.51737   0.69280   0.54663   0.00000  Uiso   1.00
H814   H     0.97678   0.73362   0.58887   0.00000  Uiso   1.00
H815   H     0.93759   0.98642   0.54167   0.00000  Uiso   1.00
H816   H     0.94744   0.98684   0.62174   0.00000  Uiso   1.00
C817   C     0.24869   0.06659   0.81774   0.00000  Uiso   1.00
C818   C     0.25131   0.26674   0.84893   0.00000  Uiso   1.00
C819   C     0.01642   0.07249   0.77416   0.00000  Uiso   1.00
C820   C     0.48358   0.26085   0.89250   0.00000  Uiso   1.00
C821   C     0.24797   0.01055   0.80898   0.00000  Uiso   1.00
C822   C     0.25203   0.32279   0.85769   0.00000  Uiso   1.00
C823   C     0.16456   0.16574   0.83428   0.00000  Uiso   1.00
C824   C     0.33544   0.16759   0.83239   0.00000  Uiso   1.00
C825   C     0.40924   0.21307   0.86828   0.00000  Uiso   1.00
C826   C     0.09076   0.12027   0.79838   0.00000  Uiso   1.00
C827   C     0.38363   0.17029   0.83069   0.00000  Uiso   1.00
C828   C     0.11637   0.16305   0.83597   0.00000  Uiso   1.00
C829   C     0.40399   0.12735   0.79497   0.00000  Uiso   1.00
C830   C     0.09601   0.20599   0.87169   0.00000  Uiso   1.00
C831   C     0.45025   0.12463   0.79830   0.00000  Uiso   1.00
C832   C     0.04975   0.20870   0.86837   0.00000  Uiso   1.00
C833   C     0.47665   0.16820   0.83258   0.00000  Uiso   1.00
C834   C     0.02335   0.16514   0.83408   0.00000  Uiso   1.00
C835   C     0.45627   0.21475   0.86489   0.00000  Uiso   1.00
C836   C     0.04373   0.11858   0.80178   0.00000  Uiso   1.00
C837   C     0.46993   0.07772   0.76977   0.00000  Uiso   1.00
C838   C     0.03007   0.25562   0.89690   0.00000  Uiso   1.00
Cu839  Cu    0.25501   0.17246   0.89479   0.00000  Uiso   1.00
Cu840  Cu    0.24500   0.16087   0.77187   0.00000  Uiso   1.00
H841   H     0.38351   0.09416   0.76805   0.00000  Uiso   1.00
H842   H     0.11649   0.23918   0.89862   0.00000  Uiso   1.00
H843   H     0.44838   0.04454   0.74581   0.00000  Uiso   1.00
H844   H     0.05162   0.28879   0.92085   0.00000  Uiso   1.00
H845   H     0.24408   0.31990   0.76211   0.00000  Uiso   1.00
H846   H     0.25592   0.01343   0.90455   0.00000  Uiso   1.00
H847   H     0.21531   0.12637   0.98292   0.00000  Uiso   1.00
H848   H     0.28469   0.20696   0.68374   0.00000  Uiso   1.00
N849   N     0.23745   0.15214   0.67951   0.00000  Uiso   1.00
N850   N     0.26256   0.18119   0.98716   0.00000  Uiso   1.00
O851   O     0.25326   0.09538   0.87326   0.00000  Uiso   1.00
O852   O     0.24675   0.23796   0.79341   0.00000  Uiso   1.00
O853   O     0.24480   0.08559   0.76945   0.00000  Uiso   1.00
O854   O     0.25520   0.24774   0.89721   0.00000  Uiso   1.00
O855   O     0.18936   0.17155   0.88524   0.00000  Uiso   1.00
O856   O     0.31065   0.16179   0.78143   0.00000  Uiso   1.00
O857   O     0.18090   0.16176   0.78143   0.00000  Uiso   1.00
O858   O     0.31910   0.17157   0.88523   0.00000  Uiso   1.00
N859   N     0.38812   0.25196   0.91229   0.00000  Uiso   1.00
H860   H     0.35700   0.26292   0.89833   0.00000  Uiso   1.00
C861   C     0.39105   0.24349   0.97432   0.00000  Uiso   1.00
H862   H     0.37920   0.27893   0.67324   0.00000  Uiso   1.00
H863   H     0.42609   0.23691   0.98910   0.00000  Uiso   1.00
H864   H     0.37022   0.20847   0.97713   0.00000  Uiso   1.00
N865   N     0.11188   0.08137   0.75437   0.00000  Uiso   1.00
H866   H     0.14300   0.07041   0.76833   0.00000  Uiso   1.00
C867   C     0.10895   0.08985   0.69235   0.00000  Uiso   1.00
H868   H     0.12082   0.05443   0.99343   0.00000  Uiso   1.00
H869   H     0.12977   0.12488   0.68954   0.00000  Uiso   1.00
H870   H     0.07392   0.09641   0.67756   0.00000  Uiso   1.00
C871   C     0.03638   0.01748   0.75545   0.00000  Uiso   1.00
C872   C     0.00404   0.30304   0.74754   0.00000  Uiso   1.00
H873   H     0.48263   0.30720   0.78670   0.00000  Uiso   1.00
H874   H     0.48273   0.29839   0.70445   0.00000  Uiso   1.00
H875   H     0.02322   0.26638   0.74446   0.00000  Uiso   1.00
H876   H     0.05256   0.01316   0.71159   0.00000  Uiso   1.00
H877   H     0.06241   0.01358   0.79166   0.00000  Uiso   1.00
C878   C     0.46362   0.31585   0.91122   0.00000  Uiso   1.00
C879   C     0.49596   0.03029   0.91913   0.00000  Uiso   1.00
H880   H     0.01727   0.03495   0.96221   0.00000  Uiso   1.00
H881   H     0.01737   0.02613   0.87997   0.00000  Uiso   1.00
H882   H     0.47678   0.06695   0.92220   0.00000  Uiso   1.00
H883   H     0.43759   0.31975   0.87500   0.00000  Uiso   1.00
H884   H     0.44744   0.32017   0.95507   0.00000  Uiso   1.00
C885   C     0.74869   0.06659   0.81774   0.00000  Uiso   1.00
C886   C     0.75131   0.26674   0.84893   0.00000  Uiso   1.00
C887   C     0.51642   0.07249   0.77416   0.00000  Uiso   1.00
C888   C     0.98358   0.26085   0.89250   0.00000  Uiso   1.00
C889   C     0.74797   0.01055   0.80898   0.00000  Uiso   1.00
C890   C     0.75203   0.32279   0.85769   0.00000  Uiso   1.00
C891   C     0.66456   0.16574   0.83428   0.00000  Uiso   1.00
C892   C     0.83544   0.16759   0.83239   0.00000  Uiso   1.00
C893   C     0.90924   0.21307   0.86828   0.00000  Uiso   1.00
C894   C     0.59076   0.12027   0.79838   0.00000  Uiso   1.00
C895   C     0.88363   0.17029   0.83069   0.00000  Uiso   1.00
C896   C     0.61637   0.16305   0.83597   0.00000  Uiso   1.00
C897   C     0.90399   0.12735   0.79497   0.00000  Uiso   1.00
C898   C     0.59601   0.20599   0.87169   0.00000  Uiso   1.00
C899   C     0.95025   0.12463   0.79830   0.00000  Uiso   1.00
C900   C     0.54975   0.20870   0.86837   0.00000  Uiso   1.00
C901   C     0.97665   0.16820   0.83258   0.00000  Uiso   1.00
C902   C     0.52335   0.16514   0.83408   0.00000  Uiso   1.00
C903   C     0.95627   0.21475   0.86489   0.00000  Uiso   1.00
C904   C     0.54373   0.11858   0.80178   0.00000  Uiso   1.00
C905   C     0.96993   0.07772   0.76977   0.00000  Uiso   1.00
C906   C     0.53007   0.25562   0.89690   0.00000  Uiso   1.00
Cu907  Cu    0.75501   0.17246   0.89479   0.00000  Uiso   1.00
Cu908  Cu    0.74500   0.16087   0.77187   0.00000  Uiso   1.00
H909   H     0.88351   0.09416   0.76805   0.00000  Uiso   1.00
H910   H     0.61649   0.23918   0.89862   0.00000  Uiso   1.00
H911   H     0.94838   0.04454   0.74581   0.00000  Uiso   1.00
H912   H     0.55162   0.28879   0.92085   0.00000  Uiso   1.00
H913   H     0.74408   0.31990   0.76211   0.00000  Uiso   1.00
H914   H     0.75592   0.01343   0.90455   0.00000  Uiso   1.00
H915   H     0.71531   0.12637   0.98292   0.00000  Uiso   1.00
H916   H     0.78469   0.20696   0.68374   0.00000  Uiso   1.00
N917   N     0.73745   0.15214   0.67951   0.00000  Uiso   1.00
N918   N     0.76256   0.18119   0.98716   0.00000  Uiso   1.00
O919   O     0.75326   0.09538   0.87326   0.00000  Uiso   1.00
O920   O     0.74675   0.23796   0.79341   0.00000  Uiso   1.00
O921   O     0.74480   0.08559   0.76945   0.00000  Uiso   1.00
O922   O     0.75520   0.24774   0.89721   0.00000  Uiso   1.00
O923   O     0.68936   0.17155   0.88524   0.00000  Uiso   1.00
O924   O     0.81065   0.16179   0.78143   0.00000  Uiso   1.00
O925   O     0.68090   0.16176   0.78143   0.00000  Uiso   1.00
O926   O     0.81910   0.17157   0.88523   0.00000  Uiso   1.00
N927   N     0.88812   0.25196   0.91229   0.00000  Uiso   1.00
H928   H     0.85700   0.26292   0.89833   0.00000  Uiso   1.00
C929   C     0.89105   0.24349   0.97432   0.00000  Uiso   1.00
H930   H     0.87920   0.27893   0.67324   0.00000  Uiso   1.00
H931   H     0.92609   0.23691   0.98910   0.00000  Uiso   1.00
H932   H     0.87022   0.20847   0.97713   0.00000  Uiso   1.00
N933   N     0.61188   0.08137   0.75437   0.00000  Uiso   1.00
H934   H     0.64300   0.07041   0.76833   0.00000  Uiso   1.00
C935   C     0.60895   0.08985   0.69235   0.00000  Uiso   1.00
H936   H     0.62082   0.05443   0.99343   0.00000  Uiso   1.00
H937   H     0.62977   0.12488   0.68954   0.00000  Uiso   1.00
H938   H     0.57392   0.09641   0.67756   0.00000  Uiso   1.00
C939   C     0.53638   0.01748   0.75545   0.00000  Uiso   1.00
C940   C     0.50404   0.30304   0.74754   0.00000  Uiso   1.00
H941   H     0.98263   0.30720   0.78670   0.00000  Uiso   1.00
H942   H     0.98273   0.29839   0.70445   0.00000  Uiso   1.00
H943   H     0.52322   0.26638   0.74446   0.00000  Uiso   1.00
H944   H     0.55256   0.01316   0.71159   0.00000  Uiso   1.00
H945   H     0.56241   0.01358   0.79166   0.00000  Uiso   1.00
C946   C     0.96362   0.31585   0.91122   0.00000  Uiso   1.00
C947   C     0.99596   0.03029   0.91913   0.00000  Uiso   1.00
H948   H     0.51727   0.03495   0.96221   0.00000  Uiso   1.00
H949   H     0.51737   0.02613   0.87997   0.00000  Uiso   1.00
H950   H     0.97678   0.06695   0.92220   0.00000  Uiso   1.00
H951   H     0.93759   0.31975   0.87500   0.00000  Uiso   1.00
H952   H     0.94744   0.32017   0.95507   0.00000  Uiso   1.00
C953   C     0.24869   0.39992   0.81774   0.00000  Uiso   1.00
C954   C     0.25131   0.60008   0.84893   0.00000  Uiso   1.00
C955   C     0.01642   0.40582   0.77416   0.00000  Uiso   1.00
C956   C     0.48358   0.59418   0.89250   0.00000  Uiso   1.00
C957   C     0.24797   0.34388   0.80898   0.00000  Uiso   1.00
C958   C     0.25203   0.65612   0.85769   0.00000  Uiso   1.00
C959   C     0.16456   0.49907   0.83428   0.00000  Uiso   1.00
C960   C     0.33544   0.50093   0.83239   0.00000  Uiso   1.00
C961   C     0.40924   0.54640   0.86828   0.00000  Uiso   1.00
C962   C     0.09076   0.45360   0.79838   0.00000  Uiso   1.00
C963   C     0.38363   0.50362   0.83069   0.00000  Uiso   1.00
C964   C     0.11637   0.49638   0.83597   0.00000  Uiso   1.00
C965   C     0.40399   0.46068   0.79497   0.00000  Uiso   1.00
C966   C     0.09601   0.53932   0.87169   0.00000  Uiso   1.00
C967   C     0.45025   0.45796   0.79830   0.00000  Uiso   1.00
C968   C     0.04975   0.54204   0.86837   0.00000  Uiso   1.00
C969   C     0.47665   0.50153   0.83258   0.00000  Uiso   1.00
C970   C     0.02335   0.49847   0.83408   0.00000  Uiso   1.00
C971   C     0.45627   0.54808   0.86489   0.00000  Uiso   1.00
C972   C     0.04373   0.45192   0.80178   0.00000  Uiso   1.00
C973   C     0.46993   0.41105   0.76977   0.00000  Uiso   1.00
C974   C     0.03007   0.58895   0.89690   0.00000  Uiso   1.00
Cu975  Cu    0.25501   0.50579   0.89479   0.00000  Uiso   1.00
Cu976  Cu    0.24500   0.49421   0.77187   0.00000  Uiso   1.00
H977   H     0.38351   0.42749   0.76805   0.00000  Uiso   1.00
H978   H     0.11649   0.57251   0.89862   0.00000  Uiso   1.00
H979   H     0.44838   0.37787   0.74581   0.00000  Uiso   1.00
H980   H     0.05162   0.62213   0.92085   0.00000  Uiso   1.00
H981   H     0.24408   0.65324   0.76211   0.00000  Uiso   1.00
H982   H     0.25592   0.34676   0.90455   0.00000  Uiso   1.00
H983   H     0.21531   0.45971   0.98292   0.00000  Uiso   1.00
H984   H     0.28469   0.54029   0.68374   0.00000  Uiso   1.00
N985   N     0.23745   0.48547   0.67951   0.00000  Uiso   1.00
N986   N     0.26256   0.51453   0.98716   0.00000  Uiso   1.00
O987   O     0.25326   0.42871   0.87326   0.00000  Uiso   1.00
O988   O     0.24675   0.57129   0.79341   0.00000  Uiso   1.00
O989   O     0.24480   0.41892   0.76945   0.00000  Uiso   1.00
O990   O     0.25520   0.58108   0.89721   0.00000  Uiso   1.00
O991   O     0.18936   0.50488   0.88524   0.00000  Uiso   1.00
O992   O     0.31065   0.49512   0.78143   0.00000  Uiso   1.00
O993   O     0.18090   0.49510   0.78143   0.00000  Uiso   1.00
O994   O     0.31910   0.50490   0.88523   0.00000  Uiso   1.00
N995   N     0.38812   0.58529   0.91229   0.00000  Uiso   1.00
H996   H     0.35700   0.59626   0.89833   0.00000  Uiso   1.00
C997   C     0.39105   0.57682   0.97432   0.00000  Uiso   1.00
H998   H     0.37920   0.61226   0.67324   0.00000  Uiso   1.00
H999   H     0.42609   0.57025   0.98910   0.00000  Uiso   1.00
H1000  H     0.37022   0.54180   0.97713   0.00000  Uiso   1.00
N1001  N     0.11188   0.41471   0.75437   0.00000  Uiso   1.00
H1002  H     0.14300   0.40374   0.76833   0.00000  Uiso   1.00
C1003  C     0.10895   0.42318   0.69235   0.00000  Uiso   1.00
H1004  H     0.12082   0.38776   0.99343   0.00000  Uiso   1.00
H1005  H     0.12977   0.45821   0.68954   0.00000  Uiso   1.00
H1006  H     0.07392   0.42975   0.67756   0.00000  Uiso   1.00
C1007  C     0.03638   0.35081   0.75545   0.00000  Uiso   1.00
C1008  C     0.00404   0.63637   0.74754   0.00000  Uiso   1.00
H1009  H     0.48263   0.64053   0.78670   0.00000  Uiso   1.00
H1010  H     0.48273   0.63172   0.70445   0.00000  Uiso   1.00
H1011  H     0.02322   0.59971   0.74446   0.00000  Uiso   1.00
H1012  H     0.05256   0.34650   0.71159   0.00000  Uiso   1.00
H1013  H     0.06241   0.34691   0.79166   0.00000  Uiso   1.00
C1014  C     0.46362   0.64919   0.91122   0.00000  Uiso   1.00
C1015  C     0.49596   0.36363   0.91913   0.00000  Uiso   1.00
H1016  H     0.01727   0.36828   0.96221   0.00000  Uiso   1.00
H1017  H     0.01737   0.35947   0.87997   0.00000  Uiso   1.00
H1018  H     0.47678   0.40029   0.92220   0.00000  Uiso   1.00
H1019  H     0.43759   0.65309   0.87500   0.00000  Uiso   1.00
H1020  H     0.44744   0.65350   0.95507   0.00000  Uiso   1.00
C1021  C     0.74869   0.39992   0.81774   0.00000  Uiso   1.00
C1022  C     0.75131   0.60008   0.84893   0.00000  Uiso   1.00
C1023  C     0.51642   0.40582   0.77416   0.00000  Uiso   1.00
C1024  C     0.98358   0.59418   0.89250   0.00000  Uiso   1.00
C1025  C     0.74797   0.34388   0.80898   0.00000  Uiso   1.00
C1026  C     0.75203   0.65612   0.85769   0.00000  Uiso   1.00
C1027  C     0.66456   0.49907   0.83428   0.00000  Uiso   1.00
C1028  C     0.83544   0.50093   0.83239   0.00000  Uiso   1.00
C1029  C     0.90924   0.54640   0.86828   0.00000  Uiso   1.00
C1030  C     0.59076   0.45360   0.79838   0.00000  Uiso   1.00
C1031  C     0.88363   0.50362   0.83069   0.00000  Uiso   1.00
C1032  C     0.61637   0.49638   0.83597   0.00000  Uiso   1.00
C1033  C     0.90399   0.46068   0.79497   0.00000  Uiso   1.00
C1034  C     0.59601   0.53932   0.87169   0.00000  Uiso   1.00
C1035  C     0.95025   0.45796   0.79830   0.00000  Uiso   1.00
C1036  C     0.54975   0.54204   0.86837   0.00000  Uiso   1.00
C1037  C     0.97665   0.50153   0.83258   0.00000  Uiso   1.00
C1038  C     0.52335   0.49847   0.83408   0.00000  Uiso   1.00
C1039  C     0.95627   0.54808   0.86489   0.00000  Uiso   1.00
C1040  C     0.54373   0.45192   0.80178   0.00000  Uiso   1.00
C1041  C     0.96993   0.41105   0.76977   0.00000  Uiso   1.00
C1042  C     0.53007   0.58895   0.89690   0.00000  Uiso   1.00
Cu1043 Cu    0.75501   0.50579   0.89479   0.00000  Uiso   1.00
Cu1044 Cu    0.74500   0.49421   0.77187   0.00000  Uiso   1.00
H1045  H     0.88351   0.42749   0.76805   0.00000  Uiso   1.00
H1046  H     0.61649   0.57251   0.89862   0.00000  Uiso   1.00
H1047  H     0.94838   0.37787   0.74581   0.00000  Uiso   1.00
H1048  H     0.55162   0.62213   0.92085   0.00000  Uiso   1.00
H1049  H     0.74408   0.65324   0.76211   0.00000  Uiso   1.00
H1050  H     0.75592   0.34676   0.90455   0.00000  Uiso   1.00
H1051  H     0.71531   0.45971   0.98292   0.00000  Uiso   1.00
H1052  H     0.78469   0.54029   0.68374   0.00000  Uiso   1.00
N1053  N     0.73745   0.48547   0.67951   0.00000  Uiso   1.00
N1054  N     0.76256   0.51453   0.98716   0.00000  Uiso   1.00
O1055  O     0.75326   0.42871   0.87326   0.00000  Uiso   1.00
O1056  O     0.74675   0.57129   0.79341   0.00000  Uiso   1.00
O1057  O     0.74480   0.41892   0.76945   0.00000  Uiso   1.00
O1058  O     0.75520   0.58108   0.89721   0.00000  Uiso   1.00
O1059  O     0.68936   0.50488   0.88524   0.00000  Uiso   1.00
O1060  O     0.81065   0.49512   0.78143   0.00000  Uiso   1.00
O1061  O     0.68090   0.49510   0.78143   0.00000  Uiso   1.00
O1062  O     0.81910   0.50490   0.88523   0.00000  Uiso   1.00
N1063  N     0.88812   0.58529   0.91229   0.00000  Uiso   1.00
H1064  H     0.85700   0.59626   0.89833   0.00000  Uiso   1.00
C1065  C     0.89105   0.57682   0.97432   0.00000  Uiso   1.00
H1066  H     0.87920   0.61226   0.67324   0.00000  Uiso   1.00
H1067  H     0.92609   0.57025   0.98910   0.00000  Uiso   1.00
H1068  H     0.87022   0.54180   0.97713   0.00000  Uiso   1.00
N1069  N     0.61188   0.41471   0.75437   0.00000  Uiso   1.00
H1070  H     0.64300   0.40374   0.76833   0.00000  Uiso   1.00
C1071  C     0.60895   0.42318   0.69235   0.00000  Uiso   1.00
H1072  H     0.62082   0.38776   0.99343   0.00000  Uiso   1.00
H1073  H     0.62977   0.45821   0.68954   0.00000  Uiso   1.00
H1074  H     0.57392   0.42975   0.67756   0.00000  Uiso   1.00
C1075  C     0.53638   0.35081   0.75545   0.00000  Uiso   1.00
C1076  C     0.50404   0.63637   0.74754   0.00000  Uiso   1.00
H1077  H     0.98263   0.64053   0.78670   0.00000  Uiso   1.00
H1078  H     0.98273   0.63172   0.70445   0.00000  Uiso   1.00
H1079  H     0.52322   0.59971   0.74446   0.00000  Uiso   1.00
H1080  H     0.55256   0.34650   0.71159   0.00000  Uiso   1.00
H1081  H     0.56241   0.34691   0.79166   0.00000  Uiso   1.00
C1082  C     0.96362   0.64919   0.91122   0.00000  Uiso   1.00
C1083  C     0.99596   0.36363   0.91913   0.00000  Uiso   1.00
H1084  H     0.51727   0.36828   0.96221   0.00000  Uiso   1.00
H1085  H     0.51737   0.35947   0.87997   0.00000  Uiso   1.00
H1086  H     0.97678   0.40029   0.92220   0.00000  Uiso   1.00
H1087  H     0.93759   0.65309   0.87500   0.00000  Uiso   1.00
H1088  H     0.94744   0.65350   0.95507   0.00000  Uiso   1.00
C1089  C     0.24869   0.73326   0.81774   0.00000  Uiso   1.00
C1090  C     0.25131   0.93341   0.84893   0.00000  Uiso   1.00
C1091  C     0.01642   0.73915   0.77416   0.00000  Uiso   1.00
C1092  C     0.48358   0.92751   0.89250   0.00000  Uiso   1.00
C1093  C     0.24797   0.67721   0.80898   0.00000  Uiso   1.00
C1094  C     0.25203   0.98945   0.85769   0.00000  Uiso   1.00
C1095  C     0.16456   0.83241   0.83428   0.00000  Uiso   1.00
C1096  C     0.33544   0.83426   0.83239   0.00000  Uiso   1.00
C1097  C     0.40924   0.87973   0.86828   0.00000  Uiso   1.00
C1098  C     0.09076   0.78693   0.79838   0.00000  Uiso   1.00
C1099  C     0.38363   0.83695   0.83069   0.00000  Uiso   1.00
C1100  C     0.11637   0.82971   0.83597   0.00000  Uiso   1.00
C1101  C     0.40399   0.79401   0.79497   0.00000  Uiso   1.00
C1102  C     0.09601   0.87265   0.87169   0.00000  Uiso   1.00
C1103  C     0.45025   0.79129   0.79830   0.00000  Uiso   1.00
C1104  C     0.04975   0.87537   0.86837   0.00000  Uiso   1.00
C1105  C     0.47665   0.83486   0.83258   0.00000  Uiso   1.00
C1106  C     0.02335   0.83180   0.83408   0.00000  Uiso   1.00
C1107  C     0.45627   0.88142   0.86489   0.00000  Uiso   1.00
C1108  C     0.04373   0.78525   0.80178   0.00000  Uiso   1.00
C1109  C     0.46993   0.74438   0.76977   0.00000  Uiso   1.00
C1110  C     0.03007   0.92228   0.89690   0.00000  Uiso   1.00
Cu1111 Cu    0.25501   0.83913   0.89479   0.00000  Uiso   1.00
Cu1112 Cu    0.24500   0.82754   0.77187   0.00000  Uiso   1.00
H1113  H     0.38351   0.76082   0.76805   0.00000  Uiso   1.00
H1114  H     0.11649   0.90584   0.89862   0.00000  Uiso   1.00
H1115  H     0.44838   0.71121   0.74581   0.00000  Uiso   1.00
H1116  H     0.05162   0.95546   0.92085   0.00000  Uiso   1.00
H1117  H     0.24408   0.98657   0.76211   0.00000  Uiso   1.00
H1118  H     0.25592   0.68010   0.90455   0.00000  Uiso   1.00
H1119  H     0.21531   0.79304   0.98292   0.00000  Uiso   1.00
H1120  H     0.28469   0.87363   0.68374   0.00000  Uiso   1.00
N1121  N     0.23745   0.81881   0.67951   0.00000  Uiso   1.00
N1122  N     0.26256   0.84786   0.98716   0.00000  Uiso   1.00
O1123  O     0.25326   0.76204   0.87326   0.00000  Uiso   1.00
O1124  O     0.24675   0.90462   0.79341   0.00000  Uiso   1.00
O1125  O     0.24480   0.75226   0.76945   0.00000  Uiso   1.00
O1126  O     0.25520   0.91441   0.89721   0.00000  Uiso   1.00
O1127  O     0.18936   0.83821   0.88524   0.00000  Uiso   1.00
O1128  O     0.31065   0.82845   0.78143   0.00000  Uiso   1.00
O1129  O     0.18090   0.82843   0.78143   0.00000  Uiso   1.00
O1130  O     0.31910   0.83824   0.88523   0.00000  Uiso   1.00
N1131  N     0.38812   0.91863   0.91229   0.00000  Uiso   1.00
H1132  H     0.35700   0.92959   0.89833   0.00000  Uiso   1.00
C1133  C     0.39105   0.91016   0.97432   0.00000  Uiso   1.00
H1134  H     0.37920   0.94560   0.67324   0.00000  Uiso   1.00
H1135  H     0.42609   0.90358   0.98910   0.00000  Uiso   1.00
H1136  H     0.37022   0.87514   0.97713   0.00000  Uiso   1.00
N1137  N     0.11188   0.74804   0.75437   0.00000  Uiso   1.00
H1138  H     0.14300   0.73708   0.76833   0.00000  Uiso   1.00
C1139  C     0.10895   0.75652   0.69235   0.00000  Uiso   1.00
H1140  H     0.12082   0.72110   0.99343   0.00000  Uiso   1.00
H1141  H     0.12977   0.79155   0.68954   0.00000  Uiso   1.00
H1142  H     0.07392   0.76308   0.67756   0.00000  Uiso   1.00
C1143  C     0.03638   0.68415   0.75545   0.00000  Uiso   1.00
C1144  C     0.00404   0.96971   0.74754   0.00000  Uiso   1.00
H1145  H     0.48263   0.97387   0.78670   0.00000  Uiso   1.00
H1146  H     0.48273   0.96505   0.70445   0.00000  Uiso   1.00
H1147  H     0.02322   0.93305   0.74446   0.00000  Uiso   1.00
H1148  H     0.05256   0.67983   0.71159   0.00000  Uiso   1.00
H1149  H     0.06241   0.68024   0.79166   0.00000  Uiso   1.00
C1150  C     0.46362   0.98252   0.91122   0.00000  Uiso   1.00
C1151  C     0.49596   0.69696   0.91913   0.00000  Uiso   1.00
H1152  H     0.01727   0.70161   0.96221   0.00000  Uiso   1.00
H1153  H     0.01737   0.69280   0.87997   0.00000  Uiso   1.00
H1154  H     0.47678   0.73362   0.92220   0.00000  Uiso   1.00
H1155  H     0.43759   0.98642   0.87500   0.00000  Uiso   1.00
H1156  H     0.44744   0.98684   0.95507   0.00000  Uiso   1.00
C1157  C     0.74869   0.73326   0.81774   0.00000  Uiso   1.00
C1158  C     0.75131   0.93341   0.84893   0.00000  Uiso   1.00
C1159  C     0.51642   0.73915   0.77416   0.00000  Uiso   1.00
C1160  C     0.98358   0.92751   0.89250   0.00000  Uiso   1.00
C1161  C     0.74797   0.67721   0.80898   0.00000  Uiso   1.00
C1162  C     0.75203   0.98945   0.85769   0.00000  Uiso   1.00
C1163  C     0.66456   0.83241   0.83428   0.00000  Uiso   1.00
C1164  C     0.83544   0.83426   0.83239   0.00000  Uiso   1.00
C1165  C     0.90924   0.87973   0.86828   0.00000  Uiso   1.00
C1166  C     0.59076   0.78693   0.79838   0.00000  Uiso   1.00
C1167  C     0.88363   0.83695   0.83069   0.00000  Uiso   1.00
C1168  C     0.61637   0.82971   0.83597   0.00000  Uiso   1.00
C1169  C     0.90399   0.79401   0.79497   0.00000  Uiso   1.00
C1170  C     0.59601   0.87265   0.87169   0.00000  Uiso   1.00
C1171  C     0.95025   0.79129   0.79830   0.00000  Uiso   1.00
C1172  C     0.54975   0.87537   0.86837   0.00000  Uiso   1.00
C1173  C     0.97665   0.83486   0.83258   0.00000  Uiso   1.00
C1174  C     0.52335   0.83180   0.83408   0.00000  Uiso   1.00
C1175  C     0.95627   0.88142   0.86489   0.00000  Uiso   1.00
C1176  C     0.54373   0.78525   0.80178   0.00000  Uiso   1.00
C1177  C     0.96993   0.74438   0.76977   0.00000  Uiso   1.00
C1178  C     0.53007   0.92228   0.89690   0.00000  Uiso   1.00
Cu1179 Cu    0.75501   0.83913   0.89479   0.00000  Uiso   1.00
Cu1180 Cu    0.74500   0.82754   0.77187   0.00000  Uiso   1.00
H1181  H     0.88351   0.76082   0.76805   0.00000  Uiso   1.00
H1182  H     0.61649   0.90584   0.89862   0.00000  Uiso   1.00
H1183  H     0.94838   0.71121   0.74581   0.00000  Uiso   1.00
H1184  H     0.55162   0.95546   0.92085   0.00000  Uiso   1.00
H1185  H     0.74408   0.98657   0.76211   0.00000  Uiso   1.00
H1186  H     0.75592   0.68010   0.90455   0.00000  Uiso   1.00
H1187  H     0.71531   0.79304   0.98292   0.00000  Uiso   1.00
H1188  H     0.78469   0.87363   0.68374   0.00000  Uiso   1.00
N1189  N     0.73745   0.81881   0.67951   0.00000  Uiso   1.00
N1190  N     0.76256   0.84786   0.98716   0.00000  Uiso   1.00
O1191  O     0.75326   0.76204   0.87326   0.00000  Uiso   1.00
O1192  O     0.74675   0.90462   0.79341   0.00000  Uiso   1.00
O1193  O     0.74480   0.75226   0.76945   0.00000  Uiso   1.00
O1194  O     0.75520   0.91441   0.89721   0.00000  Uiso   1.00
O1195  O     0.68936   0.83821   0.88524   0.00000  Uiso   1.00
O1196  O     0.81065   0.82845   0.78143   0.00000  Uiso   1.00
O1197  O     0.68090   0.82843   0.78143   0.00000  Uiso   1.00
O1198  O     0.81910   0.83824   0.88523   0.00000  Uiso   1.00
N1199  N     0.88812   0.91863   0.91229   0.00000  Uiso   1.00
H1200  H     0.85700   0.92959   0.89833   0.00000  Uiso   1.00
C1201  C     0.89105   0.91016   0.97432   0.00000  Uiso   1.00
H1202  H     0.87920   0.94560   0.67324   0.00000  Uiso   1.00
H1203  H     0.92609   0.90358   0.98910   0.00000  Uiso   1.00
H1204  H     0.87022   0.87514   0.97713   0.00000  Uiso   1.00
N1205  N     0.61188   0.74804   0.75437   0.00000  Uiso   1.00
H1206  H     0.64300   0.73708   0.76833   0.00000  Uiso   1.00
C1207  C     0.60895   0.75652   0.69235   0.00000  Uiso   1.00
H1208  H     0.62082   0.72110   0.99343   0.00000  Uiso   1.00
H1209  H     0.62977   0.79155   0.68954   0.00000  Uiso   1.00
H1210  H     0.57392   0.76308   0.67756   0.00000  Uiso   1.00
C1211  C     0.53638   0.68415   0.75545   0.00000  Uiso   1.00
C1212  C     0.50404   0.96971   0.74754   0.00000  Uiso   1.00
H1213  H     0.98263   0.97387   0.78670   0.00000  Uiso   1.00
H1214  H     0.98273   0.96505   0.70445   0.00000  Uiso   1.00
H1215  H     0.52322   0.93305   0.74446   0.00000  Uiso   1.00
H1216  H     0.55256   0.67983   0.71159   0.00000  Uiso   1.00
H1217  H     0.56241   0.68024   0.79166   0.00000  Uiso   1.00
C1218  C     0.96362   0.98252   0.91122   0.00000  Uiso   1.00
C1219  C     0.99596   0.69696   0.91913   0.00000  Uiso   1.00
H1220  H     0.51727   0.70161   0.96221   0.00000  Uiso   1.00
H1221  H     0.51737   0.69280   0.87997   0.00000  Uiso   1.00
H1222  H     0.97678   0.73362   0.92220   0.00000  Uiso   1.00
H1223  H     0.93759   0.98642   0.87500   0.00000  Uiso   1.00
H1224  H     0.94744   0.98684   0.95507   0.00000  Uiso   1.00
loop_
_geom_bond_atom_site_label_1
_geom_bond_atom_site_label_2
_geom_bond_distance
_geom_bond_site_symmetry_2
_ccdc_geom_bond_type
C1     O37     1.284   .     A
C1     C5      1.421   .     S
C1     O35     1.292   .     A
C2     O38     1.284   .     A
C2     O36     1.292   .     A
C2     C6      1.421   .     S
C3     C20     1.430   .     A
C3     C55     1.536   .     S
C3     C89     1.403   1_455 S
C4     C19     1.430   .     A
C4     C62     1.536   .     S
C4     C90     1.403   .     S
C5     C278    1.325   1_545 S
C5     H301    1.088   1_545 S
C6     C141    1.325   .     S
C6     H166    1.088   .     S
C7     O41     1.291   .     A
C7     C12     1.449   .     S
C7     O39     1.298   .     A
C8     C11     1.449   .     S
C8     O42     1.291   .     A
C8     O40     1.298   .     A
C9     C11     1.411   .     A
C9     N43     1.427   .     S
C9     C19     1.418   .     A
C10    C20     1.418   .     A
C10    C12     1.411   .     A
C10    N49     1.427   .     S
C11    C13     1.390   .     A
C12    C14     1.390   .     A
C13    H25     1.086   .     S
C13    C15     1.389   .     A
C14    H26     1.086   .     S
C14    C16     1.389   .     A
C15    C21     1.398   .     A
C15    C17     1.410   .     A
C16    C18     1.410   .     A
C16    C22     1.398   .     A
C17    C19     1.428   .     A
C17    C86     1.404   .     S
C18    C20     1.428   .     A
C18    C85     1.404   1_455 S
C21    H27     1.082   .     S
C21    C71     1.403   .     S
C22    H28     1.082   .     S
C22    C72     1.403   1_455 S
Cu23   O38     1.940   .     S
Cu23   O35     1.945   .     S
Cu23   N34     2.023   .     S
Cu23   O42     1.948   .     S
Cu23   O39     1.967   .     S
Cu23   Cu24    2.693   .     S
Cu24   N33     2.023   .     S
Cu24   O37     1.940   .     S
Cu24   O41     1.948   .     S
Cu24   O36     1.945   .     S
Cu24   O40     1.967   .     S
H29    C141    1.088   .     S
H30    C278    1.088   1_545 S
H31    N441    1.029   .     S
H32    N850    1.029   1_554 S
N33    H847    1.029   1_554 S
N33    N850    1.302   1_554 S
N34    N441    1.302   .     S
N34    H440    1.029   .     S
N43    H44     1.031   .     S
N43    C45     1.450   .     S
C45    H47     1.110   .     S
C45    H48     1.109   .     S
C45    H454    1.111   .     S
H46    C861    1.111   1_554 S
N49    C51     1.450   .     S
N49    H50     1.031   .     S
C51    H54     1.110   .     S
C51    H53     1.109   .     S
C51    H868    1.110   1_554 S
H52    C459    1.110   .     S
C55    H60     1.105   .     S
C55    H61     1.112   .     S
C55    C328    1.530   1_545 S
C56    H59     1.111   .     S
C56    C191    1.530   .     S
C56    H125    1.105   1_455 S
C56    H126    1.103   1_455 S
H57    C124    1.105   .     S
H58    C124    1.103   .     S
C62    H68     1.105   .     S
C62    H67     1.112   .     S
C62    C199    1.530   .     S
C63    H66     1.111   .     S
C63    C334    1.530   1_545 S
C63    H132    1.103   .     S
C63    H133    1.105   .     S
H64    C131    1.103   1_455 S
H65    C131    1.105   1_455 S
C69    O105    1.284   .     A
C69    C73     1.421   .     S
C69    O103    1.292   .     A
C70    O106    1.284   .     A
C70    O104    1.292   .     A
C70    C74     1.421   .     S
C71    C88     1.430   .     A
C71    C123    1.536   .     S
C72    C87     1.430   .     A
C72    C130    1.536   .     S
C72    C22     1.403   1_655 S
C73    C346    1.325   1_545 S
C73    H369    1.088   1_545 S
C74    C209    1.325   .     S
C74    H234    1.088   .     S
C75    O109    1.291   .     A
C75    C80     1.449   .     S
C75    O107    1.298   .     A
C76    C79     1.449   .     S
C76    O110    1.291   .     A
C76    O108    1.298   .     A
C77    C79     1.411   .     A
C77    N111    1.427   .     S
C77    C87     1.418   .     A
C78    C88     1.418   .     A
C78    C80     1.411   .     A
C78    N117    1.427   .     S
C79    C81     1.390   .     A
C80    C82     1.390   .     A
C81    H93     1.086   .     S
C81    C83     1.389   .     A
C82    H94     1.086   .     S
C82    C84     1.389   .     A
C83    C89     1.398   .     A
C83    C85     1.410   .     A
C84    C86     1.410   .     A
C84    C90     1.398   .     A
C85    C87     1.428   .     A
C85    C18     1.404   1_655 S
C86    C88     1.428   .     A
C89    H95     1.082   .     S
C89    C3      1.403   1_655 S
C90    H96     1.082   .     S
Cu91   O106    1.940   .     S
Cu91   O103    1.945   .     S
Cu91   N102    2.023   .     S
Cu91   O110    1.948   .     S
Cu91   O107    1.967   .     S
Cu91   Cu92    2.693   .     S
Cu92   N101    2.023   .     S
Cu92   O105    1.940   .     S
Cu92   O109    1.948   .     S
Cu92   O104    1.945   .     S
Cu92   O108    1.967   .     S
H97    C209    1.088   .     S
H98    C346    1.088   1_545 S
H99    N509    1.029   .     S
H100   N918    1.029   1_554 S
N101   H915    1.029   1_554 S
N101   N918    1.302   1_554 S
N102   N509    1.302   .     S
N102   H508    1.029   .     S
N111   H112    1.031   .     S
N111   C113    1.450   .     S
C113   H115    1.110   .     S
C113   H116    1.109   .     S
C113   H522    1.111   .     S
H114   C929    1.111   1_554 S
N117   C119    1.450   .     S
N117   H118    1.031   .     S
C119   H122    1.110   .     S
C119   H121    1.109   .     S
C119   H936    1.110   1_554 S
H120   C527    1.110   .     S
C123   H128    1.105   .     S
C123   H129    1.112   .     S
C123   C396    1.530   1_545 S
C124   H127    1.111   .     S
C124   C259    1.530   .     S
H125   C56     1.105   1_655 S
H126   C56     1.103   1_655 S
C130   H136    1.105   .     S
C130   H135    1.112   .     S
C130   C267    1.530   .     S
C131   H134    1.111   .     S
C131   C402    1.530   1_545 S
C131   H64     1.103   1_655 S
C131   H65     1.105   1_655 S
C137   O173    1.284   .     A
C137   C141    1.421   .     S
C137   O171    1.292   .     A
C138   O174    1.284   .     A
C138   O172    1.292   .     A
C138   C142    1.421   .     S
C139   C156    1.430   .     A
C139   C191    1.536   .     S
C139   C225    1.403   1_455 S
C140   C155    1.430   .     A
C140   C198    1.536   .     S
C140   C226    1.403   .     S
C142   C277    1.325   .     S
C142   H302    1.088   .     S
C143   O177    1.291   .     A
C143   C148    1.449   .     S
C143   O175    1.298   .     A
C144   C147    1.449   .     S
C144   O178    1.291   .     A
C144   O176    1.298   .     A
C145   C147    1.411   .     A
C145   N179    1.427   .     S
C145   C155    1.418   .     A
C146   C156    1.418   .     A
C146   C148    1.411   .     A
C146   N185    1.427   .     S
C147   C149    1.390   .     A
C148   C150    1.390   .     A
C149   H161    1.086   .     S
C149   C151    1.389   .     A
C150   H162    1.086   .     S
C150   C152    1.389   .     A
C151   C157    1.398   .     A
C151   C153    1.410   .     A
C152   C154    1.410   .     A
C152   C158    1.398   .     A
C153   C155    1.428   .     A
C153   C222    1.404   .     S
C154   C156    1.428   .     A
C154   C221    1.404   1_455 S
C157   H163    1.082   .     S
C157   C207    1.403   .     S
C158   H164    1.082   .     S
C158   C208    1.403   1_455 S
Cu159  O174    1.940   .     S
Cu159  O171    1.945   .     S
Cu159  N170    2.023   .     S
Cu159  O178    1.948   .     S
Cu159  O175    1.967   .     S
Cu159  Cu160   2.693   .     S
Cu160  N169    2.023   .     S
Cu160  O173    1.940   .     S
Cu160  O177    1.948   .     S
Cu160  O172    1.945   .     S
Cu160  O176    1.967   .     S
H165   C277    1.088   .     S
H167   N577    1.029   .     S
H168   N986    1.029   1_554 S
N169   H983    1.029   1_554 S
N169   N986    1.302   1_554 S
N170   N577    1.302   .     S
N170   H576    1.029   .     S
N179   H180    1.031   .     S
N179   C181    1.450   .     S
C181   H183    1.110   .     S
C181   H184    1.109   .     S
C181   H590    1.111   .     S
H182   C997    1.111   1_554 S
N185   C187    1.450   .     S
N185   H186    1.031   .     S
C187   H190    1.110   .     S
C187   H189    1.109   .     S
C187   H1004   1.110   1_554 S
H188   C595    1.110   .     S
C191   H196    1.105   .     S
C191   H197    1.112   .     S
C192   H195    1.111   .     S
C192   C327    1.530   .     S
C192   H261    1.105   1_455 S
C192   H262    1.103   1_455 S
H193   C260    1.105   .     S
H194   C260    1.103   .     S
C198   H204    1.105   .     S
C198   H203    1.112   .     S
C198   C335    1.530   .     S
C199   H202    1.111   .     S
C199   H268    1.103   .     S
C199   H269    1.105   .     S
H200   C267    1.103   1_455 S
H201   C267    1.105   1_455 S
C205   O241    1.284   .     A
C205   C209    1.421   .     S
C205   O239    1.292   .     A
C206   O242    1.284   .     A
C206   O240    1.292   .     A
C206   C210    1.421   .     S
C207   C224    1.430   .     A
C207   C259    1.536   .     S
C208   C223    1.430   .     A
C208   C266    1.536   .     S
C208   C158    1.403   1_655 S
C210   C345    1.325   .     S
C210   H370    1.088   .     S
C211   O245    1.291   .     A
C211   C216    1.449   .     S
C211   O243    1.298   .     A
C212   C215    1.449   .     S
C212   O246    1.291   .     A
C212   O244    1.298   .     A
C213   C215    1.411   .     A
C213   N247    1.427   .     S
C213   C223    1.418   .     A
C214   C224    1.418   .     A
C214   C216    1.411   .     A
C214   N253    1.427   .     S
C215   C217    1.390   .     A
C216   C218    1.390   .     A
C217   H229    1.086   .     S
C217   C219    1.389   .     A
C218   H230    1.086   .     S
C218   C220    1.389   .     A
C219   C225    1.398   .     A
C219   C221    1.410   .     A
C220   C222    1.410   .     A
C220   C226    1.398   .     A
C221   C223    1.428   .     A
C221   C154    1.404   1_655 S
C222   C224    1.428   .     A
C225   H231    1.082   .     S
C225   C139    1.403   1_655 S
C226   H232    1.082   .     S
Cu227  O242    1.940   .     S
Cu227  O239    1.945   .     S
Cu227  N238    2.023   .     S
Cu227  O246    1.948   .     S
Cu227  O243    1.967   .     S
Cu227  Cu228   2.693   .     S
Cu228  N237    2.023   .     S
Cu228  O241    1.940   .     S
Cu228  O245    1.948   .     S
Cu228  O240    1.945   .     S
Cu228  O244    1.967   .     S
H233   C345    1.088   .     S
H235   N645    1.029   .     S
H236   N1054   1.029   1_554 S
N237   H1051   1.029   1_554 S
N237   N1054   1.302   1_554 S
N238   N645    1.302   .     S
N238   H644    1.029   .     S
N247   H248    1.031   .     S
N247   C249    1.450   .     S
C249   H251    1.110   .     S
C249   H252    1.109   .     S
C249   H658    1.111   .     S
H250   C1065   1.111   1_554 S
N253   C255    1.450   .     S
N253   H254    1.031   .     S
C255   H258    1.110   .     S
C255   H257    1.109   .     S
C255   H1072   1.110   1_554 S
H256   C663    1.110   .     S
C259   H264    1.105   .     S
C259   H265    1.112   .     S
C260   H263    1.111   .     S
C260   C395    1.530   .     S
H261   C192    1.105   1_655 S
H262   C192    1.103   1_655 S
C266   H272    1.105   .     S
C266   H271    1.112   .     S
C266   C403    1.530   .     S
C267   H270    1.111   .     S
C267   H200    1.103   1_655 S
C267   H201    1.105   1_655 S
C273   O309    1.284   .     A
C273   C277    1.421   .     S
C273   O307    1.292   .     A
C274   O310    1.284   .     A
C274   O308    1.292   .     A
C274   C278    1.421   .     S
C275   C292    1.430   .     A
C275   C327    1.536   .     S
C275   C361    1.403   1_455 S
C276   C291    1.430   .     A
C276   C334    1.536   .     S
C276   C362    1.403   .     S
C278   C5      1.325   1_565 S
C278   H30     1.088   1_565 S
C279   O313    1.291   .     A
C279   C284    1.449   .     S
C279   O311    1.298   .     A
C280   C283    1.449   .     S
C280   O314    1.291   .     A
C280   O312    1.298   .     A
C281   C283    1.411   .     A
C281   N315    1.427   .     S
C281   C291    1.418   .     A
C282   C292    1.418   .     A
C282   C284    1.411   .     A
C282   N321    1.427   .     S
C283   C285    1.390   .     A
C284   C286    1.390   .     A
C285   H297    1.086   .     S
C285   C287    1.389   .     A
C286   H298    1.086   .     S
C286   C288    1.389   .     A
C287   C293    1.398   .     A
C287   C289    1.410   .     A
C288   C290    1.410   .     A
C288   C294    1.398   .     A
C289   C291    1.428   .     A
C289   C358    1.404   .     S
C290   C292    1.428   .     A
C290   C357    1.404   1_455 S
C293   H299    1.082   .     S
C293   C343    1.403   .     S
C294   H300    1.082   .     S
C294   C344    1.403   1_455 S
Cu295  O310    1.940   .     S
Cu295  O307    1.945   .     S
Cu295  N306    2.023   .     S
Cu295  O314    1.948   .     S
Cu295  O311    1.967   .     S
Cu295  Cu296   2.693   .     S
Cu296  N305    2.023   .     S
Cu296  O309    1.940   .     S
Cu296  O313    1.948   .     S
Cu296  O308    1.945   .     S
Cu296  O312    1.967   .     S
H301   C5      1.088   1_565 S
H303   N713    1.029   .     S
H304   N1122   1.029   1_554 S
N305   H1119   1.029   1_554 S
N305   N1122   1.302   1_554 S
N306   N713    1.302   .     S
N306   H712    1.029   .     S
N315   H316    1.031   .     S
N315   C317    1.450   .     S
C317   H319    1.110   .     S
C317   H320    1.109   .     S
C317   H726    1.111   .     S
H318   C1133   1.111   1_554 S
N321   C323    1.450   .     S
N321   H322    1.031   .     S
C323   H326    1.110   .     S
C323   H325    1.109   .     S
C323   H1140   1.110   1_554 S
H324   C731    1.110   .     S
C327   H332    1.105   .     S
C327   H333    1.112   .     S
C328   H331    1.111   .     S
C328   C55     1.530   1_565 S
C328   H397    1.105   1_455 S
C328   H398    1.103   1_455 S
H329   C396    1.105   .     S
H330   C396    1.103   .     S
C334   H340    1.105   .     S
C334   H339    1.112   .     S
C334   C63     1.530   1_565 S
C335   H338    1.111   .     S
C335   H404    1.103   .     S
C335   H405    1.105   .     S
H336   C403    1.103   1_455 S
H337   C403    1.105   1_455 S
C341   O377    1.284   .     A
C341   C345    1.421   .     S
C341   O375    1.292   .     A
C342   O378    1.284   .     A
C342   O376    1.292   .     A
C342   C346    1.421   .     S
C343   C360    1.430   .     A
C343   C395    1.536   .     S
C344   C359    1.430   .     A
C344   C402    1.536   .     S
C344   C294    1.403   1_655 S
C346   C73     1.325   1_565 S
C346   H98     1.088   1_565 S
C347   O381    1.291   .     A
C347   C352    1.449   .     S
C347   O379    1.298   .     A
C348   C351    1.449   .     S
C348   O382    1.291   .     A
C348   O380    1.298   .     A
C349   C351    1.411   .     A
C349   N383    1.427   .     S
C349   C359    1.418   .     A
C350   C360    1.418   .     A
C350   C352    1.411   .     A
C350   N389    1.427   .     S
C351   C353    1.390   .     A
C352   C354    1.390   .     A
C353   H365    1.086   .     S
C353   C355    1.389   .     A
C354   H366    1.086   .     S
C354   C356    1.389   .     A
C355   C361    1.398   .     A
C355   C357    1.410   .     A
C356   C358    1.410   .     A
C356   C362    1.398   .     A
C357   C359    1.428   .     A
C357   C290    1.404   1_655 S
C358   C360    1.428   .     A
C361   H367    1.082   .     S
C361   C275    1.403   1_655 S
C362   H368    1.082   .     S
Cu363  O378    1.940   .     S
Cu363  O375    1.945   .     S
Cu363  N374    2.023   .     S
Cu363  O382    1.948   .     S
Cu363  O379    1.967   .     S
Cu363  Cu364   2.693   .     S
Cu364  N373    2.023   .     S
Cu364  O377    1.940   .     S
Cu364  O381    1.948   .     S
Cu364  O376    1.945   .     S
Cu364  O380    1.967   .     S
H369   C73     1.088   1_565 S
H371   N781    1.029   .     S
H372   N1190   1.029   1_554 S
N373   H1187   1.029   1_554 S
N373   N1190   1.302   1_554 S
N374   N781    1.302   .     S
N374   H780    1.029   .     S
N383   H384    1.031   .     S
N383   C385    1.450   .     S
C385   H387    1.110   .     S
C385   H388    1.109   .     S
C385   H794    1.111   .     S
H386   C1201   1.111   1_554 S
N389   C391    1.450   .     S
N389   H390    1.031   .     S
C391   H394    1.110   .     S
C391   H393    1.109   .     S
C391   H1208   1.110   1_554 S
H392   C799    1.110   .     S
C395   H400    1.105   .     S
C395   H401    1.112   .     S
C396   H399    1.111   .     S
C396   C123    1.530   1_565 S
H397   C328    1.105   1_655 S
H398   C328    1.103   1_655 S
C402   H408    1.105   .     S
C402   H407    1.112   .     S
C402   C131    1.530   1_565 S
C403   H406    1.111   .     S
C403   H336    1.103   1_655 S
C403   H337    1.105   1_655 S
C409   O445    1.284   .     A
C409   C413    1.421   .     S
C409   O443    1.292   .     A
C410   O446    1.284   .     A
C410   O444    1.292   .     A
C410   C414    1.421   .     S
C411   C428    1.430   .     A
C411   C463    1.536   .     S
C411   C497    1.403   1_455 S
C412   C427    1.430   .     A
C412   C470    1.536   .     S
C412   C498    1.403   .     S
C413   C686    1.325   1_545 S
C413   H709    1.088   1_545 S
C414   C549    1.325   .     S
C414   H574    1.088   .     S
C415   O449    1.291   .     A
C415   C420    1.449   .     S
C415   O447    1.298   .     A
C416   C419    1.449   .     S
C416   O450    1.291   .     A
C416   O448    1.298   .     A
C417   C419    1.411   .     A
C417   N451    1.427   .     S
C417   C427    1.418   .     A
C418   C428    1.418   .     A
C418   C420    1.411   .     A
C418   N457    1.427   .     S
C419   C421    1.390   .     A
C420   C422    1.390   .     A
C421   H433    1.086   .     S
C421   C423    1.389   .     A
C422   H434    1.086   .     S
C422   C424    1.389   .     A
C423   C429    1.398   .     A
C423   C425    1.410   .     A
C424   C426    1.410   .     A
C424   C430    1.398   .     A
C425   C427    1.428   .     A
C425   C494    1.404   .     S
C426   C428    1.428   .     A
C426   C493    1.404   1_455 S
C429   H435    1.082   .     S
C429   C479    1.403   .     S
C430   H436    1.082   .     S
C430   C480    1.403   1_455 S
Cu431  O446    1.940   .     S
Cu431  O443    1.945   .     S
Cu431  N442    2.023   .     S
Cu431  O450    1.948   .     S
Cu431  O447    1.967   .     S
Cu431  Cu432   2.693   .     S
Cu432  N441    2.023   .     S
Cu432  O445    1.940   .     S
Cu432  O449    1.948   .     S
Cu432  O444    1.945   .     S
Cu432  O448    1.967   .     S
H437   C549    1.088   .     S
H438   C686    1.088   1_545 S
H439   N849    1.029   .     S
N442   N849    1.302   .     S
N442   H848    1.029   .     S
N451   H452    1.031   .     S
N451   C453    1.450   .     S
C453   H455    1.110   .     S
C453   H456    1.109   .     S
C453   H862    1.111   .     S
N457   C459    1.450   .     S
N457   H458    1.031   .     S
C459   H462    1.110   .     S
C459   H461    1.109   .     S
H460   C867    1.110   .     S
C463   H468    1.105   .     S
C463   H469    1.112   .     S
C463   C736    1.530   1_545 S
C464   H467    1.111   .     S
C464   C599    1.530   .     S
C464   H533    1.105   1_455 S
C464   H534    1.103   1_455 S
H465   C532    1.105   .     S
H466   C532    1.103   .     S
C470   H476    1.105   .     S
C470   H475    1.112   .     S
C470   C607    1.530   .     S
C471   H474    1.111   .     S
C471   C742    1.530   1_545 S
C471   H540    1.103   .     S
C471   H541    1.105   .     S
H472   C539    1.103   1_455 S
H473   C539    1.105   1_455 S
C477   O513    1.284   .     A
C477   C481    1.421   .     S
C477   O511    1.292   .     A
C478   O514    1.284   .     A
C478   O512    1.292   .     A
C478   C482    1.421   .     S
C479   C496    1.430   .     A
C479   C531    1.536   .     S
C480   C495    1.430   .     A
C480   C538    1.536   .     S
C480   C430    1.403   1_655 S
C481   C754    1.325   1_545 S
C481   H777    1.088   1_545 S
C482   C617    1.325   .     S
C482   H642    1.088   .     S
C483   O517    1.291   .     A
C483   C488    1.449   .     S
C483   O515    1.298   .     A
C484   C487    1.449   .     S
C484   O518    1.291   .     A
C484   O516    1.298   .     A
C485   C487    1.411   .     A
C485   N519    1.427   .     S
C485   C495    1.418   .     A
C486   C496    1.418   .     A
C486   C488    1.411   .     A
C486   N525    1.427   .     S
C487   C489    1.390   .     A
C488   C490    1.390   .     A
C489   H501    1.086   .     S
C489   C491    1.389   .     A
C490   H502    1.086   .     S
C490   C492    1.389   .     A
C491   C497    1.398   .     A
C491   C493    1.410   .     A
C492   C494    1.410   .     A
C492   C498    1.398   .     A
C493   C495    1.428   .     A
C493   C426    1.404   1_655 S
C494   C496    1.428   .     A
C497   H503    1.082   .     S
C497   C411    1.403   1_655 S
C498   H504    1.082   .     S
Cu499  O514    1.940   .     S
Cu499  O511    1.945   .     S
Cu499  N510    2.023   .     S
Cu499  O518    1.948   .     S
Cu499  O515    1.967   .     S
Cu499  Cu500   2.693   .     S
Cu500  N509    2.023   .     S
Cu500  O513    1.940   .     S
Cu500  O517    1.948   .     S
Cu500  O512    1.945   .     S
Cu500  O516    1.967   .     S
H505   C617    1.088   .     S
H506   C754    1.088   1_545 S
H507   N917    1.029   .     S
N510   N917    1.302   .     S
N510   H916    1.029   .     S
N519   H520    1.031   .     S
N519   C521    1.450   .     S
C521   H523    1.110   .     S
C521   H524    1.109   .     S
C521   H930    1.111   .     S
N525   C527    1.450   .     S
N525   H526    1.031   .     S
C527   H530    1.110   .     S
C527   H529    1.109   .     S
H528   C935    1.110   .     S
C531   H536    1.105   .     S
C531   H537    1.112   .     S
C531   C804    1.530   1_545 S
C532   H535    1.111   .     S
C532   C667    1.530   .     S
H533   C464    1.105   1_655 S
H534   C464    1.103   1_655 S
C538   H544    1.105   .     S
C538   H543    1.112   .     S
C538   C675    1.530   .     S
C539   H542    1.111   .     S
C539   C810    1.530   1_545 S
C539   H472    1.103   1_655 S
C539   H473    1.105   1_655 S
C545   O581    1.284   .     A
C545   C549    1.421   .     S
C545   O579    1.292   .     A
C546   O582    1.284   .     A
C546   O580    1.292   .     A
C546   C550    1.421   .     S
C547   C564    1.430   .     A
C547   C599    1.536   .     S
C547   C633    1.403   1_455 S
C548   C563    1.430   .     A
C548   C606    1.536   .     S
C548   C634    1.403   .     S
C550   C685    1.325   .     S
C550   H710    1.088   .     S
C551   O585    1.291   .     A
C551   C556    1.449   .     S
C551   O583    1.298   .     A
C552   C555    1.449   .     S
C552   O586    1.291   .     A
C552   O584    1.298   .     A
C553   C555    1.411   .     A
C553   N587    1.427   .     S
C553   C563    1.418   .     A
C554   C564    1.418   .     A
C554   C556    1.411   .     A
C554   N593    1.427   .     S
C555   C557    1.390   .     A
C556   C558    1.390   .     A
C557   H569    1.086   .     S
C557   C559    1.389   .     A
C558   H570    1.086   .     S
C558   C560    1.389   .     A
C559   C565    1.398   .     A
C559   C561    1.410   .     A
C560   C562    1.410   .     A
C560   C566    1.398   .     A
C561   C563    1.428   .     A
C561   C630    1.404   .     S
C562   C564    1.428   .     A
C562   C629    1.404   1_455 S
C565   H571    1.082   .     S
C565   C615    1.403   .     S
C566   H572    1.082   .     S
C566   C616    1.403   1_455 S
Cu567  O582    1.940   .     S
Cu567  O579    1.945   .     S
Cu567  N578    2.023   .     S
Cu567  O586    1.948   .     S
Cu567  O583    1.967   .     S
Cu567  Cu568   2.693   .     S
Cu568  N577    2.023   .     S
Cu568  O581    1.940   .     S
Cu568  O585    1.948   .     S
Cu568  O580    1.945   .     S
Cu568  O584    1.967   .     S
H573   C685    1.088   .     S
H575   N985    1.029   .     S
N578   N985    1.302   .     S
N578   H984    1.029   .     S
N587   H588    1.031   .     S
N587   C589    1.450   .     S
C589   H591    1.110   .     S
C589   H592    1.109   .     S
C589   H998    1.111   .     S
N593   C595    1.450   .     S
N593   H594    1.031   .     S
C595   H598    1.110   .     S
C595   H597    1.109   .     S
H596   C1003   1.110   .     S
C599   H604    1.105   .     S
C599   H605    1.112   .     S
C600   H603    1.111   .     S
C600   C735    1.530   .     S
C600   H669    1.105   1_455 S
C600   H670    1.103   1_455 S
H601   C668    1.105   .     S
H602   C668    1.103   .     S
C606   H612    1.105   .     S
C606   H611    1.112   .     S
C606   C743    1.530   .     S
C607   H610    1.111   .     S
C607   H676    1.103   .     S
C607   H677    1.105   .     S
H608   C675    1.103   1_455 S
H609   C675    1.105   1_455 S
C613   O649    1.284   .     A
C613   C617    1.421   .     S
C613   O647    1.292   .     A
C614   O650    1.284   .     A
C614   O648    1.292   .     A
C614   C618    1.421   .     S
C615   C632    1.430   .     A
C615   C667    1.536   .     S
C616   C631    1.430   .     A
C616   C674    1.536   .     S
C616   C566    1.403   1_655 S
C618   C753    1.325   .     S
C618   H778    1.088   .     S
C619   O653    1.291   .     A
C619   C624    1.449   .     S
C619   O651    1.298   .     A
C620   C623    1.449   .     S
C620   O654    1.291   .     A
C620   O652    1.298   .     A
C621   C623    1.411   .     A
C621   N655    1.427   .     S
C621   C631    1.418   .     A
C622   C632    1.418   .     A
C622   C624    1.411   .     A
C622   N661    1.427   .     S
C623   C625    1.390   .     A
C624   C626    1.390   .     A
C625   H637    1.086   .     S
C625   C627    1.389   .     A
C626   H638    1.086   .     S
C626   C628    1.389   .     A
C627   C633    1.398   .     A
C627   C629    1.410   .     A
C628   C630    1.410   .     A
C628   C634    1.398   .     A
C629   C631    1.428   .     A
C629   C562    1.404   1_655 S
C630   C632    1.428   .     A
C633   H639    1.082   .     S
C633   C547    1.403   1_655 S
C634   H640    1.082   .     S
Cu635  O650    1.940   .     S
Cu635  O647    1.945   .     S
Cu635  N646    2.023   .     S
Cu635  O654    1.948   .     S
Cu635  O651    1.967   .     S
Cu635  Cu636   2.693   .     S
Cu636  N645    2.023   .     S
Cu636  O649    1.940   .     S
Cu636  O653    1.948   .     S
Cu636  O648    1.945   .     S
Cu636  O652    1.967   .     S
H641   C753    1.088   .     S
H643   N1053   1.029   .     S
N646   N1053   1.302   .     S
N646   H1052   1.029   .     S
N655   H656    1.031   .     S
N655   C657    1.450   .     S
C657   H659    1.110   .     S
C657   H660    1.109   .     S
C657   H1066   1.111   .     S
N661   C663    1.450   .     S
N661   H662    1.031   .     S
C663   H666    1.110   .     S
C663   H665    1.109   .     S
H664   C1071   1.110   .     S
C667   H672    1.105   .     S
C667   H673    1.112   .     S
C668   H671    1.111   .     S
C668   C803    1.530   .     S
H669   C600    1.105   1_655 S
H670   C600    1.103   1_655 S
C674   H680    1.105   .     S
C674   H679    1.112   .     S
C674   C811    1.530   .     S
C675   H678    1.111   .     S
C675   H608    1.103   1_655 S
C675   H609    1.105   1_655 S
C681   O717    1.284   .     A
C681   C685    1.421   .     S
C681   O715    1.292   .     A
C682   O718    1.284   .     A
C682   O716    1.292   .     A
C682   C686    1.421   .     S
C683   C700    1.430   .     A
C683   C735    1.536   .     S
C683   C769    1.403   1_455 S
C684   C699    1.430   .     A
C684   C742    1.536   .     S
C684   C770    1.403   .     S
C686   C413    1.325   1_565 S
C686   H438    1.088   1_565 S
C687   O721    1.291   .     A
C687   C692    1.449   .     S
C687   O719    1.298   .     A
C688   C691    1.449   .     S
C688   O722    1.291   .     A
C688   O720    1.298   .     A
C689   C691    1.411   .     A
C689   N723    1.427   .     S
C689   C699    1.418   .     A
C690   C700    1.418   .     A
C690   C692    1.411   .     A
C690   N729    1.427   .     S
C691   C693    1.390   .     A
C692   C694    1.390   .     A
C693   H705    1.086   .     S
C693   C695    1.389   .     A
C694   H706    1.086   .     S
C694   C696    1.389   .     A
C695   C701    1.398   .     A
C695   C697    1.410   .     A
C696   C698    1.410   .     A
C696   C702    1.398   .     A
C697   C699    1.428   .     A
C697   C766    1.404   .     S
C698   C700    1.428   .     A
C698   C765    1.404   1_455 S
C701   H707    1.082   .     S
C701   C751    1.403   .     S
C702   H708    1.082   .     S
C702   C752    1.403   1_455 S
Cu703  O718    1.940   .     S
Cu703  O715    1.945   .     S
Cu703  N714    2.023   .     S
Cu703  O722    1.948   .     S
Cu703  O719    1.967   .     S
Cu703  Cu704   2.693   .     S
Cu704  N713    2.023   .     S
Cu704  O717    1.940   .     S
Cu704  O721    1.948   .     S
Cu704  O716    1.945   .     S
Cu704  O720    1.967   .     S
H709   C413    1.088   1_565 S
H711   N1121   1.029   .     S
N714   N1121   1.302   .     S
N714   H1120   1.029   .     S
N723   H724    1.031   .     S
N723   C725    1.450   .     S
C725   H727    1.110   .     S
C725   H728    1.109   .     S
C725   H1134   1.111   .     S
N729   C731    1.450   .     S
N729   H730    1.031   .     S
C731   H734    1.110   .     S
C731   H733    1.109   .     S
H732   C1139   1.110   .     S
C735   H740    1.105   .     S
C735   H741    1.112   .     S
C736   H739    1.111   .     S
C736   C463    1.530   1_565 S
C736   H805    1.105   1_455 S
C736   H806    1.103   1_455 S
H737   C804    1.105   .     S
H738   C804    1.103   .     S
C742   H748    1.105   .     S
C742   H747    1.112   .     S
C742   C471    1.530   1_565 S
C743   H746    1.111   .     S
C743   H812    1.103   .     S
C743   H813    1.105   .     S
H744   C811    1.103   1_455 S
H745   C811    1.105   1_455 S
C749   O785    1.284   .     A
C749   C753    1.421   .     S
C749   O783    1.292   .     A
C750   O786    1.284   .     A
C750   O784    1.292   .     A
C750   C754    1.421   .     S
C751   C768    1.430   .     A
C751   C803    1.536   .     S
C752   C767    1.430   .     A
C752   C810    1.536   .     S
C752   C702    1.403   1_655 S
C754   C481    1.325   1_565 S
C754   H506    1.088   1_565 S
C755   O789    1.291   .     A
C755   C760    1.449   .     S
C755   O787    1.298   .     A
C756   C759    1.449   .     S
C756   O790    1.291   .     A
C756   O788    1.298   .     A
C757   C759    1.411   .     A
C757   N791    1.427   .     S
C757   C767    1.418   .     A
C758   C768    1.418   .     A
C758   C760    1.411   .     A
C758   N797    1.427   .     S
C759   C761    1.390   .     A
C760   C762    1.390   .     A
C761   H773    1.086   .     S
C761   C763    1.389   .     A
C762   H774    1.086   .     S
C762   C764    1.389   .     A
C763   C769    1.398   .     A
C763   C765    1.410   .     A
C764   C766    1.410   .     A
C764   C770    1.398   .     A
C765   C767    1.428   .     A
C765   C698    1.404   1_655 S
C766   C768    1.428   .     A
C769   H775    1.082   .     S
C769   C683    1.403   1_655 S
C770   H776    1.082   .     S
Cu771  O786    1.940   .     S
Cu771  O783    1.945   .     S
Cu771  N782    2.023   .     S
Cu771  O790    1.948   .     S
Cu771  O787    1.967   .     S
Cu771  Cu772   2.693   .     S
Cu772  N781    2.023   .     S
Cu772  O785    1.940   .     S
Cu772  O789    1.948   .     S
Cu772  O784    1.945   .     S
Cu772  O788    1.967   .     S
H777   C481    1.088   1_565 S
H779   N1189   1.029   .     S
N782   N1189   1.302   .     S
N782   H1188   1.029   .     S
N791   H792    1.031   .     S
N791   C793    1.450   .     S
C793   H795    1.110   .     S
C793   H796    1.109   .     S
C793   H1202   1.111   .     S
N797   C799    1.450   .     S
N797   H798    1.031   .     S
C799   H802    1.110   .     S
C799   H801    1.109   .     S
H800   C1207   1.110   .     S
C803   H808    1.105   .     S
C803   H809    1.112   .     S
C804   H807    1.111   .     S
C804   C531    1.530   1_565 S
H805   C736    1.105   1_655 S
H806   C736    1.103   1_655 S
C810   H816    1.105   .     S
C810   H815    1.112   .     S
C810   C539    1.530   1_565 S
C811   H814    1.111   .     S
C811   H744    1.103   1_655 S
C811   H745    1.105   1_655 S
C817   O853    1.284   .     A
C817   C821    1.421   .     S
C817   O851    1.292   .     A
C818   O854    1.284   .     A
C818   O852    1.292   .     A
C818   C822    1.421   .     S
C819   C836    1.430   .     A
C819   C871    1.536   .     S
C819   C905    1.403   1_455 S
C820   C835    1.430   .     A
C820   C878    1.536   .     S
C820   C906    1.403   .     S
C821   C1094   1.325   1_545 S
C821   H1117   1.088   1_545 S
C822   C957    1.325   .     S
C822   H982    1.088   .     S
C823   O857    1.291   .     A
C823   C828    1.449   .     S
C823   O855    1.298   .     A
C824   C827    1.449   .     S
C824   O858    1.291   .     A
C824   O856    1.298   .     A
C825   C827    1.411   .     A
C825   N859    1.427   .     S
C825   C835    1.418   .     A
C826   C836    1.418   .     A
C826   C828    1.411   .     A
C826   N865    1.427   .     S
C827   C829    1.390   .     A
C828   C830    1.390   .     A
C829   H841    1.086   .     S
C829   C831    1.389   .     A
C830   H842    1.086   .     S
C830   C832    1.389   .     A
C831   C837    1.398   .     A
C831   C833    1.410   .     A
C832   C834    1.410   .     A
C832   C838    1.398   .     A
C833   C835    1.428   .     A
C833   C902    1.404   .     S
C834   C836    1.428   .     A
C834   C901    1.404   1_455 S
C837   H843    1.082   .     S
C837   C887    1.403   .     S
C838   H844    1.082   .     S
C838   C888    1.403   1_455 S
Cu839  O854    1.940   .     S
Cu839  O851    1.945   .     S
Cu839  N850    2.023   .     S
Cu839  O858    1.948   .     S
Cu839  O855    1.967   .     S
Cu839  Cu840   2.693   .     S
Cu840  N849    2.023   .     S
Cu840  O853    1.940   .     S
Cu840  O857    1.948   .     S
Cu840  O852    1.945   .     S
Cu840  O856    1.967   .     S
H845   C957    1.088   .     S
H846   C1094   1.088   1_545 S
H847   N33     1.029   1_556 S
N850   N33     1.302   1_556 S
N850   H32     1.029   1_556 S
N859   H860    1.031   .     S
N859   C861    1.450   .     S
C861   H863    1.110   .     S
C861   H864    1.109   .     S
C861   H46     1.111   1_556 S
N865   C867    1.450   .     S
N865   H866    1.031   .     S
C867   H870    1.110   .     S
C867   H869    1.109   .     S
H868   C51     1.110   1_556 S
C871   H876    1.105   .     S
C871   H877    1.112   .     S
C871   C1144   1.530   1_545 S
C872   H875    1.111   .     S
C872   C1007   1.530   .     S
C872   H941    1.105   1_455 S
C872   H942    1.103   1_455 S
H873   C940    1.105   .     S
H874   C940    1.103   .     S
C878   H884    1.105   .     S
C878   H883    1.112   .     S
C878   C1015   1.530   .     S
C879   H882    1.111   .     S
C879   C1150   1.530   1_545 S
C879   H948    1.103   .     S
C879   H949    1.105   .     S
H880   C947    1.103   1_455 S
H881   C947    1.105   1_455 S
C885   O921    1.284   .     A
C885   C889    1.421   .     S
C885   O919    1.292   .     A
C886   O922    1.284   .     A
C886   O920    1.292   .     A
C886   C890    1.421   .     S
C887   C904    1.430   .     A
C887   C939    1.536   .     S
C888   C903    1.430   .     A
C888   C946    1.536   .     S
C888   C838    1.403   1_655 S
C889   C1162   1.325   1_545 S
C889   H1185   1.088   1_545 S
C890   C1025   1.325   .     S
C890   H1050   1.088   .     S
C891   O925    1.291   .     A
C891   C896    1.449   .     S
C891   O923    1.298   .     A
C892   C895    1.449   .     S
C892   O926    1.291   .     A
C892   O924    1.298   .     A
C893   C895    1.411   .     A
C893   N927    1.427   .     S
C893   C903    1.418   .     A
C894   C904    1.418   .     A
C894   C896    1.411   .     A
C894   N933    1.427   .     S
C895   C897    1.390   .     A
C896   C898    1.390   .     A
C897   H909    1.086   .     S
C897   C899    1.389   .     A
C898   H910    1.086   .     S
C898   C900    1.389   .     A
C899   C905    1.398   .     A
C899   C901    1.410   .     A
C900   C902    1.410   .     A
C900   C906    1.398   .     A
C901   C903    1.428   .     A
C901   C834    1.404   1_655 S
C902   C904    1.428   .     A
C905   H911    1.082   .     S
C905   C819    1.403   1_655 S
C906   H912    1.082   .     S
Cu907  O922    1.940   .     S
Cu907  O919    1.945   .     S
Cu907  N918    2.023   .     S
Cu907  O926    1.948   .     S
Cu907  O923    1.967   .     S
Cu907  Cu908   2.693   .     S
Cu908  N917    2.023   .     S
Cu908  O921    1.940   .     S
Cu908  O925    1.948   .     S
Cu908  O920    1.945   .     S
Cu908  O924    1.967   .     S
H913   C1025   1.088   .     S
H914   C1162   1.088   1_545 S
H915   N101    1.029   1_556 S
N918   N101    1.302   1_556 S
N918   H100    1.029   1_556 S
N927   H928    1.031   .     S
N927   C929    1.450   .     S
C929   H931    1.110   .     S
C929   H932    1.109   .     S
C929   H114    1.111   1_556 S
N933   C935    1.450   .     S
N933   H934    1.031   .     S
C935   H938    1.110   .     S
C935   H937    1.109   .     S
H936   C119    1.110   1_556 S
C939   H944    1.105   .     S
C939   H945    1.112   .     S
C939   C1212   1.530   1_545 S
C940   H943    1.111   .     S
C940   C1075   1.530   .     S
H941   C872    1.105   1_655 S
H942   C872    1.103   1_655 S
C946   H952    1.105   .     S
C946   H951    1.112   .     S
C946   C1083   1.530   .     S
C947   H950    1.111   .     S
C947   C1218   1.530   1_545 S
C947   H880    1.103   1_655 S
C947   H881    1.105   1_655 S
C953   O989    1.284   .     A
C953   C957    1.421   .     S
C953   O987    1.292   .     A
C954   O990    1.284   .     A
C954   O988    1.292   .     A
C954   C958    1.421   .     S
C955   C972    1.430   .     A
C955   C1007   1.536   .     S
C955   C1041   1.403   1_455 S
C956   C971    1.430   .     A
C956   C1014   1.536   .     S
C956   C1042   1.403   .     S
C958   C1093   1.325   .     S
C958   H1118   1.088   .     S
C959   O993    1.291   .     A
C959   C964    1.449   .     S
C959   O991    1.298   .     A
C960   C963    1.449   .     S
C960   O994    1.291   .     A
C960   O992    1.298   .     A
C961   C963    1.411   .     A
C961   N995    1.427   .     S
C961   C971    1.418   .     A
C962   C972    1.418   .     A
C962   C964    1.411   .     A
C962   N1001   1.427   .     S
C963   C965    1.390   .     A
C964   C966    1.390   .     A
C965   H977    1.086   .     S
C965   C967    1.389   .     A
C966   H978    1.086   .     S
C966   C968    1.389   .     A
C967   C973    1.398   .     A
C967   C969    1.410   .     A
C968   C970    1.410   .     A
C968   C974    1.398   .     A
C969   C971    1.428   .     A
C969   C1038   1.404   .     S
C970   C972    1.428   .     A
C970   C1037   1.404   1_455 S
C973   H979    1.082   .     S
C973   C1023   1.403   .     S
C974   H980    1.082   .     S
C974   C1024   1.403   1_455 S
Cu975  O990    1.940   .     S
Cu975  O987    1.945   .     S
Cu975  N986    2.023   .     S
Cu975  O994    1.948   .     S
Cu975  O991    1.967   .     S
Cu975  Cu976   2.693   .     S
Cu976  N985    2.023   .     S
Cu976  O989    1.940   .     S
Cu976  O993    1.948   .     S
Cu976  O988    1.945   .     S
Cu976  O992    1.967   .     S
H981   C1093   1.088   .     S
H983   N169    1.029   1_556 S
N986   N169    1.302   1_556 S
N986   H168    1.029   1_556 S
N995   H996    1.031   .     S
N995   C997    1.450   .     S
C997   H999    1.110   .     S
C997   H1000   1.109   .     S
C997   H182    1.111   1_556 S
N1001  C1003   1.450   .     S
N1001  H1002   1.031   .     S
C1003  H1006   1.110   .     S
C1003  H1005   1.109   .     S
H1004  C187    1.110   1_556 S
C1007  H1012   1.105   .     S
C1007  H1013   1.112   .     S
C1008  H1011   1.111   .     S
C1008  C1143   1.530   .     S
C1008  H1077   1.105   1_455 S
C1008  H1078   1.103   1_455 S
H1009  C1076   1.105   .     S
H1010  C1076   1.103   .     S
C1014  H1020   1.105   .     S
C1014  H1019   1.112   .     S
C1014  C1151   1.530   .     S
C1015  H1018   1.111   .     S
C1015  H1084   1.103   .     S
C1015  H1085   1.105   .     S
H1016  C1083   1.103   1_455 S
H1017  C1083   1.105   1_455 S
C1021  O1057   1.284   .     A
C1021  C1025   1.421   .     S
C1021  O1055   1.292   .     A
C1022  O1058   1.284   .     A
C1022  O1056   1.292   .     A
C1022  C1026   1.421   .     S
C1023  C1040   1.430   .     A
C1023  C1075   1.536   .     S
C1024  C1039   1.430   .     A
C1024  C1082   1.536   .     S
C1024  C974    1.403   1_655 S
C1026  C1161   1.325   .     S
C1026  H1186   1.088   .     S
C1027  O1061   1.291   .     A
C1027  C1032   1.449   .     S
C1027  O1059   1.298   .     A
C1028  C1031   1.449   .     S
C1028  O1062   1.291   .     A
C1028  O1060   1.298   .     A
C1029  C1031   1.411   .     A
C1029  N1063   1.427   .     S
C1029  C1039   1.418   .     A
C1030  C1040   1.418   .     A
C1030  C1032   1.411   .     A
C1030  N1069   1.427   .     S
C1031  C1033   1.390   .     A
C1032  C1034   1.390   .     A
C1033  H1045   1.086   .     S
C1033  C1035   1.389   .     A
C1034  H1046   1.086   .     S
C1034  C1036   1.389   .     A
C1035  C1041   1.398   .     A
C1035  C1037   1.410   .     A
C1036  C1038   1.410   .     A
C1036  C1042   1.398   .     A
C1037  C1039   1.428   .     A
C1037  C970    1.404   1_655 S
C1038  C1040   1.428   .     A
C1041  H1047   1.082   .     S
C1041  C955    1.403   1_655 S
C1042  H1048   1.082   .     S
Cu1043 O1058   1.940   .     S
Cu1043 O1055   1.945   .     S
Cu1043 N1054   2.023   .     S
Cu1043 O1062   1.948   .     S
Cu1043 O1059   1.967   .     S
Cu1043 Cu1044  2.693   .     S
Cu1044 N1053   2.023   .     S
Cu1044 O1057   1.940   .     S
Cu1044 O1061   1.948   .     S
Cu1044 O1056   1.945   .     S
Cu1044 O1060   1.967   .     S
H1049  C1161   1.088   .     S
H1051  N237    1.029   1_556 S
N1054  N237    1.302   1_556 S
N1054  H236    1.029   1_556 S
N1063  H1064   1.031   .     S
N1063  C1065   1.450   .     S
C1065  H1067   1.110   .     S
C1065  H1068   1.109   .     S
C1065  H250    1.111   1_556 S
N1069  C1071   1.450   .     S
N1069  H1070   1.031   .     S
C1071  H1074   1.110   .     S
C1071  H1073   1.109   .     S
H1072  C255    1.110   1_556 S
C1075  H1080   1.105   .     S
C1075  H1081   1.112   .     S
C1076  H1079   1.111   .     S
C1076  C1211   1.530   .     S
H1077  C1008   1.105   1_655 S
H1078  C1008   1.103   1_655 S
C1082  H1088   1.105   .     S
C1082  H1087   1.112   .     S
C1082  C1219   1.530   .     S
C1083  H1086   1.111   .     S
C1083  H1016   1.103   1_655 S
C1083  H1017   1.105   1_655 S
C1089  O1125   1.284   .     A
C1089  C1093   1.421   .     S
C1089  O1123   1.292   .     A
C1090  O1126   1.284   .     A
C1090  O1124   1.292   .     A
C1090  C1094   1.421   .     S
C1091  C1108   1.430   .     A
C1091  C1143   1.536   .     S
C1091  C1177   1.403   1_455 S
C1092  C1107   1.430   .     A
C1092  C1150   1.536   .     S
C1092  C1178   1.403   .     S
C1094  C821    1.325   1_565 S
C1094  H846    1.088   1_565 S
C1095  O1129   1.291   .     A
C1095  C1100   1.449   .     S
C1095  O1127   1.298   .     A
C1096  C1099   1.449   .     S
C1096  O1130   1.291   .     A
C1096  O1128   1.298   .     A
C1097  C1099   1.411   .     A
C1097  N1131   1.427   .     S
C1097  C1107   1.418   .     A
C1098  C1108   1.418   .     A
C1098  C1100   1.411   .     A
C1098  N1137   1.427   .     S
C1099  C1101   1.390   .     A
C1100  C1102   1.390   .     A
C1101  H1113   1.086   .     S
C1101  C1103   1.389   .     A
C1102  H1114   1.086   .     S
C1102  C1104   1.389   .     A
C1103  C1109   1.398   .     A
C1103  C1105   1.410   .     A
C1104  C1106   1.410   .     A
C1104  C1110   1.398   .     A
C1105  C1107   1.428   .     A
C1105  C1174   1.404   .     S
C1106  C1108   1.428   .     A
C1106  C1173   1.404   1_455 S
C1109  H1115   1.082   .     S
C1109  C1159   1.403   .     S
C1110  H1116   1.082   .     S
C1110  C1160   1.403   1_455 S
Cu1111 O1126   1.940   .     S
Cu1111 O1123   1.945   .     S
Cu1111 N1122   2.023   .     S
Cu1111 O1130   1.948   .     S
Cu1111 O1127   1.967   .     S
Cu1111 Cu1112  2.693   .     S
Cu1112 N1121   2.023   .     S
Cu1112 O1125   1.940   .     S
Cu1112 O1129   1.948   .     S
Cu1112 O1124   1.945   .     S
Cu1112 O1128   1.967   .     S
H1117  C821    1.088   1_565 S
H1119  N305    1.029   1_556 S
N1122  N305    1.302   1_556 S
N1122  H304    1.029   1_556 S
N1131  H1132   1.031   .     S
N1131  C1133   1.450   .     S
C1133  H1135   1.110   .     S
C1133  H1136   1.109   .     S
C1133  H318    1.111   1_556 S
N1137  C1139   1.450   .     S
N1137  H1138   1.031   .     S
C1139  H1142   1.110   .     S
C1139  H1141   1.109   .     S
H1140  C323    1.110   1_556 S
C1143  H1148   1.105   .     S
C1143  H1149   1.112   .     S
C1144  H1147   1.111   .     S
C1144  C871    1.530   1_565 S
C1144  H1213   1.105   1_455 S
C1144  H1214   1.103   1_455 S
H1145  C1212   1.105   .     S
H1146  C1212   1.103   .     S
C1150  H1156   1.105   .     S
C1150  H1155   1.112   .     S
C1150  C879    1.530   1_565 S
C1151  H1154   1.111   .     S
C1151  H1220   1.103   .     S
C1151  H1221   1.105   .     S
H1152  C1219   1.103   1_455 S
H1153  C1219   1.105   1_455 S
C1157  O1193   1.284   .     A
C1157  C1161   1.421   .     S
C1157  O1191   1.292   .     A
C1158  O1194   1.284   .     A
C1158  O1192   1.292   .     A
C1158  C1162   1.421   .     S
C1159  C1176   1.430   .     A
C1159  C1211   1.536   .     S
C1160  C1175   1.430   .     A
C1160  C1218   1.536   .     S
C1160  C1110   1.403   1_655 S
C1162  C889    1.325   1_565 S
C1162  H914    1.088   1_565 S
C1163  O1197   1.291   .     A
C1163  C1168   1.449   .     S
C1163  O1195   1.298   .     A
C1164  C1167   1.449   .     S
C1164  O1198   1.291   .     A
C1164  O1196   1.298   .     A
C1165  C1167   1.411   .     A
C1165  N1199   1.427   .     S
C1165  C1175   1.418   .     A
C1166  C1176   1.418   .     A
C1166  C1168   1.411   .     A
C1166  N1205   1.427   .     S
C1167  C1169   1.390   .     A
C1168  C1170   1.390   .     A
C1169  H1181   1.086   .     S
C1169  C1171   1.389   .     A
C1170  H1182   1.086   .     S
C1170  C1172   1.389   .     A
C1171  C1177   1.398   .     A
C1171  C1173   1.410   .     A
C1172  C1174   1.410   .     A
C1172  C1178   1.398   .     A
C1173  C1175   1.428   .     A
C1173  C1106   1.404   1_655 S
C1174  C1176   1.428   .     A
C1177  H1183   1.082   .     S
C1177  C1091   1.403   1_655 S
C1178  H1184   1.082   .     S
Cu1179 O1194   1.940   .     S
Cu1179 O1191   1.945   .     S
Cu1179 N1190   2.023   .     S
Cu1179 O1198   1.948   .     S
Cu1179 O1195   1.967   .     S
Cu1179 Cu1180  2.693   .     S
Cu1180 N1189   2.023   .     S
Cu1180 O1193   1.940   .     S
Cu1180 O1197   1.948   .     S
Cu1180 O1192   1.945   .     S
Cu1180 O1196   1.967   .     S
H1185  C889    1.088   1_565 S
H1187  N373    1.029   1_556 S
N1190  N373    1.302   1_556 S
N1190  H372    1.029   1_556 S
N1199  H1200   1.031   .     S
N1199  C1201   1.450   .     S
C1201  H1203   1.110   .     S
C1201  H1204   1.109   .     S
C1201  H386    1.111   1_556 S
N1205  C1207   1.450   .     S
N1205  H1206   1.031   .     S
C1207  H1210   1.110   .     S
C1207  H1209   1.109   .     S
H1208  C391    1.110   1_556 S
C1211  H1216   1.105   .     S
C1211  H1217   1.112   .     S
C1212  H1215   1.111   .     S
C1212  C939    1.530   1_565 S
H1213  C1144   1.105   1_655 S
H1214  C1144   1.103   1_655 S
C1218  H1224   1.105   .     S
C1218  H1223   1.112   .     S
C1218  C947    1.530   1_565 S
C1219  H1222   1.111   .     S
C1219  H1152   1.103   1_655 S
C1219  H1153   1.105   1_655 S
