data_str_m3_o10_o17_pcu_sym.137
_audit_creation_date              2020-01-03
_audit_creation_method            'Materials Studio'
_symmetry_space_group_name_H-M    'P1'
_symmetry_Int_Tables_number       1
_symmetry_cell_setting            triclinic
loop_
_symmetry_equiv_pos_as_xyz
  x,y,z
_cell_length_a                    23.4803
_cell_length_b                    25.7557
_cell_length_c                    29.8865
_cell_angle_alpha                 91.4379
_cell_angle_beta                  86.6849
_cell_angle_gamma                 92.6952
loop_
_atom_site_label
_atom_site_type_symbol
_atom_site_fract_x
_atom_site_fract_y
_atom_site_fract_z
_atom_site_U_iso_or_equiv
_atom_site_adp_type
_atom_site_occupancy
C1     C     0.18136   0.26462   0.24940   0.00000  Uiso   1.00
C2     C     0.21784   0.18066   0.40539   0.00000  Uiso   1.00
C3     C     0.16483   0.16910   0.11571   0.00000  Uiso   1.00
C4     C     0.16851   0.16424   0.38429   0.00000  Uiso   1.00
C5     C     0.21458   0.18557   0.09109   0.00000  Uiso   1.00
C6     C     0.11875   0.14777   0.40891   0.00000  Uiso   1.00
C7     C     0.21570   0.18477   0.04483   0.00000  Uiso   1.00
C8     C     0.11763   0.14856   0.45517   0.00000  Uiso   1.00
C9     C     0.16618   0.16749   0.02328   0.00000  Uiso   1.00
C10    C     0.16715   0.16585   0.47672   0.00000  Uiso   1.00
C11    C     0.11576   0.15164   0.04830   0.00000  Uiso   1.00
C12    C     0.15197   0.06871   0.25060   0.00000  Uiso   1.00
C13    C     0.21757   0.18170   0.45170   0.00000  Uiso   1.00
C14    C     0.26555   0.20049   0.01987   0.00000  Uiso   1.00
C15    C     0.06778   0.13285   0.48013   0.00000  Uiso   1.00
C16    C     0.22943   0.00166   0.29125   0.00000  Uiso   1.00
C17    C     0.10390   0.33167   0.20875   0.00000  Uiso   1.00
C18    C     0.00336   0.14584   0.19281   0.00000  Uiso   1.00
C19    C     0.32997   0.18749   0.30719   0.00000  Uiso   1.00
C20    C     0.26649   0.19896   0.47334   0.00000  Uiso   1.00
C21    C     0.06684   0.13438   0.02666   0.00000  Uiso   1.00
C22    C     0.18711   0.31845   0.25745   0.00000  Uiso   1.00
C23    C     0.14622   0.01488   0.24255   0.00000  Uiso   1.00
C24    C     0.16750   0.16605   0.33647   0.00000  Uiso   1.00
C25    C     0.16584   0.16729   0.16353   0.00000  Uiso   1.00
C26    C     0.11549   0.15267   0.09461   0.00000  Uiso   1.00
H27    H     0.07763   0.13923   0.11403   0.00000  Uiso   1.00
H28    H     0.06366   0.01741   0.20863   0.00000  Uiso   1.00
H29    H     0.01966   0.17911   0.17367   0.00000  Uiso   1.00
H30    H     0.31367   0.15422   0.32633   0.00000  Uiso   1.00
H31    H     0.25570   0.19410   0.38597   0.00000  Uiso   1.00
H32    H     0.25254   0.19870   0.10796   0.00000  Uiso   1.00
H33    H     0.08080   0.13464   0.39204   0.00000  Uiso   1.00
H34    H     0.30369   0.21381   0.03631   0.00000  Uiso   1.00
H35    H     0.02964   0.11952   0.46369   0.00000  Uiso   1.00
H36    H     0.30529   0.21123   0.45432   0.00000  Uiso   1.00
H37    H     0.02804   0.12211   0.04568   0.00000  Uiso   1.00
H38    H     0.26967   0.31591   0.29137   0.00000  Uiso   1.00
N39    N     0.31678   0.15265   0.23783   0.00000  Uiso   1.00
N40    N     0.01656   0.18068   0.26217   0.00000  Uiso   1.00
O41    O     0.12975   0.24619   0.25298   0.00000  Uiso   1.00
O42    O     0.11494   0.29929   0.17934   0.00000  Uiso   1.00
O43    O     0.33149   0.10322   0.17440   0.00000  Uiso   1.00
O44    O     0.00185   0.23010   0.32561   0.00000  Uiso   1.00
O45    O     0.20358   0.08714   0.24701   0.00000  Uiso   1.00
O46    O     0.22613   0.23721   0.24518   0.00000  Uiso   1.00
O47    O     0.10720   0.09613   0.25481   0.00000  Uiso   1.00
O48    O     0.11847   0.17117   0.31997   0.00000  Uiso   1.00
O49    O     0.21486   0.16216   0.18002   0.00000  Uiso   1.00
O50    O     0.21485   0.16219   0.31217   0.00000  Uiso   1.00
O51    O     0.11848   0.17115   0.18782   0.00000  Uiso   1.00
O52    O     0.21840   0.03405   0.32066   0.00000  Uiso   1.00
Zn53   Zn    0.10231   0.17266   0.25521   0.00000  Uiso   1.00
Zn54   Zn    0.23102   0.16067   0.24479   0.00000  Uiso   1.00
C55    C     0.51470   0.26462   0.24940   0.00000  Uiso   1.00
C56    C     0.55117   0.18066   0.40539   0.00000  Uiso   1.00
C57    C     0.49816   0.16910   0.11571   0.00000  Uiso   1.00
C58    C     0.50184   0.16424   0.38429   0.00000  Uiso   1.00
C59    C     0.54791   0.18557   0.09109   0.00000  Uiso   1.00
C60    C     0.45209   0.14777   0.40891   0.00000  Uiso   1.00
C61    C     0.54903   0.18477   0.04483   0.00000  Uiso   1.00
C62    C     0.45096   0.14856   0.45517   0.00000  Uiso   1.00
C63    C     0.49951   0.16749   0.02328   0.00000  Uiso   1.00
C64    C     0.50049   0.16585   0.47672   0.00000  Uiso   1.00
C65    C     0.44909   0.15164   0.04830   0.00000  Uiso   1.00
C66    C     0.48530   0.06871   0.25060   0.00000  Uiso   1.00
C67    C     0.55090   0.18170   0.45170   0.00000  Uiso   1.00
C68    C     0.59889   0.20049   0.01987   0.00000  Uiso   1.00
C69    C     0.40111   0.13285   0.48013   0.00000  Uiso   1.00
C70    C     0.56276   0.00166   0.29125   0.00000  Uiso   1.00
C71    C     0.43724   0.33167   0.20875   0.00000  Uiso   1.00
C72    C     0.33669   0.14584   0.19281   0.00000  Uiso   1.00
C73    C     0.66331   0.18749   0.30719   0.00000  Uiso   1.00
C74    C     0.59982   0.19896   0.47334   0.00000  Uiso   1.00
C75    C     0.40018   0.13438   0.02666   0.00000  Uiso   1.00
C76    C     0.52044   0.31845   0.25745   0.00000  Uiso   1.00
C77    C     0.47956   0.01488   0.24255   0.00000  Uiso   1.00
C78    C     0.50083   0.16605   0.33647   0.00000  Uiso   1.00
C79    C     0.49917   0.16729   0.16353   0.00000  Uiso   1.00
C80    C     0.44883   0.15267   0.09461   0.00000  Uiso   1.00
H81    H     0.41097   0.13923   0.11403   0.00000  Uiso   1.00
H82    H     0.39699   0.01741   0.20863   0.00000  Uiso   1.00
H83    H     0.35299   0.17911   0.17367   0.00000  Uiso   1.00
H84    H     0.64701   0.15422   0.32633   0.00000  Uiso   1.00
H85    H     0.58903   0.19410   0.38597   0.00000  Uiso   1.00
H86    H     0.58587   0.19870   0.10796   0.00000  Uiso   1.00
H87    H     0.41413   0.13464   0.39204   0.00000  Uiso   1.00
H88    H     0.63703   0.21381   0.03631   0.00000  Uiso   1.00
H89    H     0.36297   0.11952   0.46369   0.00000  Uiso   1.00
H90    H     0.63862   0.21123   0.45432   0.00000  Uiso   1.00
H91    H     0.36138   0.12211   0.04568   0.00000  Uiso   1.00
H92    H     0.60300   0.31591   0.29137   0.00000  Uiso   1.00
N93    N     0.65011   0.15265   0.23783   0.00000  Uiso   1.00
N94    N     0.34989   0.18068   0.26217   0.00000  Uiso   1.00
O95    O     0.46308   0.24619   0.25298   0.00000  Uiso   1.00
O96    O     0.44827   0.29929   0.17934   0.00000  Uiso   1.00
O97    O     0.66482   0.10322   0.17440   0.00000  Uiso   1.00
O98    O     0.33519   0.23010   0.32561   0.00000  Uiso   1.00
O99    O     0.53692   0.08714   0.24701   0.00000  Uiso   1.00
O100   O     0.55946   0.23721   0.24518   0.00000  Uiso   1.00
O101   O     0.44054   0.09613   0.25481   0.00000  Uiso   1.00
O102   O     0.45181   0.17117   0.31997   0.00000  Uiso   1.00
O103   O     0.54819   0.16216   0.18002   0.00000  Uiso   1.00
O104   O     0.54819   0.16219   0.31217   0.00000  Uiso   1.00
O105   O     0.45181   0.17115   0.18782   0.00000  Uiso   1.00
O106   O     0.55174   0.03405   0.32066   0.00000  Uiso   1.00
Zn107  Zn    0.43565   0.17266   0.25521   0.00000  Uiso   1.00
Zn108  Zn    0.56435   0.16067   0.24479   0.00000  Uiso   1.00
C109   C     0.84803   0.26462   0.24940   0.00000  Uiso   1.00
C110   C     0.88451   0.18066   0.40539   0.00000  Uiso   1.00
C111   C     0.83149   0.16910   0.11571   0.00000  Uiso   1.00
C112   C     0.83517   0.16424   0.38429   0.00000  Uiso   1.00
C113   C     0.88124   0.18557   0.09109   0.00000  Uiso   1.00
C114   C     0.78542   0.14777   0.40891   0.00000  Uiso   1.00
C115   C     0.88237   0.18477   0.04483   0.00000  Uiso   1.00
C116   C     0.78430   0.14856   0.45517   0.00000  Uiso   1.00
C117   C     0.83284   0.16749   0.02328   0.00000  Uiso   1.00
C118   C     0.83382   0.16585   0.47672   0.00000  Uiso   1.00
C119   C     0.78243   0.15164   0.04830   0.00000  Uiso   1.00
C120   C     0.81864   0.06871   0.25060   0.00000  Uiso   1.00
C121   C     0.88424   0.18170   0.45170   0.00000  Uiso   1.00
C122   C     0.93222   0.20049   0.01987   0.00000  Uiso   1.00
C123   C     0.73444   0.13285   0.48013   0.00000  Uiso   1.00
C124   C     0.89610   0.00166   0.29125   0.00000  Uiso   1.00
C125   C     0.77057   0.33167   0.20875   0.00000  Uiso   1.00
C126   C     0.67003   0.14584   0.19281   0.00000  Uiso   1.00
C127   C     0.99664   0.18749   0.30719   0.00000  Uiso   1.00
C128   C     0.93315   0.19896   0.47334   0.00000  Uiso   1.00
C129   C     0.73351   0.13438   0.02666   0.00000  Uiso   1.00
C130   C     0.85378   0.31845   0.25745   0.00000  Uiso   1.00
C131   C     0.81289   0.01488   0.24255   0.00000  Uiso   1.00
C132   C     0.83416   0.16605   0.33647   0.00000  Uiso   1.00
C133   C     0.83250   0.16729   0.16353   0.00000  Uiso   1.00
C134   C     0.78216   0.15267   0.09461   0.00000  Uiso   1.00
H135   H     0.74430   0.13923   0.11403   0.00000  Uiso   1.00
H136   H     0.73033   0.01741   0.20863   0.00000  Uiso   1.00
H137   H     0.68632   0.17911   0.17367   0.00000  Uiso   1.00
H138   H     0.98034   0.15422   0.32633   0.00000  Uiso   1.00
H139   H     0.92237   0.19410   0.38597   0.00000  Uiso   1.00
H140   H     0.91920   0.19870   0.10796   0.00000  Uiso   1.00
H141   H     0.74746   0.13464   0.39204   0.00000  Uiso   1.00
H142   H     0.97036   0.21381   0.03631   0.00000  Uiso   1.00
H143   H     0.69630   0.11952   0.46369   0.00000  Uiso   1.00
H144   H     0.97195   0.21123   0.45432   0.00000  Uiso   1.00
H145   H     0.69471   0.12211   0.04568   0.00000  Uiso   1.00
H146   H     0.93633   0.31591   0.29137   0.00000  Uiso   1.00
N147   N     0.98344   0.15265   0.23783   0.00000  Uiso   1.00
N148   N     0.68322   0.18068   0.26217   0.00000  Uiso   1.00
O149   O     0.79642   0.24619   0.25298   0.00000  Uiso   1.00
O150   O     0.78160   0.29929   0.17934   0.00000  Uiso   1.00
O151   O     0.99816   0.10322   0.17440   0.00000  Uiso   1.00
O152   O     0.66852   0.23010   0.32561   0.00000  Uiso   1.00
O153   O     0.87025   0.08714   0.24701   0.00000  Uiso   1.00
O154   O     0.89280   0.23721   0.24518   0.00000  Uiso   1.00
O155   O     0.77387   0.09613   0.25481   0.00000  Uiso   1.00
O156   O     0.78514   0.17117   0.31997   0.00000  Uiso   1.00
O157   O     0.88153   0.16216   0.18002   0.00000  Uiso   1.00
O158   O     0.88152   0.16219   0.31217   0.00000  Uiso   1.00
O159   O     0.78515   0.17115   0.18782   0.00000  Uiso   1.00
O160   O     0.88507   0.03405   0.32066   0.00000  Uiso   1.00
Zn161  Zn    0.76898   0.17266   0.25521   0.00000  Uiso   1.00
Zn162  Zn    0.89769   0.16067   0.24479   0.00000  Uiso   1.00
C163   C     0.18136   0.59796   0.24940   0.00000  Uiso   1.00
C164   C     0.21784   0.51400   0.40539   0.00000  Uiso   1.00
C165   C     0.16483   0.50243   0.11571   0.00000  Uiso   1.00
C166   C     0.16851   0.49757   0.38429   0.00000  Uiso   1.00
C167   C     0.21458   0.51890   0.09109   0.00000  Uiso   1.00
C168   C     0.11875   0.48110   0.40891   0.00000  Uiso   1.00
C169   C     0.21570   0.51811   0.04483   0.00000  Uiso   1.00
C170   C     0.11763   0.48190   0.45517   0.00000  Uiso   1.00
C171   C     0.16618   0.50082   0.02328   0.00000  Uiso   1.00
C172   C     0.16715   0.49918   0.47672   0.00000  Uiso   1.00
C173   C     0.11576   0.48497   0.04830   0.00000  Uiso   1.00
C174   C     0.15197   0.40204   0.25060   0.00000  Uiso   1.00
C175   C     0.21757   0.51503   0.45170   0.00000  Uiso   1.00
C176   C     0.26555   0.53382   0.01987   0.00000  Uiso   1.00
C177   C     0.06778   0.46618   0.48013   0.00000  Uiso   1.00
C178   C     0.22943   0.33500   0.29125   0.00000  Uiso   1.00
C179   C     0.10390   0.66500   0.20875   0.00000  Uiso   1.00
C180   C     0.00336   0.47918   0.19281   0.00000  Uiso   1.00
C181   C     0.32997   0.52082   0.30719   0.00000  Uiso   1.00
C182   C     0.26649   0.53229   0.47334   0.00000  Uiso   1.00
C183   C     0.06684   0.46771   0.02666   0.00000  Uiso   1.00
C184   C     0.18711   0.65178   0.25745   0.00000  Uiso   1.00
C185   C     0.14622   0.34822   0.24255   0.00000  Uiso   1.00
C186   C     0.16750   0.49938   0.33647   0.00000  Uiso   1.00
C187   C     0.16584   0.50062   0.16353   0.00000  Uiso   1.00
C188   C     0.11549   0.48600   0.09461   0.00000  Uiso   1.00
H189   H     0.07763   0.47256   0.11403   0.00000  Uiso   1.00
H190   H     0.06366   0.35075   0.20863   0.00000  Uiso   1.00
H191   H     0.01966   0.51245   0.17367   0.00000  Uiso   1.00
H192   H     0.31367   0.48755   0.32633   0.00000  Uiso   1.00
H193   H     0.25570   0.52744   0.38597   0.00000  Uiso   1.00
H194   H     0.25254   0.53203   0.10796   0.00000  Uiso   1.00
H195   H     0.08080   0.46797   0.39204   0.00000  Uiso   1.00
H196   H     0.30369   0.54715   0.03631   0.00000  Uiso   1.00
H197   H     0.02964   0.45286   0.46369   0.00000  Uiso   1.00
H198   H     0.30529   0.54456   0.45432   0.00000  Uiso   1.00
H199   H     0.02804   0.45544   0.04568   0.00000  Uiso   1.00
H200   H     0.26967   0.64925   0.29137   0.00000  Uiso   1.00
N201   N     0.31678   0.48598   0.23783   0.00000  Uiso   1.00
N202   N     0.01656   0.51402   0.26217   0.00000  Uiso   1.00
O203   O     0.12975   0.57952   0.25298   0.00000  Uiso   1.00
O204   O     0.11494   0.63262   0.17934   0.00000  Uiso   1.00
O205   O     0.33149   0.43655   0.17440   0.00000  Uiso   1.00
O206   O     0.00185   0.56343   0.32561   0.00000  Uiso   1.00
O207   O     0.20358   0.42048   0.24701   0.00000  Uiso   1.00
O208   O     0.22613   0.57054   0.24518   0.00000  Uiso   1.00
O209   O     0.10720   0.42946   0.25481   0.00000  Uiso   1.00
O210   O     0.11847   0.50450   0.31997   0.00000  Uiso   1.00
O211   O     0.21486   0.49550   0.18002   0.00000  Uiso   1.00
O212   O     0.21485   0.49552   0.31217   0.00000  Uiso   1.00
O213   O     0.11848   0.50448   0.18782   0.00000  Uiso   1.00
O214   O     0.21840   0.36738   0.32066   0.00000  Uiso   1.00
Zn215  Zn    0.10231   0.50600   0.25521   0.00000  Uiso   1.00
Zn216  Zn    0.23102   0.49400   0.24479   0.00000  Uiso   1.00
C217   C     0.51470   0.59796   0.24940   0.00000  Uiso   1.00
C218   C     0.55117   0.51400   0.40539   0.00000  Uiso   1.00
C219   C     0.49816   0.50243   0.11571   0.00000  Uiso   1.00
C220   C     0.50184   0.49757   0.38429   0.00000  Uiso   1.00
C221   C     0.54791   0.51890   0.09109   0.00000  Uiso   1.00
C222   C     0.45209   0.48110   0.40891   0.00000  Uiso   1.00
C223   C     0.54903   0.51811   0.04483   0.00000  Uiso   1.00
C224   C     0.45096   0.48190   0.45517   0.00000  Uiso   1.00
C225   C     0.49951   0.50082   0.02328   0.00000  Uiso   1.00
C226   C     0.50049   0.49918   0.47672   0.00000  Uiso   1.00
C227   C     0.44909   0.48497   0.04830   0.00000  Uiso   1.00
C228   C     0.48530   0.40204   0.25060   0.00000  Uiso   1.00
C229   C     0.55090   0.51503   0.45170   0.00000  Uiso   1.00
C230   C     0.59889   0.53382   0.01987   0.00000  Uiso   1.00
C231   C     0.40111   0.46618   0.48013   0.00000  Uiso   1.00
C232   C     0.56276   0.33500   0.29125   0.00000  Uiso   1.00
C233   C     0.43724   0.66500   0.20875   0.00000  Uiso   1.00
C234   C     0.33669   0.47918   0.19281   0.00000  Uiso   1.00
C235   C     0.66331   0.52082   0.30719   0.00000  Uiso   1.00
C236   C     0.59982   0.53229   0.47334   0.00000  Uiso   1.00
C237   C     0.40018   0.46771   0.02666   0.00000  Uiso   1.00
C238   C     0.52044   0.65178   0.25745   0.00000  Uiso   1.00
C239   C     0.47956   0.34822   0.24255   0.00000  Uiso   1.00
C240   C     0.50083   0.49938   0.33647   0.00000  Uiso   1.00
C241   C     0.49917   0.50062   0.16353   0.00000  Uiso   1.00
C242   C     0.44883   0.48600   0.09461   0.00000  Uiso   1.00
H243   H     0.41097   0.47256   0.11403   0.00000  Uiso   1.00
H244   H     0.39699   0.35075   0.20863   0.00000  Uiso   1.00
H245   H     0.35299   0.51245   0.17367   0.00000  Uiso   1.00
H246   H     0.64701   0.48755   0.32633   0.00000  Uiso   1.00
H247   H     0.58903   0.52744   0.38597   0.00000  Uiso   1.00
H248   H     0.58587   0.53203   0.10796   0.00000  Uiso   1.00
H249   H     0.41413   0.46797   0.39204   0.00000  Uiso   1.00
H250   H     0.63703   0.54715   0.03631   0.00000  Uiso   1.00
H251   H     0.36297   0.45286   0.46369   0.00000  Uiso   1.00
H252   H     0.63862   0.54456   0.45432   0.00000  Uiso   1.00
H253   H     0.36138   0.45544   0.04568   0.00000  Uiso   1.00
H254   H     0.60300   0.64925   0.29137   0.00000  Uiso   1.00
N255   N     0.65011   0.48598   0.23783   0.00000  Uiso   1.00
N256   N     0.34989   0.51402   0.26217   0.00000  Uiso   1.00
O257   O     0.46308   0.57952   0.25298   0.00000  Uiso   1.00
O258   O     0.44827   0.63262   0.17934   0.00000  Uiso   1.00
O259   O     0.66482   0.43655   0.17440   0.00000  Uiso   1.00
O260   O     0.33519   0.56343   0.32561   0.00000  Uiso   1.00
O261   O     0.53692   0.42048   0.24701   0.00000  Uiso   1.00
O262   O     0.55946   0.57054   0.24518   0.00000  Uiso   1.00
O263   O     0.44054   0.42946   0.25481   0.00000  Uiso   1.00
O264   O     0.45181   0.50450   0.31997   0.00000  Uiso   1.00
O265   O     0.54819   0.49550   0.18002   0.00000  Uiso   1.00
O266   O     0.54819   0.49552   0.31217   0.00000  Uiso   1.00
O267   O     0.45181   0.50448   0.18782   0.00000  Uiso   1.00
O268   O     0.55174   0.36738   0.32066   0.00000  Uiso   1.00
Zn269  Zn    0.43565   0.50600   0.25521   0.00000  Uiso   1.00
Zn270  Zn    0.56435   0.49400   0.24479   0.00000  Uiso   1.00
C271   C     0.84803   0.59796   0.24940   0.00000  Uiso   1.00
C272   C     0.88451   0.51400   0.40539   0.00000  Uiso   1.00
C273   C     0.83149   0.50243   0.11571   0.00000  Uiso   1.00
C274   C     0.83517   0.49757   0.38429   0.00000  Uiso   1.00
C275   C     0.88124   0.51890   0.09109   0.00000  Uiso   1.00
C276   C     0.78542   0.48110   0.40891   0.00000  Uiso   1.00
C277   C     0.88237   0.51811   0.04483   0.00000  Uiso   1.00
C278   C     0.78430   0.48190   0.45517   0.00000  Uiso   1.00
C279   C     0.83284   0.50082   0.02328   0.00000  Uiso   1.00
C280   C     0.83382   0.49918   0.47672   0.00000  Uiso   1.00
C281   C     0.78243   0.48497   0.04830   0.00000  Uiso   1.00
C282   C     0.81864   0.40204   0.25060   0.00000  Uiso   1.00
C283   C     0.88424   0.51503   0.45170   0.00000  Uiso   1.00
C284   C     0.93222   0.53382   0.01987   0.00000  Uiso   1.00
C285   C     0.73444   0.46618   0.48013   0.00000  Uiso   1.00
C286   C     0.89610   0.33500   0.29125   0.00000  Uiso   1.00
C287   C     0.77057   0.66500   0.20875   0.00000  Uiso   1.00
C288   C     0.67003   0.47918   0.19281   0.00000  Uiso   1.00
C289   C     0.99664   0.52082   0.30719   0.00000  Uiso   1.00
C290   C     0.93315   0.53229   0.47334   0.00000  Uiso   1.00
C291   C     0.73351   0.46771   0.02666   0.00000  Uiso   1.00
C292   C     0.85378   0.65178   0.25745   0.00000  Uiso   1.00
C293   C     0.81289   0.34822   0.24255   0.00000  Uiso   1.00
C294   C     0.83416   0.49938   0.33647   0.00000  Uiso   1.00
C295   C     0.83250   0.50062   0.16353   0.00000  Uiso   1.00
C296   C     0.78216   0.48600   0.09461   0.00000  Uiso   1.00
H297   H     0.74430   0.47256   0.11403   0.00000  Uiso   1.00
H298   H     0.73033   0.35075   0.20863   0.00000  Uiso   1.00
H299   H     0.68632   0.51245   0.17367   0.00000  Uiso   1.00
H300   H     0.98034   0.48755   0.32633   0.00000  Uiso   1.00
H301   H     0.92237   0.52744   0.38597   0.00000  Uiso   1.00
H302   H     0.91920   0.53203   0.10796   0.00000  Uiso   1.00
H303   H     0.74746   0.46797   0.39204   0.00000  Uiso   1.00
H304   H     0.97036   0.54715   0.03631   0.00000  Uiso   1.00
H305   H     0.69630   0.45286   0.46369   0.00000  Uiso   1.00
H306   H     0.97195   0.54456   0.45432   0.00000  Uiso   1.00
H307   H     0.69471   0.45544   0.04568   0.00000  Uiso   1.00
H308   H     0.93633   0.64925   0.29137   0.00000  Uiso   1.00
N309   N     0.98344   0.48598   0.23783   0.00000  Uiso   1.00
N310   N     0.68322   0.51402   0.26217   0.00000  Uiso   1.00
O311   O     0.79642   0.57952   0.25298   0.00000  Uiso   1.00
O312   O     0.78160   0.63262   0.17934   0.00000  Uiso   1.00
O313   O     0.99816   0.43655   0.17440   0.00000  Uiso   1.00
O314   O     0.66852   0.56343   0.32561   0.00000  Uiso   1.00
O315   O     0.87025   0.42048   0.24701   0.00000  Uiso   1.00
O316   O     0.89280   0.57054   0.24518   0.00000  Uiso   1.00
O317   O     0.77387   0.42946   0.25481   0.00000  Uiso   1.00
O318   O     0.78514   0.50450   0.31997   0.00000  Uiso   1.00
O319   O     0.88153   0.49550   0.18002   0.00000  Uiso   1.00
O320   O     0.88152   0.49552   0.31217   0.00000  Uiso   1.00
O321   O     0.78515   0.50448   0.18782   0.00000  Uiso   1.00
O322   O     0.88507   0.36738   0.32066   0.00000  Uiso   1.00
Zn323  Zn    0.76898   0.50600   0.25521   0.00000  Uiso   1.00
Zn324  Zn    0.89769   0.49400   0.24479   0.00000  Uiso   1.00
C325   C     0.18136   0.93129   0.24940   0.00000  Uiso   1.00
C326   C     0.21784   0.84733   0.40539   0.00000  Uiso   1.00
C327   C     0.16483   0.83576   0.11571   0.00000  Uiso   1.00
C328   C     0.16851   0.83090   0.38429   0.00000  Uiso   1.00
C329   C     0.21458   0.85223   0.09109   0.00000  Uiso   1.00
C330   C     0.11875   0.81443   0.40891   0.00000  Uiso   1.00
C331   C     0.21570   0.85144   0.04483   0.00000  Uiso   1.00
C332   C     0.11763   0.81523   0.45517   0.00000  Uiso   1.00
C333   C     0.16618   0.83416   0.02328   0.00000  Uiso   1.00
C334   C     0.16715   0.83251   0.47672   0.00000  Uiso   1.00
C335   C     0.11576   0.81831   0.04830   0.00000  Uiso   1.00
C336   C     0.15197   0.73538   0.25060   0.00000  Uiso   1.00
C337   C     0.21757   0.84836   0.45170   0.00000  Uiso   1.00
C338   C     0.26555   0.86716   0.01987   0.00000  Uiso   1.00
C339   C     0.06778   0.79951   0.48013   0.00000  Uiso   1.00
C340   C     0.22943   0.66833   0.29125   0.00000  Uiso   1.00
C341   C     0.10390   0.99834   0.20875   0.00000  Uiso   1.00
C342   C     0.00336   0.81251   0.19281   0.00000  Uiso   1.00
C343   C     0.32997   0.85415   0.30719   0.00000  Uiso   1.00
C344   C     0.26649   0.86562   0.47334   0.00000  Uiso   1.00
C345   C     0.06684   0.80104   0.02666   0.00000  Uiso   1.00
C346   C     0.18711   0.98512   0.25745   0.00000  Uiso   1.00
C347   C     0.14622   0.68155   0.24255   0.00000  Uiso   1.00
C348   C     0.16750   0.83271   0.33647   0.00000  Uiso   1.00
C349   C     0.16584   0.83395   0.16353   0.00000  Uiso   1.00
C350   C     0.11549   0.81934   0.09461   0.00000  Uiso   1.00
H351   H     0.07763   0.80590   0.11403   0.00000  Uiso   1.00
H352   H     0.06366   0.68408   0.20863   0.00000  Uiso   1.00
H353   H     0.01966   0.84578   0.17367   0.00000  Uiso   1.00
H354   H     0.31367   0.82088   0.32633   0.00000  Uiso   1.00
H355   H     0.25570   0.86077   0.38597   0.00000  Uiso   1.00
H356   H     0.25254   0.86536   0.10796   0.00000  Uiso   1.00
H357   H     0.08080   0.80130   0.39204   0.00000  Uiso   1.00
H358   H     0.30369   0.88048   0.03631   0.00000  Uiso   1.00
H359   H     0.02964   0.78619   0.46369   0.00000  Uiso   1.00
H360   H     0.30529   0.87789   0.45432   0.00000  Uiso   1.00
H361   H     0.02804   0.78877   0.04568   0.00000  Uiso   1.00
H362   H     0.26967   0.98258   0.29137   0.00000  Uiso   1.00
N363   N     0.31678   0.81932   0.23783   0.00000  Uiso   1.00
N364   N     0.01656   0.84735   0.26217   0.00000  Uiso   1.00
O365   O     0.12975   0.91286   0.25298   0.00000  Uiso   1.00
O366   O     0.11494   0.96596   0.17934   0.00000  Uiso   1.00
O367   O     0.33149   0.76989   0.17440   0.00000  Uiso   1.00
O368   O     0.00185   0.89677   0.32561   0.00000  Uiso   1.00
O369   O     0.20358   0.75381   0.24701   0.00000  Uiso   1.00
O370   O     0.22613   0.90387   0.24518   0.00000  Uiso   1.00
O371   O     0.10720   0.76279   0.25481   0.00000  Uiso   1.00
O372   O     0.11847   0.83784   0.31997   0.00000  Uiso   1.00
O373   O     0.21486   0.82883   0.18002   0.00000  Uiso   1.00
O374   O     0.21485   0.82885   0.31217   0.00000  Uiso   1.00
O375   O     0.11848   0.83781   0.18782   0.00000  Uiso   1.00
O376   O     0.21840   0.70072   0.32066   0.00000  Uiso   1.00
Zn377  Zn    0.10231   0.83933   0.25521   0.00000  Uiso   1.00
Zn378  Zn    0.23102   0.82734   0.24479   0.00000  Uiso   1.00
C379   C     0.51470   0.93129   0.24940   0.00000  Uiso   1.00
C380   C     0.55117   0.84733   0.40539   0.00000  Uiso   1.00
C381   C     0.49816   0.83576   0.11571   0.00000  Uiso   1.00
C382   C     0.50184   0.83090   0.38429   0.00000  Uiso   1.00
C383   C     0.54791   0.85223   0.09109   0.00000  Uiso   1.00
C384   C     0.45209   0.81443   0.40891   0.00000  Uiso   1.00
C385   C     0.54903   0.85144   0.04483   0.00000  Uiso   1.00
C386   C     0.45096   0.81523   0.45517   0.00000  Uiso   1.00
C387   C     0.49951   0.83416   0.02328   0.00000  Uiso   1.00
C388   C     0.50049   0.83251   0.47672   0.00000  Uiso   1.00
C389   C     0.44909   0.81831   0.04830   0.00000  Uiso   1.00
C390   C     0.48530   0.73538   0.25060   0.00000  Uiso   1.00
C391   C     0.55090   0.84836   0.45170   0.00000  Uiso   1.00
C392   C     0.59889   0.86716   0.01987   0.00000  Uiso   1.00
C393   C     0.40111   0.79951   0.48013   0.00000  Uiso   1.00
C394   C     0.56276   0.66833   0.29125   0.00000  Uiso   1.00
C395   C     0.43724   0.99834   0.20875   0.00000  Uiso   1.00
C396   C     0.33669   0.81251   0.19281   0.00000  Uiso   1.00
C397   C     0.66331   0.85415   0.30719   0.00000  Uiso   1.00
C398   C     0.59982   0.86562   0.47334   0.00000  Uiso   1.00
C399   C     0.40018   0.80104   0.02666   0.00000  Uiso   1.00
C400   C     0.52044   0.98512   0.25745   0.00000  Uiso   1.00
C401   C     0.47956   0.68155   0.24255   0.00000  Uiso   1.00
C402   C     0.50083   0.83271   0.33647   0.00000  Uiso   1.00
C403   C     0.49917   0.83395   0.16353   0.00000  Uiso   1.00
C404   C     0.44883   0.81934   0.09461   0.00000  Uiso   1.00
H405   H     0.41097   0.80590   0.11403   0.00000  Uiso   1.00
H406   H     0.39699   0.68408   0.20863   0.00000  Uiso   1.00
H407   H     0.35299   0.84578   0.17367   0.00000  Uiso   1.00
H408   H     0.64701   0.82088   0.32633   0.00000  Uiso   1.00
H409   H     0.58903   0.86077   0.38597   0.00000  Uiso   1.00
H410   H     0.58587   0.86536   0.10796   0.00000  Uiso   1.00
H411   H     0.41413   0.80130   0.39204   0.00000  Uiso   1.00
H412   H     0.63703   0.88048   0.03631   0.00000  Uiso   1.00
H413   H     0.36297   0.78619   0.46369   0.00000  Uiso   1.00
H414   H     0.63862   0.87789   0.45432   0.00000  Uiso   1.00
H415   H     0.36138   0.78877   0.04568   0.00000  Uiso   1.00
H416   H     0.60300   0.98258   0.29137   0.00000  Uiso   1.00
N417   N     0.65011   0.81932   0.23783   0.00000  Uiso   1.00
N418   N     0.34989   0.84735   0.26217   0.00000  Uiso   1.00
O419   O     0.46308   0.91286   0.25298   0.00000  Uiso   1.00
O420   O     0.44827   0.96596   0.17934   0.00000  Uiso   1.00
O421   O     0.66482   0.76989   0.17440   0.00000  Uiso   1.00
O422   O     0.33519   0.89677   0.32561   0.00000  Uiso   1.00
O423   O     0.53692   0.75381   0.24701   0.00000  Uiso   1.00
O424   O     0.55946   0.90387   0.24518   0.00000  Uiso   1.00
O425   O     0.44054   0.76279   0.25481   0.00000  Uiso   1.00
O426   O     0.45181   0.83784   0.31997   0.00000  Uiso   1.00
O427   O     0.54819   0.82883   0.18002   0.00000  Uiso   1.00
O428   O     0.54819   0.82885   0.31217   0.00000  Uiso   1.00
O429   O     0.45181   0.83781   0.18782   0.00000  Uiso   1.00
O430   O     0.55174   0.70072   0.32066   0.00000  Uiso   1.00
Zn431  Zn    0.43565   0.83933   0.25521   0.00000  Uiso   1.00
Zn432  Zn    0.56435   0.82734   0.24479   0.00000  Uiso   1.00
C433   C     0.84803   0.93129   0.24940   0.00000  Uiso   1.00
C434   C     0.88451   0.84733   0.40539   0.00000  Uiso   1.00
C435   C     0.83149   0.83576   0.11571   0.00000  Uiso   1.00
C436   C     0.83517   0.83090   0.38429   0.00000  Uiso   1.00
C437   C     0.88124   0.85223   0.09109   0.00000  Uiso   1.00
C438   C     0.78542   0.81443   0.40891   0.00000  Uiso   1.00
C439   C     0.88237   0.85144   0.04483   0.00000  Uiso   1.00
C440   C     0.78430   0.81523   0.45517   0.00000  Uiso   1.00
C441   C     0.83284   0.83416   0.02328   0.00000  Uiso   1.00
C442   C     0.83382   0.83251   0.47672   0.00000  Uiso   1.00
C443   C     0.78243   0.81831   0.04830   0.00000  Uiso   1.00
C444   C     0.81864   0.73538   0.25060   0.00000  Uiso   1.00
C445   C     0.88424   0.84836   0.45170   0.00000  Uiso   1.00
C446   C     0.93222   0.86716   0.01987   0.00000  Uiso   1.00
C447   C     0.73444   0.79951   0.48013   0.00000  Uiso   1.00
C448   C     0.89610   0.66833   0.29125   0.00000  Uiso   1.00
C449   C     0.77057   0.99834   0.20875   0.00000  Uiso   1.00
C450   C     0.67003   0.81251   0.19281   0.00000  Uiso   1.00
C451   C     0.99664   0.85415   0.30719   0.00000  Uiso   1.00
C452   C     0.93315   0.86562   0.47334   0.00000  Uiso   1.00
C453   C     0.73351   0.80104   0.02666   0.00000  Uiso   1.00
C454   C     0.85378   0.98512   0.25745   0.00000  Uiso   1.00
C455   C     0.81289   0.68155   0.24255   0.00000  Uiso   1.00
C456   C     0.83416   0.83271   0.33647   0.00000  Uiso   1.00
C457   C     0.83250   0.83395   0.16353   0.00000  Uiso   1.00
C458   C     0.78216   0.81934   0.09461   0.00000  Uiso   1.00
H459   H     0.74430   0.80590   0.11403   0.00000  Uiso   1.00
H460   H     0.73033   0.68408   0.20863   0.00000  Uiso   1.00
H461   H     0.68632   0.84578   0.17367   0.00000  Uiso   1.00
H462   H     0.98034   0.82088   0.32633   0.00000  Uiso   1.00
H463   H     0.92237   0.86077   0.38597   0.00000  Uiso   1.00
H464   H     0.91920   0.86536   0.10796   0.00000  Uiso   1.00
H465   H     0.74746   0.80130   0.39204   0.00000  Uiso   1.00
H466   H     0.97036   0.88048   0.03631   0.00000  Uiso   1.00
H467   H     0.69630   0.78619   0.46369   0.00000  Uiso   1.00
H468   H     0.97195   0.87789   0.45432   0.00000  Uiso   1.00
H469   H     0.69471   0.78877   0.04568   0.00000  Uiso   1.00
H470   H     0.93633   0.98258   0.29137   0.00000  Uiso   1.00
N471   N     0.98344   0.81932   0.23783   0.00000  Uiso   1.00
N472   N     0.68322   0.84735   0.26217   0.00000  Uiso   1.00
O473   O     0.79642   0.91286   0.25298   0.00000  Uiso   1.00
O474   O     0.78160   0.96596   0.17934   0.00000  Uiso   1.00
O475   O     0.99816   0.76989   0.17440   0.00000  Uiso   1.00
O476   O     0.66852   0.89677   0.32561   0.00000  Uiso   1.00
O477   O     0.87025   0.75381   0.24701   0.00000  Uiso   1.00
O478   O     0.89280   0.90387   0.24518   0.00000  Uiso   1.00
O479   O     0.77387   0.76279   0.25481   0.00000  Uiso   1.00
O480   O     0.78514   0.83784   0.31997   0.00000  Uiso   1.00
O481   O     0.88153   0.82883   0.18002   0.00000  Uiso   1.00
O482   O     0.88152   0.82885   0.31217   0.00000  Uiso   1.00
O483   O     0.78515   0.83781   0.18782   0.00000  Uiso   1.00
O484   O     0.88507   0.70072   0.32066   0.00000  Uiso   1.00
Zn485  Zn    0.76898   0.83933   0.25521   0.00000  Uiso   1.00
Zn486  Zn    0.89769   0.82734   0.24479   0.00000  Uiso   1.00
C487   C     0.18136   0.26462   0.74940   0.00000  Uiso   1.00
C488   C     0.21784   0.18066   0.90539   0.00000  Uiso   1.00
C489   C     0.16483   0.16910   0.61571   0.00000  Uiso   1.00
C490   C     0.16851   0.16424   0.88429   0.00000  Uiso   1.00
C491   C     0.21458   0.18557   0.59109   0.00000  Uiso   1.00
C492   C     0.11875   0.14777   0.90891   0.00000  Uiso   1.00
C493   C     0.21570   0.18477   0.54483   0.00000  Uiso   1.00
C494   C     0.11763   0.14856   0.95517   0.00000  Uiso   1.00
C495   C     0.16618   0.16749   0.52328   0.00000  Uiso   1.00
C496   C     0.16715   0.16585   0.97672   0.00000  Uiso   1.00
C497   C     0.11576   0.15164   0.54830   0.00000  Uiso   1.00
C498   C     0.15197   0.06871   0.75060   0.00000  Uiso   1.00
C499   C     0.21757   0.18170   0.95170   0.00000  Uiso   1.00
C500   C     0.26555   0.20049   0.51987   0.00000  Uiso   1.00
C501   C     0.06778   0.13285   0.98013   0.00000  Uiso   1.00
C502   C     0.22943   0.00166   0.79125   0.00000  Uiso   1.00
C503   C     0.10390   0.33167   0.70875   0.00000  Uiso   1.00
C504   C     0.00336   0.14584   0.69281   0.00000  Uiso   1.00
C505   C     0.32997   0.18749   0.80719   0.00000  Uiso   1.00
C506   C     0.26649   0.19896   0.97334   0.00000  Uiso   1.00
C507   C     0.06684   0.13438   0.52666   0.00000  Uiso   1.00
C508   C     0.18711   0.31845   0.75745   0.00000  Uiso   1.00
C509   C     0.14622   0.01488   0.74255   0.00000  Uiso   1.00
C510   C     0.16750   0.16605   0.83647   0.00000  Uiso   1.00
C511   C     0.16584   0.16729   0.66353   0.00000  Uiso   1.00
C512   C     0.11549   0.15267   0.59461   0.00000  Uiso   1.00
H513   H     0.07763   0.13923   0.61403   0.00000  Uiso   1.00
H514   H     0.06366   0.01741   0.70863   0.00000  Uiso   1.00
H515   H     0.01966   0.17911   0.67367   0.00000  Uiso   1.00
H516   H     0.31367   0.15422   0.82633   0.00000  Uiso   1.00
H517   H     0.25570   0.19410   0.88597   0.00000  Uiso   1.00
H518   H     0.25254   0.19870   0.60796   0.00000  Uiso   1.00
H519   H     0.08080   0.13464   0.89204   0.00000  Uiso   1.00
H520   H     0.30369   0.21381   0.53631   0.00000  Uiso   1.00
H521   H     0.02964   0.11952   0.96369   0.00000  Uiso   1.00
H522   H     0.30529   0.21123   0.95432   0.00000  Uiso   1.00
H523   H     0.02804   0.12211   0.54568   0.00000  Uiso   1.00
H524   H     0.26967   0.31591   0.79137   0.00000  Uiso   1.00
N525   N     0.31678   0.15265   0.73783   0.00000  Uiso   1.00
N526   N     0.01656   0.18068   0.76217   0.00000  Uiso   1.00
O527   O     0.12975   0.24619   0.75298   0.00000  Uiso   1.00
O528   O     0.11494   0.29929   0.67934   0.00000  Uiso   1.00
O529   O     0.33149   0.10322   0.67440   0.00000  Uiso   1.00
O530   O     0.00185   0.23010   0.82561   0.00000  Uiso   1.00
O531   O     0.20358   0.08714   0.74701   0.00000  Uiso   1.00
O532   O     0.22613   0.23721   0.74518   0.00000  Uiso   1.00
O533   O     0.10720   0.09613   0.75481   0.00000  Uiso   1.00
O534   O     0.11847   0.17117   0.81997   0.00000  Uiso   1.00
O535   O     0.21486   0.16216   0.68002   0.00000  Uiso   1.00
O536   O     0.21485   0.16219   0.81217   0.00000  Uiso   1.00
O537   O     0.11848   0.17115   0.68782   0.00000  Uiso   1.00
O538   O     0.21840   0.03405   0.82066   0.00000  Uiso   1.00
Zn539  Zn    0.10231   0.17266   0.75521   0.00000  Uiso   1.00
Zn540  Zn    0.23102   0.16067   0.74479   0.00000  Uiso   1.00
C541   C     0.51470   0.26462   0.74940   0.00000  Uiso   1.00
C542   C     0.55117   0.18066   0.90539   0.00000  Uiso   1.00
C543   C     0.49816   0.16910   0.61571   0.00000  Uiso   1.00
C544   C     0.50184   0.16424   0.88429   0.00000  Uiso   1.00
C545   C     0.54791   0.18557   0.59109   0.00000  Uiso   1.00
C546   C     0.45209   0.14777   0.90891   0.00000  Uiso   1.00
C547   C     0.54903   0.18477   0.54483   0.00000  Uiso   1.00
C548   C     0.45096   0.14856   0.95517   0.00000  Uiso   1.00
C549   C     0.49951   0.16749   0.52328   0.00000  Uiso   1.00
C550   C     0.50049   0.16585   0.97672   0.00000  Uiso   1.00
C551   C     0.44909   0.15164   0.54830   0.00000  Uiso   1.00
C552   C     0.48530   0.06871   0.75060   0.00000  Uiso   1.00
C553   C     0.55090   0.18170   0.95170   0.00000  Uiso   1.00
C554   C     0.59889   0.20049   0.51987   0.00000  Uiso   1.00
C555   C     0.40111   0.13285   0.98013   0.00000  Uiso   1.00
C556   C     0.56276   0.00166   0.79125   0.00000  Uiso   1.00
C557   C     0.43724   0.33167   0.70875   0.00000  Uiso   1.00
C558   C     0.33669   0.14584   0.69281   0.00000  Uiso   1.00
C559   C     0.66331   0.18749   0.80719   0.00000  Uiso   1.00
C560   C     0.59982   0.19896   0.97334   0.00000  Uiso   1.00
C561   C     0.40018   0.13438   0.52666   0.00000  Uiso   1.00
C562   C     0.52044   0.31845   0.75745   0.00000  Uiso   1.00
C563   C     0.47956   0.01488   0.74255   0.00000  Uiso   1.00
C564   C     0.50083   0.16605   0.83647   0.00000  Uiso   1.00
C565   C     0.49917   0.16729   0.66353   0.00000  Uiso   1.00
C566   C     0.44883   0.15267   0.59461   0.00000  Uiso   1.00
H567   H     0.41097   0.13923   0.61403   0.00000  Uiso   1.00
H568   H     0.39699   0.01741   0.70863   0.00000  Uiso   1.00
H569   H     0.35299   0.17911   0.67367   0.00000  Uiso   1.00
H570   H     0.64701   0.15422   0.82633   0.00000  Uiso   1.00
H571   H     0.58903   0.19410   0.88597   0.00000  Uiso   1.00
H572   H     0.58587   0.19870   0.60796   0.00000  Uiso   1.00
H573   H     0.41413   0.13464   0.89204   0.00000  Uiso   1.00
H574   H     0.63703   0.21381   0.53631   0.00000  Uiso   1.00
H575   H     0.36297   0.11952   0.96369   0.00000  Uiso   1.00
H576   H     0.63862   0.21123   0.95432   0.00000  Uiso   1.00
H577   H     0.36138   0.12211   0.54568   0.00000  Uiso   1.00
H578   H     0.60300   0.31591   0.79137   0.00000  Uiso   1.00
N579   N     0.65011   0.15265   0.73783   0.00000  Uiso   1.00
N580   N     0.34989   0.18068   0.76217   0.00000  Uiso   1.00
O581   O     0.46308   0.24619   0.75298   0.00000  Uiso   1.00
O582   O     0.44827   0.29929   0.67934   0.00000  Uiso   1.00
O583   O     0.66482   0.10322   0.67440   0.00000  Uiso   1.00
O584   O     0.33519   0.23010   0.82561   0.00000  Uiso   1.00
O585   O     0.53692   0.08714   0.74701   0.00000  Uiso   1.00
O586   O     0.55946   0.23721   0.74518   0.00000  Uiso   1.00
O587   O     0.44054   0.09613   0.75481   0.00000  Uiso   1.00
O588   O     0.45181   0.17117   0.81997   0.00000  Uiso   1.00
O589   O     0.54819   0.16216   0.68002   0.00000  Uiso   1.00
O590   O     0.54819   0.16219   0.81217   0.00000  Uiso   1.00
O591   O     0.45181   0.17115   0.68782   0.00000  Uiso   1.00
O592   O     0.55174   0.03405   0.82066   0.00000  Uiso   1.00
Zn593  Zn    0.43565   0.17266   0.75521   0.00000  Uiso   1.00
Zn594  Zn    0.56435   0.16067   0.74479   0.00000  Uiso   1.00
C595   C     0.84803   0.26462   0.74940   0.00000  Uiso   1.00
C596   C     0.88451   0.18066   0.90539   0.00000  Uiso   1.00
C597   C     0.83149   0.16910   0.61571   0.00000  Uiso   1.00
C598   C     0.83517   0.16424   0.88429   0.00000  Uiso   1.00
C599   C     0.88124   0.18557   0.59109   0.00000  Uiso   1.00
C600   C     0.78542   0.14777   0.90891   0.00000  Uiso   1.00
C601   C     0.88237   0.18477   0.54483   0.00000  Uiso   1.00
C602   C     0.78430   0.14856   0.95517   0.00000  Uiso   1.00
C603   C     0.83284   0.16749   0.52328   0.00000  Uiso   1.00
C604   C     0.83382   0.16585   0.97672   0.00000  Uiso   1.00
C605   C     0.78243   0.15164   0.54830   0.00000  Uiso   1.00
C606   C     0.81864   0.06871   0.75060   0.00000  Uiso   1.00
C607   C     0.88424   0.18170   0.95170   0.00000  Uiso   1.00
C608   C     0.93222   0.20049   0.51987   0.00000  Uiso   1.00
C609   C     0.73444   0.13285   0.98013   0.00000  Uiso   1.00
C610   C     0.89610   0.00166   0.79125   0.00000  Uiso   1.00
C611   C     0.77057   0.33167   0.70875   0.00000  Uiso   1.00
C612   C     0.67003   0.14584   0.69281   0.00000  Uiso   1.00
C613   C     0.99664   0.18749   0.80719   0.00000  Uiso   1.00
C614   C     0.93315   0.19896   0.97334   0.00000  Uiso   1.00
C615   C     0.73351   0.13438   0.52666   0.00000  Uiso   1.00
C616   C     0.85378   0.31845   0.75745   0.00000  Uiso   1.00
C617   C     0.81289   0.01488   0.74255   0.00000  Uiso   1.00
C618   C     0.83416   0.16605   0.83647   0.00000  Uiso   1.00
C619   C     0.83250   0.16729   0.66353   0.00000  Uiso   1.00
C620   C     0.78216   0.15267   0.59461   0.00000  Uiso   1.00
H621   H     0.74430   0.13923   0.61403   0.00000  Uiso   1.00
H622   H     0.73033   0.01741   0.70863   0.00000  Uiso   1.00
H623   H     0.68632   0.17911   0.67367   0.00000  Uiso   1.00
H624   H     0.98034   0.15422   0.82633   0.00000  Uiso   1.00
H625   H     0.92237   0.19410   0.88597   0.00000  Uiso   1.00
H626   H     0.91920   0.19870   0.60796   0.00000  Uiso   1.00
H627   H     0.74746   0.13464   0.89204   0.00000  Uiso   1.00
H628   H     0.97036   0.21381   0.53631   0.00000  Uiso   1.00
H629   H     0.69630   0.11952   0.96369   0.00000  Uiso   1.00
H630   H     0.97195   0.21123   0.95432   0.00000  Uiso   1.00
H631   H     0.69471   0.12211   0.54568   0.00000  Uiso   1.00
H632   H     0.93633   0.31591   0.79137   0.00000  Uiso   1.00
N633   N     0.98344   0.15265   0.73783   0.00000  Uiso   1.00
N634   N     0.68322   0.18068   0.76217   0.00000  Uiso   1.00
O635   O     0.79642   0.24619   0.75298   0.00000  Uiso   1.00
O636   O     0.78160   0.29929   0.67934   0.00000  Uiso   1.00
O637   O     0.99816   0.10322   0.67440   0.00000  Uiso   1.00
O638   O     0.66852   0.23010   0.82561   0.00000  Uiso   1.00
O639   O     0.87025   0.08714   0.74701   0.00000  Uiso   1.00
O640   O     0.89280   0.23721   0.74518   0.00000  Uiso   1.00
O641   O     0.77387   0.09613   0.75481   0.00000  Uiso   1.00
O642   O     0.78514   0.17117   0.81997   0.00000  Uiso   1.00
O643   O     0.88153   0.16216   0.68002   0.00000  Uiso   1.00
O644   O     0.88152   0.16219   0.81217   0.00000  Uiso   1.00
O645   O     0.78515   0.17115   0.68782   0.00000  Uiso   1.00
O646   O     0.88507   0.03405   0.82066   0.00000  Uiso   1.00
Zn647  Zn    0.76898   0.17266   0.75521   0.00000  Uiso   1.00
Zn648  Zn    0.89769   0.16067   0.74479   0.00000  Uiso   1.00
C649   C     0.18136   0.59796   0.74940   0.00000  Uiso   1.00
C650   C     0.21784   0.51400   0.90539   0.00000  Uiso   1.00
C651   C     0.16483   0.50243   0.61571   0.00000  Uiso   1.00
C652   C     0.16851   0.49757   0.88429   0.00000  Uiso   1.00
C653   C     0.21458   0.51890   0.59109   0.00000  Uiso   1.00
C654   C     0.11875   0.48110   0.90891   0.00000  Uiso   1.00
C655   C     0.21570   0.51811   0.54483   0.00000  Uiso   1.00
C656   C     0.11763   0.48190   0.95517   0.00000  Uiso   1.00
C657   C     0.16618   0.50082   0.52328   0.00000  Uiso   1.00
C658   C     0.16715   0.49918   0.97672   0.00000  Uiso   1.00
C659   C     0.11576   0.48497   0.54830   0.00000  Uiso   1.00
C660   C     0.15197   0.40204   0.75060   0.00000  Uiso   1.00
C661   C     0.21757   0.51503   0.95170   0.00000  Uiso   1.00
C662   C     0.26555   0.53382   0.51987   0.00000  Uiso   1.00
C663   C     0.06778   0.46618   0.98013   0.00000  Uiso   1.00
C664   C     0.22943   0.33500   0.79125   0.00000  Uiso   1.00
C665   C     0.10390   0.66500   0.70875   0.00000  Uiso   1.00
C666   C     0.00336   0.47918   0.69281   0.00000  Uiso   1.00
C667   C     0.32997   0.52082   0.80719   0.00000  Uiso   1.00
C668   C     0.26649   0.53229   0.97334   0.00000  Uiso   1.00
C669   C     0.06684   0.46771   0.52666   0.00000  Uiso   1.00
C670   C     0.18711   0.65178   0.75745   0.00000  Uiso   1.00
C671   C     0.14622   0.34822   0.74255   0.00000  Uiso   1.00
C672   C     0.16750   0.49938   0.83647   0.00000  Uiso   1.00
C673   C     0.16584   0.50062   0.66353   0.00000  Uiso   1.00
C674   C     0.11549   0.48600   0.59461   0.00000  Uiso   1.00
H675   H     0.07763   0.47256   0.61403   0.00000  Uiso   1.00
H676   H     0.06366   0.35075   0.70863   0.00000  Uiso   1.00
H677   H     0.01966   0.51245   0.67367   0.00000  Uiso   1.00
H678   H     0.31367   0.48755   0.82633   0.00000  Uiso   1.00
H679   H     0.25570   0.52744   0.88597   0.00000  Uiso   1.00
H680   H     0.25254   0.53203   0.60796   0.00000  Uiso   1.00
H681   H     0.08080   0.46797   0.89204   0.00000  Uiso   1.00
H682   H     0.30369   0.54715   0.53631   0.00000  Uiso   1.00
H683   H     0.02964   0.45286   0.96369   0.00000  Uiso   1.00
H684   H     0.30529   0.54456   0.95432   0.00000  Uiso   1.00
H685   H     0.02804   0.45544   0.54568   0.00000  Uiso   1.00
H686   H     0.26967   0.64925   0.79137   0.00000  Uiso   1.00
N687   N     0.31678   0.48598   0.73783   0.00000  Uiso   1.00
N688   N     0.01656   0.51402   0.76217   0.00000  Uiso   1.00
O689   O     0.12975   0.57952   0.75298   0.00000  Uiso   1.00
O690   O     0.11494   0.63262   0.67934   0.00000  Uiso   1.00
O691   O     0.33149   0.43655   0.67440   0.00000  Uiso   1.00
O692   O     0.00185   0.56343   0.82561   0.00000  Uiso   1.00
O693   O     0.20358   0.42048   0.74701   0.00000  Uiso   1.00
O694   O     0.22613   0.57054   0.74518   0.00000  Uiso   1.00
O695   O     0.10720   0.42946   0.75481   0.00000  Uiso   1.00
O696   O     0.11847   0.50450   0.81997   0.00000  Uiso   1.00
O697   O     0.21486   0.49550   0.68002   0.00000  Uiso   1.00
O698   O     0.21485   0.49552   0.81217   0.00000  Uiso   1.00
O699   O     0.11848   0.50448   0.68782   0.00000  Uiso   1.00
O700   O     0.21840   0.36738   0.82066   0.00000  Uiso   1.00
Zn701  Zn    0.10231   0.50600   0.75521   0.00000  Uiso   1.00
Zn702  Zn    0.23102   0.49400   0.74479   0.00000  Uiso   1.00
C703   C     0.51470   0.59796   0.74940   0.00000  Uiso   1.00
C704   C     0.55117   0.51400   0.90539   0.00000  Uiso   1.00
C705   C     0.49816   0.50243   0.61571   0.00000  Uiso   1.00
C706   C     0.50184   0.49757   0.88429   0.00000  Uiso   1.00
C707   C     0.54791   0.51890   0.59109   0.00000  Uiso   1.00
C708   C     0.45209   0.48110   0.90891   0.00000  Uiso   1.00
C709   C     0.54903   0.51811   0.54483   0.00000  Uiso   1.00
C710   C     0.45096   0.48190   0.95517   0.00000  Uiso   1.00
C711   C     0.49951   0.50082   0.52328   0.00000  Uiso   1.00
C712   C     0.50049   0.49918   0.97672   0.00000  Uiso   1.00
C713   C     0.44909   0.48497   0.54830   0.00000  Uiso   1.00
C714   C     0.48530   0.40204   0.75060   0.00000  Uiso   1.00
C715   C     0.55090   0.51503   0.95170   0.00000  Uiso   1.00
C716   C     0.59889   0.53382   0.51987   0.00000  Uiso   1.00
C717   C     0.40111   0.46618   0.98013   0.00000  Uiso   1.00
C718   C     0.56276   0.33500   0.79125   0.00000  Uiso   1.00
C719   C     0.43724   0.66500   0.70875   0.00000  Uiso   1.00
C720   C     0.33669   0.47918   0.69281   0.00000  Uiso   1.00
C721   C     0.66331   0.52082   0.80719   0.00000  Uiso   1.00
C722   C     0.59982   0.53229   0.97334   0.00000  Uiso   1.00
C723   C     0.40018   0.46771   0.52666   0.00000  Uiso   1.00
C724   C     0.52044   0.65178   0.75745   0.00000  Uiso   1.00
C725   C     0.47956   0.34822   0.74255   0.00000  Uiso   1.00
C726   C     0.50083   0.49938   0.83647   0.00000  Uiso   1.00
C727   C     0.49917   0.50062   0.66353   0.00000  Uiso   1.00
C728   C     0.44883   0.48600   0.59461   0.00000  Uiso   1.00
H729   H     0.41097   0.47256   0.61403   0.00000  Uiso   1.00
H730   H     0.39699   0.35075   0.70863   0.00000  Uiso   1.00
H731   H     0.35299   0.51245   0.67367   0.00000  Uiso   1.00
H732   H     0.64701   0.48755   0.82633   0.00000  Uiso   1.00
H733   H     0.58903   0.52744   0.88597   0.00000  Uiso   1.00
H734   H     0.58587   0.53203   0.60796   0.00000  Uiso   1.00
H735   H     0.41413   0.46797   0.89204   0.00000  Uiso   1.00
H736   H     0.63703   0.54715   0.53631   0.00000  Uiso   1.00
H737   H     0.36297   0.45286   0.96369   0.00000  Uiso   1.00
H738   H     0.63862   0.54456   0.95432   0.00000  Uiso   1.00
H739   H     0.36138   0.45544   0.54568   0.00000  Uiso   1.00
H740   H     0.60300   0.64925   0.79137   0.00000  Uiso   1.00
N741   N     0.65011   0.48598   0.73783   0.00000  Uiso   1.00
N742   N     0.34989   0.51402   0.76217   0.00000  Uiso   1.00
O743   O     0.46308   0.57952   0.75298   0.00000  Uiso   1.00
O744   O     0.44827   0.63262   0.67934   0.00000  Uiso   1.00
O745   O     0.66482   0.43655   0.67440   0.00000  Uiso   1.00
O746   O     0.33519   0.56343   0.82561   0.00000  Uiso   1.00
O747   O     0.53692   0.42048   0.74701   0.00000  Uiso   1.00
O748   O     0.55946   0.57054   0.74518   0.00000  Uiso   1.00
O749   O     0.44054   0.42946   0.75481   0.00000  Uiso   1.00
O750   O     0.45181   0.50450   0.81997   0.00000  Uiso   1.00
O751   O     0.54819   0.49550   0.68002   0.00000  Uiso   1.00
O752   O     0.54819   0.49552   0.81217   0.00000  Uiso   1.00
O753   O     0.45181   0.50448   0.68782   0.00000  Uiso   1.00
O754   O     0.55174   0.36738   0.82066   0.00000  Uiso   1.00
Zn755  Zn    0.43565   0.50600   0.75521   0.00000  Uiso   1.00
Zn756  Zn    0.56435   0.49400   0.74479   0.00000  Uiso   1.00
C757   C     0.84803   0.59796   0.74940   0.00000  Uiso   1.00
C758   C     0.88451   0.51400   0.90539   0.00000  Uiso   1.00
C759   C     0.83149   0.50243   0.61571   0.00000  Uiso   1.00
C760   C     0.83517   0.49757   0.88429   0.00000  Uiso   1.00
C761   C     0.88124   0.51890   0.59109   0.00000  Uiso   1.00
C762   C     0.78542   0.48110   0.90891   0.00000  Uiso   1.00
C763   C     0.88237   0.51811   0.54483   0.00000  Uiso   1.00
C764   C     0.78430   0.48190   0.95517   0.00000  Uiso   1.00
C765   C     0.83284   0.50082   0.52328   0.00000  Uiso   1.00
C766   C     0.83382   0.49918   0.97672   0.00000  Uiso   1.00
C767   C     0.78243   0.48497   0.54830   0.00000  Uiso   1.00
C768   C     0.81864   0.40204   0.75060   0.00000  Uiso   1.00
C769   C     0.88424   0.51503   0.95170   0.00000  Uiso   1.00
C770   C     0.93222   0.53382   0.51987   0.00000  Uiso   1.00
C771   C     0.73444   0.46618   0.98013   0.00000  Uiso   1.00
C772   C     0.89610   0.33500   0.79125   0.00000  Uiso   1.00
C773   C     0.77057   0.66500   0.70875   0.00000  Uiso   1.00
C774   C     0.67003   0.47918   0.69281   0.00000  Uiso   1.00
C775   C     0.99664   0.52082   0.80719   0.00000  Uiso   1.00
C776   C     0.93315   0.53229   0.97334   0.00000  Uiso   1.00
C777   C     0.73351   0.46771   0.52666   0.00000  Uiso   1.00
C778   C     0.85378   0.65178   0.75745   0.00000  Uiso   1.00
C779   C     0.81289   0.34822   0.74255   0.00000  Uiso   1.00
C780   C     0.83416   0.49938   0.83647   0.00000  Uiso   1.00
C781   C     0.83250   0.50062   0.66353   0.00000  Uiso   1.00
C782   C     0.78216   0.48600   0.59461   0.00000  Uiso   1.00
H783   H     0.74430   0.47256   0.61403   0.00000  Uiso   1.00
H784   H     0.73033   0.35075   0.70863   0.00000  Uiso   1.00
H785   H     0.68632   0.51245   0.67367   0.00000  Uiso   1.00
H786   H     0.98034   0.48755   0.82633   0.00000  Uiso   1.00
H787   H     0.92237   0.52744   0.88597   0.00000  Uiso   1.00
H788   H     0.91920   0.53203   0.60796   0.00000  Uiso   1.00
H789   H     0.74746   0.46797   0.89204   0.00000  Uiso   1.00
H790   H     0.97036   0.54715   0.53631   0.00000  Uiso   1.00
H791   H     0.69630   0.45286   0.96369   0.00000  Uiso   1.00
H792   H     0.97195   0.54456   0.95432   0.00000  Uiso   1.00
H793   H     0.69471   0.45544   0.54568   0.00000  Uiso   1.00
H794   H     0.93633   0.64925   0.79137   0.00000  Uiso   1.00
N795   N     0.98344   0.48598   0.73783   0.00000  Uiso   1.00
N796   N     0.68322   0.51402   0.76217   0.00000  Uiso   1.00
O797   O     0.79642   0.57952   0.75298   0.00000  Uiso   1.00
O798   O     0.78160   0.63262   0.67934   0.00000  Uiso   1.00
O799   O     0.99816   0.43655   0.67440   0.00000  Uiso   1.00
O800   O     0.66852   0.56343   0.82561   0.00000  Uiso   1.00
O801   O     0.87025   0.42048   0.74701   0.00000  Uiso   1.00
O802   O     0.89280   0.57054   0.74518   0.00000  Uiso   1.00
O803   O     0.77387   0.42946   0.75481   0.00000  Uiso   1.00
O804   O     0.78514   0.50450   0.81997   0.00000  Uiso   1.00
O805   O     0.88153   0.49550   0.68002   0.00000  Uiso   1.00
O806   O     0.88152   0.49552   0.81217   0.00000  Uiso   1.00
O807   O     0.78515   0.50448   0.68782   0.00000  Uiso   1.00
O808   O     0.88507   0.36738   0.82066   0.00000  Uiso   1.00
Zn809  Zn    0.76898   0.50600   0.75521   0.00000  Uiso   1.00
Zn810  Zn    0.89769   0.49400   0.74479   0.00000  Uiso   1.00
C811   C     0.18136   0.93129   0.74940   0.00000  Uiso   1.00
C812   C     0.21784   0.84733   0.90539   0.00000  Uiso   1.00
C813   C     0.16483   0.83576   0.61571   0.00000  Uiso   1.00
C814   C     0.16851   0.83090   0.88429   0.00000  Uiso   1.00
C815   C     0.21458   0.85223   0.59109   0.00000  Uiso   1.00
C816   C     0.11875   0.81443   0.90891   0.00000  Uiso   1.00
C817   C     0.21570   0.85144   0.54483   0.00000  Uiso   1.00
C818   C     0.11763   0.81523   0.95517   0.00000  Uiso   1.00
C819   C     0.16618   0.83416   0.52328   0.00000  Uiso   1.00
C820   C     0.16715   0.83251   0.97672   0.00000  Uiso   1.00
C821   C     0.11576   0.81831   0.54830   0.00000  Uiso   1.00
C822   C     0.15197   0.73538   0.75060   0.00000  Uiso   1.00
C823   C     0.21757   0.84836   0.95170   0.00000  Uiso   1.00
C824   C     0.26555   0.86716   0.51987   0.00000  Uiso   1.00
C825   C     0.06778   0.79951   0.98013   0.00000  Uiso   1.00
C826   C     0.22943   0.66833   0.79125   0.00000  Uiso   1.00
C827   C     0.10390   0.99834   0.70875   0.00000  Uiso   1.00
C828   C     0.00336   0.81251   0.69281   0.00000  Uiso   1.00
C829   C     0.32997   0.85415   0.80719   0.00000  Uiso   1.00
C830   C     0.26649   0.86562   0.97334   0.00000  Uiso   1.00
C831   C     0.06684   0.80104   0.52666   0.00000  Uiso   1.00
C832   C     0.18711   0.98512   0.75745   0.00000  Uiso   1.00
C833   C     0.14622   0.68155   0.74255   0.00000  Uiso   1.00
C834   C     0.16750   0.83271   0.83647   0.00000  Uiso   1.00
C835   C     0.16584   0.83395   0.66353   0.00000  Uiso   1.00
C836   C     0.11549   0.81934   0.59461   0.00000  Uiso   1.00
H837   H     0.07763   0.80590   0.61403   0.00000  Uiso   1.00
H838   H     0.06366   0.68408   0.70863   0.00000  Uiso   1.00
H839   H     0.01966   0.84578   0.67367   0.00000  Uiso   1.00
H840   H     0.31367   0.82088   0.82633   0.00000  Uiso   1.00
H841   H     0.25570   0.86077   0.88597   0.00000  Uiso   1.00
H842   H     0.25254   0.86536   0.60796   0.00000  Uiso   1.00
H843   H     0.08080   0.80130   0.89204   0.00000  Uiso   1.00
H844   H     0.30369   0.88048   0.53631   0.00000  Uiso   1.00
H845   H     0.02964   0.78619   0.96369   0.00000  Uiso   1.00
H846   H     0.30529   0.87789   0.95432   0.00000  Uiso   1.00
H847   H     0.02804   0.78877   0.54568   0.00000  Uiso   1.00
H848   H     0.26967   0.98258   0.79137   0.00000  Uiso   1.00
N849   N     0.31678   0.81932   0.73783   0.00000  Uiso   1.00
N850   N     0.01656   0.84735   0.76217   0.00000  Uiso   1.00
O851   O     0.12975   0.91286   0.75298   0.00000  Uiso   1.00
O852   O     0.11494   0.96596   0.67934   0.00000  Uiso   1.00
O853   O     0.33149   0.76989   0.67440   0.00000  Uiso   1.00
O854   O     0.00185   0.89677   0.82561   0.00000  Uiso   1.00
O855   O     0.20358   0.75381   0.74701   0.00000  Uiso   1.00
O856   O     0.22613   0.90387   0.74518   0.00000  Uiso   1.00
O857   O     0.10720   0.76279   0.75481   0.00000  Uiso   1.00
O858   O     0.11847   0.83784   0.81997   0.00000  Uiso   1.00
O859   O     0.21486   0.82883   0.68002   0.00000  Uiso   1.00
O860   O     0.21485   0.82885   0.81217   0.00000  Uiso   1.00
O861   O     0.11848   0.83781   0.68782   0.00000  Uiso   1.00
O862   O     0.21840   0.70072   0.82066   0.00000  Uiso   1.00
Zn863  Zn    0.10231   0.83933   0.75521   0.00000  Uiso   1.00
Zn864  Zn    0.23102   0.82734   0.74479   0.00000  Uiso   1.00
C865   C     0.51470   0.93129   0.74940   0.00000  Uiso   1.00
C866   C     0.55117   0.84733   0.90539   0.00000  Uiso   1.00
C867   C     0.49816   0.83576   0.61571   0.00000  Uiso   1.00
C868   C     0.50184   0.83090   0.88429   0.00000  Uiso   1.00
C869   C     0.54791   0.85223   0.59109   0.00000  Uiso   1.00
C870   C     0.45209   0.81443   0.90891   0.00000  Uiso   1.00
C871   C     0.54903   0.85144   0.54483   0.00000  Uiso   1.00
C872   C     0.45096   0.81523   0.95517   0.00000  Uiso   1.00
C873   C     0.49951   0.83416   0.52328   0.00000  Uiso   1.00
C874   C     0.50049   0.83251   0.97672   0.00000  Uiso   1.00
C875   C     0.44909   0.81831   0.54830   0.00000  Uiso   1.00
C876   C     0.48530   0.73538   0.75060   0.00000  Uiso   1.00
C877   C     0.55090   0.84836   0.95170   0.00000  Uiso   1.00
C878   C     0.59889   0.86716   0.51987   0.00000  Uiso   1.00
C879   C     0.40111   0.79951   0.98013   0.00000  Uiso   1.00
C880   C     0.56276   0.66833   0.79125   0.00000  Uiso   1.00
C881   C     0.43724   0.99834   0.70875   0.00000  Uiso   1.00
C882   C     0.33669   0.81251   0.69281   0.00000  Uiso   1.00
C883   C     0.66331   0.85415   0.80719   0.00000  Uiso   1.00
C884   C     0.59982   0.86562   0.97334   0.00000  Uiso   1.00
C885   C     0.40018   0.80104   0.52666   0.00000  Uiso   1.00
C886   C     0.52044   0.98512   0.75745   0.00000  Uiso   1.00
C887   C     0.47956   0.68155   0.74255   0.00000  Uiso   1.00
C888   C     0.50083   0.83271   0.83647   0.00000  Uiso   1.00
C889   C     0.49917   0.83395   0.66353   0.00000  Uiso   1.00
C890   C     0.44883   0.81934   0.59461   0.00000  Uiso   1.00
H891   H     0.41097   0.80590   0.61403   0.00000  Uiso   1.00
H892   H     0.39699   0.68408   0.70863   0.00000  Uiso   1.00
H893   H     0.35299   0.84578   0.67367   0.00000  Uiso   1.00
H894   H     0.64701   0.82088   0.82633   0.00000  Uiso   1.00
H895   H     0.58903   0.86077   0.88597   0.00000  Uiso   1.00
H896   H     0.58587   0.86536   0.60796   0.00000  Uiso   1.00
H897   H     0.41413   0.80130   0.89204   0.00000  Uiso   1.00
H898   H     0.63703   0.88048   0.53631   0.00000  Uiso   1.00
H899   H     0.36297   0.78619   0.96369   0.00000  Uiso   1.00
H900   H     0.63862   0.87789   0.95432   0.00000  Uiso   1.00
H901   H     0.36138   0.78877   0.54568   0.00000  Uiso   1.00
H902   H     0.60300   0.98258   0.79137   0.00000  Uiso   1.00
N903   N     0.65011   0.81932   0.73783   0.00000  Uiso   1.00
N904   N     0.34989   0.84735   0.76217   0.00000  Uiso   1.00
O905   O     0.46308   0.91286   0.75298   0.00000  Uiso   1.00
O906   O     0.44827   0.96596   0.67934   0.00000  Uiso   1.00
O907   O     0.66482   0.76989   0.67440   0.00000  Uiso   1.00
O908   O     0.33519   0.89677   0.82561   0.00000  Uiso   1.00
O909   O     0.53692   0.75381   0.74701   0.00000  Uiso   1.00
O910   O     0.55946   0.90387   0.74518   0.00000  Uiso   1.00
O911   O     0.44054   0.76279   0.75481   0.00000  Uiso   1.00
O912   O     0.45181   0.83784   0.81997   0.00000  Uiso   1.00
O913   O     0.54819   0.82883   0.68002   0.00000  Uiso   1.00
O914   O     0.54819   0.82885   0.81217   0.00000  Uiso   1.00
O915   O     0.45181   0.83781   0.68782   0.00000  Uiso   1.00
O916   O     0.55174   0.70072   0.82066   0.00000  Uiso   1.00
Zn917  Zn    0.43565   0.83933   0.75521   0.00000  Uiso   1.00
Zn918  Zn    0.56435   0.82734   0.74479   0.00000  Uiso   1.00
C919   C     0.84803   0.93129   0.74940   0.00000  Uiso   1.00
C920   C     0.88451   0.84733   0.90539   0.00000  Uiso   1.00
C921   C     0.83149   0.83576   0.61571   0.00000  Uiso   1.00
C922   C     0.83517   0.83090   0.88429   0.00000  Uiso   1.00
C923   C     0.88124   0.85223   0.59109   0.00000  Uiso   1.00
C924   C     0.78542   0.81443   0.90891   0.00000  Uiso   1.00
C925   C     0.88237   0.85144   0.54483   0.00000  Uiso   1.00
C926   C     0.78430   0.81523   0.95517   0.00000  Uiso   1.00
C927   C     0.83284   0.83416   0.52328   0.00000  Uiso   1.00
C928   C     0.83382   0.83251   0.97672   0.00000  Uiso   1.00
C929   C     0.78243   0.81831   0.54830   0.00000  Uiso   1.00
C930   C     0.81864   0.73538   0.75060   0.00000  Uiso   1.00
C931   C     0.88424   0.84836   0.95170   0.00000  Uiso   1.00
C932   C     0.93222   0.86716   0.51987   0.00000  Uiso   1.00
C933   C     0.73444   0.79951   0.98013   0.00000  Uiso   1.00
C934   C     0.89610   0.66833   0.79125   0.00000  Uiso   1.00
C935   C     0.77057   0.99834   0.70875   0.00000  Uiso   1.00
C936   C     0.67003   0.81251   0.69281   0.00000  Uiso   1.00
C937   C     0.99664   0.85415   0.80719   0.00000  Uiso   1.00
C938   C     0.93315   0.86562   0.97334   0.00000  Uiso   1.00
C939   C     0.73351   0.80104   0.52666   0.00000  Uiso   1.00
C940   C     0.85378   0.98512   0.75745   0.00000  Uiso   1.00
C941   C     0.81289   0.68155   0.74255   0.00000  Uiso   1.00
C942   C     0.83416   0.83271   0.83647   0.00000  Uiso   1.00
C943   C     0.83250   0.83395   0.66353   0.00000  Uiso   1.00
C944   C     0.78216   0.81934   0.59461   0.00000  Uiso   1.00
H945   H     0.74430   0.80590   0.61403   0.00000  Uiso   1.00
H946   H     0.73033   0.68408   0.70863   0.00000  Uiso   1.00
H947   H     0.68632   0.84578   0.67367   0.00000  Uiso   1.00
H948   H     0.98034   0.82088   0.82633   0.00000  Uiso   1.00
H949   H     0.92237   0.86077   0.88597   0.00000  Uiso   1.00
H950   H     0.91920   0.86536   0.60796   0.00000  Uiso   1.00
H951   H     0.74746   0.80130   0.89204   0.00000  Uiso   1.00
H952   H     0.97036   0.88048   0.53631   0.00000  Uiso   1.00
H953   H     0.69630   0.78619   0.96369   0.00000  Uiso   1.00
H954   H     0.97195   0.87789   0.95432   0.00000  Uiso   1.00
H955   H     0.69471   0.78877   0.54568   0.00000  Uiso   1.00
H956   H     0.93633   0.98258   0.79137   0.00000  Uiso   1.00
N957   N     0.98344   0.81932   0.73783   0.00000  Uiso   1.00
N958   N     0.68322   0.84735   0.76217   0.00000  Uiso   1.00
O959   O     0.79642   0.91286   0.75298   0.00000  Uiso   1.00
O960   O     0.78160   0.96596   0.67934   0.00000  Uiso   1.00
O961   O     0.99816   0.76989   0.67440   0.00000  Uiso   1.00
O962   O     0.66852   0.89677   0.82561   0.00000  Uiso   1.00
O963   O     0.87025   0.75381   0.74701   0.00000  Uiso   1.00
O964   O     0.89280   0.90387   0.74518   0.00000  Uiso   1.00
O965   O     0.77387   0.76279   0.75481   0.00000  Uiso   1.00
O966   O     0.78514   0.83784   0.81997   0.00000  Uiso   1.00
O967   O     0.88153   0.82883   0.68002   0.00000  Uiso   1.00
O968   O     0.88152   0.82885   0.81217   0.00000  Uiso   1.00
O969   O     0.78515   0.83781   0.68782   0.00000  Uiso   1.00
O970   O     0.88507   0.70072   0.82066   0.00000  Uiso   1.00
Zn971  Zn    0.76898   0.83933   0.75521   0.00000  Uiso   1.00
Zn972  Zn    0.89769   0.82734   0.74479   0.00000  Uiso   1.00
loop_
_geom_bond_atom_site_label_1
_geom_bond_atom_site_label_2
_geom_bond_distance
_geom_bond_site_symmetry_2
_ccdc_geom_bond_type
C1     C22     1.403   .     S
C1     O41     1.280   .     A
C1     O46     1.292   .     A
C2     C4      1.394   .     A
C2     C13     1.383   .     A
C2     H31     1.081   .     S
C3     C5      1.398   .     A
C3     C26     1.394   .     A
C3     C25     1.433   .     S
C4     C24     1.433   .     S
C4     C6      1.398   .     A
C5     H32     1.085   .     S
C5     C7      1.381   .     A
C6     H33     1.085   .     S
C6     C8      1.381   .     A
C7     C9      1.410   .     A
C7     C14     1.400   .     A
C8     C15     1.400   .     A
C8     C10     1.410   .     A
C9     C11     1.412   .     A
C9     C496    1.390   1_554 S
C10    C13     1.412   .     A
C10    C495    1.390   .     S
C11    C26     1.383   .     A
C11    C21     1.399   .     A
C12    C23     1.403   .     S
C12    O47     1.292   .     A
C12    O45     1.280   .     A
C13    C20     1.399   .     A
C14    H34     1.084   .     S
C14    C506    1.389   1_554 S
C15    H35     1.084   .     S
C15    C507    1.389   .     S
C16    O52     1.222   .     D
C16    C346    1.498   1_545 S
C16    H362    1.086   1_545 S
C17    O42     1.222   .     D
C17    C185    1.498   .     S
C17    H190    1.086   .     S
C18    H29     1.085   .     S
C18    N147    1.408   1_455 S
C18    O151    1.220   1_455 S
C19    H30     1.085   .     S
C19    N94     1.408   .     S
C19    O98     1.220   .     S
C20    H36     1.084   .     S
C20    C500    1.389   .     S
C21    H37     1.084   .     S
C21    C501    1.389   1_554 S
C22    C178    1.498   .     S
C22    C185    1.358   .     S
C23    C346    1.358   1_545 S
C23    C341    1.498   1_545 S
C24    O50     1.299   .     A
C24    O48     1.292   .     A
C25    O51     1.299   .     A
C25    O49     1.292   .     A
C26    H27     1.081   .     S
H28    C341    1.086   1_545 S
H38    C178    1.086   .     S
N39    Zn54    2.032   .     S
N39    C72     1.408   .     S
N39    N94     1.281   .     S
N40    Zn53    2.032   .     S
N40    N147    1.281   1_455 S
N40    C127    1.408   1_455 S
O41    Zn53    1.973   .     S
O43    C72     1.220   .     S
O44    C127    1.220   1_455 S
O45    Zn54    1.973   .     S
O46    Zn54    1.980   .     S
O47    Zn53    1.980   .     S
O48    Zn53    1.996   .     S
O49    Zn54    1.996   .     S
O50    Zn54    2.027   .     S
O51    Zn53    2.027   .     S
C55    C76     1.403   .     S
C55    O95     1.280   .     A
C55    O100    1.292   .     A
C56    C58     1.394   .     A
C56    C67     1.383   .     A
C56    H85     1.081   .     S
C57    C59     1.398   .     A
C57    C80     1.394   .     A
C57    C79     1.433   .     S
C58    C78     1.433   .     S
C58    C60     1.398   .     A
C59    H86     1.085   .     S
C59    C61     1.381   .     A
C60    H87     1.085   .     S
C60    C62     1.381   .     A
C61    C63     1.410   .     A
C61    C68     1.400   .     A
C62    C69     1.400   .     A
C62    C64     1.410   .     A
C63    C65     1.412   .     A
C63    C550    1.390   1_554 S
C64    C67     1.412   .     A
C64    C549    1.390   .     S
C65    C80     1.383   .     A
C65    C75     1.399   .     A
C66    C77     1.403   .     S
C66    O101    1.292   .     A
C66    O99     1.280   .     A
C67    C74     1.399   .     A
C68    H88     1.084   .     S
C68    C560    1.389   1_554 S
C69    H89     1.084   .     S
C69    C561    1.389   .     S
C70    O106    1.222   .     D
C70    C400    1.498   1_545 S
C70    H416    1.086   1_545 S
C71    O96     1.222   .     D
C71    C239    1.498   .     S
C71    H244    1.086   .     S
C72    H83     1.085   .     S
C73    H84     1.085   .     S
C73    N148    1.408   .     S
C73    O152    1.220   .     S
C74    H90     1.084   .     S
C74    C554    1.389   .     S
C75    H91     1.084   .     S
C75    C555    1.389   1_554 S
C76    C232    1.498   .     S
C76    C239    1.358   .     S
C77    C400    1.358   1_545 S
C77    C395    1.498   1_545 S
C78    O104    1.299   .     A
C78    O102    1.292   .     A
C79    O105    1.299   .     A
C79    O103    1.292   .     A
C80    H81     1.081   .     S
H82    C395    1.086   1_545 S
H92    C232    1.086   .     S
N93    Zn108   2.032   .     S
N93    C126    1.408   .     S
N93    N148    1.281   .     S
N94    Zn107   2.032   .     S
O95    Zn107   1.973   .     S
O97    C126    1.220   .     S
O99    Zn108   1.973   .     S
O100   Zn108   1.980   .     S
O101   Zn107   1.980   .     S
O102   Zn107   1.996   .     S
O103   Zn108   1.996   .     S
O104   Zn108   2.027   .     S
O105   Zn107   2.027   .     S
C109   C130    1.403   .     S
C109   O149    1.280   .     A
C109   O154    1.292   .     A
C110   C112    1.394   .     A
C110   C121    1.383   .     A
C110   H139    1.081   .     S
C111   C113    1.398   .     A
C111   C134    1.394   .     A
C111   C133    1.433   .     S
C112   C132    1.433   .     S
C112   C114    1.398   .     A
C113   H140    1.085   .     S
C113   C115    1.381   .     A
C114   H141    1.085   .     S
C114   C116    1.381   .     A
C115   C117    1.410   .     A
C115   C122    1.400   .     A
C116   C123    1.400   .     A
C116   C118    1.410   .     A
C117   C119    1.412   .     A
C117   C604    1.390   1_554 S
C118   C121    1.412   .     A
C118   C603    1.390   .     S
C119   C134    1.383   .     A
C119   C129    1.399   .     A
C120   C131    1.403   .     S
C120   O155    1.292   .     A
C120   O153    1.280   .     A
C121   C128    1.399   .     A
C122   H142    1.084   .     S
C122   C614    1.389   1_554 S
C123   H143    1.084   .     S
C123   C615    1.389   .     S
C124   O160    1.222   .     D
C124   C454    1.498   1_545 S
C124   H470    1.086   1_545 S
C125   O150    1.222   .     D
C125   C293    1.498   .     S
C125   H298    1.086   .     S
C126   H137    1.085   .     S
C127   H138    1.085   .     S
C127   N40     1.408   1_655 S
C127   O44     1.220   1_655 S
C128   H144    1.084   .     S
C128   C608    1.389   .     S
C129   H145    1.084   .     S
C129   C609    1.389   1_554 S
C130   C286    1.498   .     S
C130   C293    1.358   .     S
C131   C454    1.358   1_545 S
C131   C449    1.498   1_545 S
C132   O158    1.299   .     A
C132   O156    1.292   .     A
C133   O159    1.299   .     A
C133   O157    1.292   .     A
C134   H135    1.081   .     S
H136   C449    1.086   1_545 S
H146   C286    1.086   .     S
N147   Zn162   2.032   .     S
N147   C18     1.408   1_655 S
N147   N40     1.281   1_655 S
N148   Zn161   2.032   .     S
O149   Zn161   1.973   .     S
O151   C18     1.220   1_655 S
O153   Zn162   1.973   .     S
O154   Zn162   1.980   .     S
O155   Zn161   1.980   .     S
O156   Zn161   1.996   .     S
O157   Zn162   1.996   .     S
O158   Zn162   2.027   .     S
O159   Zn161   2.027   .     S
C163   C184    1.403   .     S
C163   O203    1.280   .     A
C163   O208    1.292   .     A
C164   C166    1.394   .     A
C164   C175    1.383   .     A
C164   H193    1.081   .     S
C165   C167    1.398   .     A
C165   C188    1.394   .     A
C165   C187    1.433   .     S
C166   C186    1.433   .     S
C166   C168    1.398   .     A
C167   H194    1.085   .     S
C167   C169    1.381   .     A
C168   H195    1.085   .     S
C168   C170    1.381   .     A
C169   C171    1.410   .     A
C169   C176    1.400   .     A
C170   C177    1.400   .     A
C170   C172    1.410   .     A
C171   C173    1.412   .     A
C171   C658    1.390   1_554 S
C172   C175    1.412   .     A
C172   C657    1.390   .     S
C173   C188    1.383   .     A
C173   C183    1.399   .     A
C174   C185    1.403   .     S
C174   O209    1.292   .     A
C174   O207    1.280   .     A
C175   C182    1.399   .     A
C176   H196    1.084   .     S
C176   C668    1.389   1_554 S
C177   H197    1.084   .     S
C177   C669    1.389   .     S
C178   O214    1.222   .     D
C179   O204    1.222   .     D
C179   C347    1.498   .     S
C179   H352    1.086   .     S
C180   H191    1.085   .     S
C180   N309    1.408   1_455 S
C180   O313    1.220   1_455 S
C181   H192    1.085   .     S
C181   N256    1.408   .     S
C181   O260    1.220   .     S
C182   H198    1.084   .     S
C182   C662    1.389   .     S
C183   H199    1.084   .     S
C183   C663    1.389   1_554 S
C184   C340    1.498   .     S
C184   C347    1.358   .     S
C186   O212    1.299   .     A
C186   O210    1.292   .     A
C187   O213    1.299   .     A
C187   O211    1.292   .     A
C188   H189    1.081   .     S
H200   C340    1.086   .     S
N201   Zn216   2.032   .     S
N201   C234    1.408   .     S
N201   N256    1.281   .     S
N202   Zn215   2.032   .     S
N202   N309    1.281   1_455 S
N202   C289    1.408   1_455 S
O203   Zn215   1.973   .     S
O205   C234    1.220   .     S
O206   C289    1.220   1_455 S
O207   Zn216   1.973   .     S
O208   Zn216   1.980   .     S
O209   Zn215   1.980   .     S
O210   Zn215   1.996   .     S
O211   Zn216   1.996   .     S
O212   Zn216   2.027   .     S
O213   Zn215   2.027   .     S
C217   C238    1.403   .     S
C217   O257    1.280   .     A
C217   O262    1.292   .     A
C218   C220    1.394   .     A
C218   C229    1.383   .     A
C218   H247    1.081   .     S
C219   C221    1.398   .     A
C219   C242    1.394   .     A
C219   C241    1.433   .     S
C220   C240    1.433   .     S
C220   C222    1.398   .     A
C221   H248    1.085   .     S
C221   C223    1.381   .     A
C222   H249    1.085   .     S
C222   C224    1.381   .     A
C223   C225    1.410   .     A
C223   C230    1.400   .     A
C224   C231    1.400   .     A
C224   C226    1.410   .     A
C225   C227    1.412   .     A
C225   C712    1.390   1_554 S
C226   C229    1.412   .     A
C226   C711    1.390   .     S
C227   C242    1.383   .     A
C227   C237    1.399   .     A
C228   C239    1.403   .     S
C228   O263    1.292   .     A
C228   O261    1.280   .     A
C229   C236    1.399   .     A
C230   H250    1.084   .     S
C230   C722    1.389   1_554 S
C231   H251    1.084   .     S
C231   C723    1.389   .     S
C232   O268    1.222   .     D
C233   O258    1.222   .     D
C233   C401    1.498   .     S
C233   H406    1.086   .     S
C234   H245    1.085   .     S
C235   H246    1.085   .     S
C235   N310    1.408   .     S
C235   O314    1.220   .     S
C236   H252    1.084   .     S
C236   C716    1.389   .     S
C237   H253    1.084   .     S
C237   C717    1.389   1_554 S
C238   C394    1.498   .     S
C238   C401    1.358   .     S
C240   O266    1.299   .     A
C240   O264    1.292   .     A
C241   O267    1.299   .     A
C241   O265    1.292   .     A
C242   H243    1.081   .     S
H254   C394    1.086   .     S
N255   Zn270   2.032   .     S
N255   C288    1.408   .     S
N255   N310    1.281   .     S
N256   Zn269   2.032   .     S
O257   Zn269   1.973   .     S
O259   C288    1.220   .     S
O261   Zn270   1.973   .     S
O262   Zn270   1.980   .     S
O263   Zn269   1.980   .     S
O264   Zn269   1.996   .     S
O265   Zn270   1.996   .     S
O266   Zn270   2.027   .     S
O267   Zn269   2.027   .     S
C271   C292    1.403   .     S
C271   O311    1.280   .     A
C271   O316    1.292   .     A
C272   C274    1.394   .     A
C272   C283    1.383   .     A
C272   H301    1.081   .     S
C273   C275    1.398   .     A
C273   C296    1.394   .     A
C273   C295    1.433   .     S
C274   C294    1.433   .     S
C274   C276    1.398   .     A
C275   H302    1.085   .     S
C275   C277    1.381   .     A
C276   H303    1.085   .     S
C276   C278    1.381   .     A
C277   C279    1.410   .     A
C277   C284    1.400   .     A
C278   C285    1.400   .     A
C278   C280    1.410   .     A
C279   C281    1.412   .     A
C279   C766    1.390   1_554 S
C280   C283    1.412   .     A
C280   C765    1.390   .     S
C281   C296    1.383   .     A
C281   C291    1.399   .     A
C282   C293    1.403   .     S
C282   O317    1.292   .     A
C282   O315    1.280   .     A
C283   C290    1.399   .     A
C284   H304    1.084   .     S
C284   C776    1.389   1_554 S
C285   H305    1.084   .     S
C285   C777    1.389   .     S
C286   O322    1.222   .     D
C287   O312    1.222   .     D
C287   C455    1.498   .     S
C287   H460    1.086   .     S
C288   H299    1.085   .     S
C289   H300    1.085   .     S
C289   N202    1.408   1_655 S
C289   O206    1.220   1_655 S
C290   H306    1.084   .     S
C290   C770    1.389   .     S
C291   H307    1.084   .     S
C291   C771    1.389   1_554 S
C292   C448    1.498   .     S
C292   C455    1.358   .     S
C294   O320    1.299   .     A
C294   O318    1.292   .     A
C295   O321    1.299   .     A
C295   O319    1.292   .     A
C296   H297    1.081   .     S
H308   C448    1.086   .     S
N309   Zn324   2.032   .     S
N309   C180    1.408   1_655 S
N309   N202    1.281   1_655 S
N310   Zn323   2.032   .     S
O311   Zn323   1.973   .     S
O313   C180    1.220   1_655 S
O315   Zn324   1.973   .     S
O316   Zn324   1.980   .     S
O317   Zn323   1.980   .     S
O318   Zn323   1.996   .     S
O319   Zn324   1.996   .     S
O320   Zn324   2.027   .     S
O321   Zn323   2.027   .     S
C325   C346    1.403   .     S
C325   O365    1.280   .     A
C325   O370    1.292   .     A
C326   C328    1.394   .     A
C326   C337    1.383   .     A
C326   H355    1.081   .     S
C327   C329    1.398   .     A
C327   C350    1.394   .     A
C327   C349    1.433   .     S
C328   C348    1.433   .     S
C328   C330    1.398   .     A
C329   H356    1.085   .     S
C329   C331    1.381   .     A
C330   H357    1.085   .     S
C330   C332    1.381   .     A
C331   C333    1.410   .     A
C331   C338    1.400   .     A
C332   C339    1.400   .     A
C332   C334    1.410   .     A
C333   C335    1.412   .     A
C333   C820    1.390   1_554 S
C334   C337    1.412   .     A
C334   C819    1.390   .     S
C335   C350    1.383   .     A
C335   C345    1.399   .     A
C336   C347    1.403   .     S
C336   O371    1.292   .     A
C336   O369    1.280   .     A
C337   C344    1.399   .     A
C338   H358    1.084   .     S
C338   C830    1.389   1_554 S
C339   H359    1.084   .     S
C339   C831    1.389   .     S
C340   O376    1.222   .     D
C341   O366    1.222   .     D
C341   C23     1.498   1_565 S
C341   H28     1.086   1_565 S
C342   H353    1.085   .     S
C342   N471    1.408   1_455 S
C342   O475    1.220   1_455 S
C343   H354    1.085   .     S
C343   N418    1.408   .     S
C343   O422    1.220   .     S
C344   H360    1.084   .     S
C344   C824    1.389   .     S
C345   H361    1.084   .     S
C345   C825    1.389   1_554 S
C346   C16     1.498   1_565 S
C346   C23     1.358   1_565 S
C348   O374    1.299   .     A
C348   O372    1.292   .     A
C349   O375    1.299   .     A
C349   O373    1.292   .     A
C350   H351    1.081   .     S
H362   C16     1.086   1_565 S
N363   Zn378   2.032   .     S
N363   C396    1.408   .     S
N363   N418    1.281   .     S
N364   Zn377   2.032   .     S
N364   N471    1.281   1_455 S
N364   C451    1.408   1_455 S
O365   Zn377   1.973   .     S
O367   C396    1.220   .     S
O368   C451    1.220   1_455 S
O369   Zn378   1.973   .     S
O370   Zn378   1.980   .     S
O371   Zn377   1.980   .     S
O372   Zn377   1.996   .     S
O373   Zn378   1.996   .     S
O374   Zn378   2.027   .     S
O375   Zn377   2.027   .     S
C379   C400    1.403   .     S
C379   O419    1.280   .     A
C379   O424    1.292   .     A
C380   C382    1.394   .     A
C380   C391    1.383   .     A
C380   H409    1.081   .     S
C381   C383    1.398   .     A
C381   C404    1.394   .     A
C381   C403    1.433   .     S
C382   C402    1.433   .     S
C382   C384    1.398   .     A
C383   H410    1.085   .     S
C383   C385    1.381   .     A
C384   H411    1.085   .     S
C384   C386    1.381   .     A
C385   C387    1.410   .     A
C385   C392    1.400   .     A
C386   C393    1.400   .     A
C386   C388    1.410   .     A
C387   C389    1.412   .     A
C387   C874    1.390   1_554 S
C388   C391    1.412   .     A
C388   C873    1.390   .     S
C389   C404    1.383   .     A
C389   C399    1.399   .     A
C390   C401    1.403   .     S
C390   O425    1.292   .     A
C390   O423    1.280   .     A
C391   C398    1.399   .     A
C392   H412    1.084   .     S
C392   C884    1.389   1_554 S
C393   H413    1.084   .     S
C393   C885    1.389   .     S
C394   O430    1.222   .     D
C395   O420    1.222   .     D
C395   C77     1.498   1_565 S
C395   H82     1.086   1_565 S
C396   H407    1.085   .     S
C397   H408    1.085   .     S
C397   N472    1.408   .     S
C397   O476    1.220   .     S
C398   H414    1.084   .     S
C398   C878    1.389   .     S
C399   H415    1.084   .     S
C399   C879    1.389   1_554 S
C400   C70     1.498   1_565 S
C400   C77     1.358   1_565 S
C402   O428    1.299   .     A
C402   O426    1.292   .     A
C403   O429    1.299   .     A
C403   O427    1.292   .     A
C404   H405    1.081   .     S
H416   C70     1.086   1_565 S
N417   Zn432   2.032   .     S
N417   C450    1.408   .     S
N417   N472    1.281   .     S
N418   Zn431   2.032   .     S
O419   Zn431   1.973   .     S
O421   C450    1.220   .     S
O423   Zn432   1.973   .     S
O424   Zn432   1.980   .     S
O425   Zn431   1.980   .     S
O426   Zn431   1.996   .     S
O427   Zn432   1.996   .     S
O428   Zn432   2.027   .     S
O429   Zn431   2.027   .     S
C433   C454    1.403   .     S
C433   O473    1.280   .     A
C433   O478    1.292   .     A
C434   C436    1.394   .     A
C434   C445    1.383   .     A
C434   H463    1.081   .     S
C435   C437    1.398   .     A
C435   C458    1.394   .     A
C435   C457    1.433   .     S
C436   C456    1.433   .     S
C436   C438    1.398   .     A
C437   H464    1.085   .     S
C437   C439    1.381   .     A
C438   H465    1.085   .     S
C438   C440    1.381   .     A
C439   C441    1.410   .     A
C439   C446    1.400   .     A
C440   C447    1.400   .     A
C440   C442    1.410   .     A
C441   C443    1.412   .     A
C441   C928    1.390   1_554 S
C442   C445    1.412   .     A
C442   C927    1.390   .     S
C443   C458    1.383   .     A
C443   C453    1.399   .     A
C444   C455    1.403   .     S
C444   O479    1.292   .     A
C444   O477    1.280   .     A
C445   C452    1.399   .     A
C446   H466    1.084   .     S
C446   C938    1.389   1_554 S
C447   H467    1.084   .     S
C447   C939    1.389   .     S
C448   O484    1.222   .     D
C449   O474    1.222   .     D
C449   C131    1.498   1_565 S
C449   H136    1.086   1_565 S
C450   H461    1.085   .     S
C451   H462    1.085   .     S
C451   N364    1.408   1_655 S
C451   O368    1.220   1_655 S
C452   H468    1.084   .     S
C452   C932    1.389   .     S
C453   H469    1.084   .     S
C453   C933    1.389   1_554 S
C454   C124    1.498   1_565 S
C454   C131    1.358   1_565 S
C456   O482    1.299   .     A
C456   O480    1.292   .     A
C457   O483    1.299   .     A
C457   O481    1.292   .     A
C458   H459    1.081   .     S
H470   C124    1.086   1_565 S
N471   Zn486   2.032   .     S
N471   C342    1.408   1_655 S
N471   N364    1.281   1_655 S
N472   Zn485   2.032   .     S
O473   Zn485   1.973   .     S
O475   C342    1.220   1_655 S
O477   Zn486   1.973   .     S
O478   Zn486   1.980   .     S
O479   Zn485   1.980   .     S
O480   Zn485   1.996   .     S
O481   Zn486   1.996   .     S
O482   Zn486   2.027   .     S
O483   Zn485   2.027   .     S
C487   C508    1.403   .     S
C487   O527    1.280   .     A
C487   O532    1.292   .     A
C488   C490    1.394   .     A
C488   C499    1.383   .     A
C488   H517    1.081   .     S
C489   C491    1.398   .     A
C489   C512    1.394   .     A
C489   C511    1.433   .     S
C490   C510    1.433   .     S
C490   C492    1.398   .     A
C491   H518    1.085   .     S
C491   C493    1.381   .     A
C492   H519    1.085   .     S
C492   C494    1.381   .     A
C493   C495    1.410   .     A
C493   C500    1.400   .     A
C494   C501    1.400   .     A
C494   C496    1.410   .     A
C495   C497    1.412   .     A
C496   C499    1.412   .     A
C496   C9      1.390   1_556 S
C497   C512    1.383   .     A
C497   C507    1.399   .     A
C498   C509    1.403   .     S
C498   O533    1.292   .     A
C498   O531    1.280   .     A
C499   C506    1.399   .     A
C500   H520    1.084   .     S
C501   H521    1.084   .     S
C501   C21     1.389   1_556 S
C502   O538    1.222   .     D
C502   C832    1.498   1_545 S
C502   H848    1.086   1_545 S
C503   O528    1.222   .     D
C503   C671    1.498   .     S
C503   H676    1.086   .     S
C504   H515    1.085   .     S
C504   N633    1.408   1_455 S
C504   O637    1.220   1_455 S
C505   H516    1.085   .     S
C505   N580    1.408   .     S
C505   O584    1.220   .     S
C506   H522    1.084   .     S
C506   C14     1.389   1_556 S
C507   H523    1.084   .     S
C508   C664    1.498   .     S
C508   C671    1.358   .     S
C509   C832    1.358   1_545 S
C509   C827    1.498   1_545 S
C510   O536    1.299   .     A
C510   O534    1.292   .     A
C511   O537    1.299   .     A
C511   O535    1.292   .     A
C512   H513    1.081   .     S
H514   C827    1.086   1_545 S
H524   C664    1.086   .     S
N525   Zn540   2.032   .     S
N525   C558    1.408   .     S
N525   N580    1.281   .     S
N526   Zn539   2.032   .     S
N526   N633    1.281   1_455 S
N526   C613    1.408   1_455 S
O527   Zn539   1.973   .     S
O529   C558    1.220   .     S
O530   C613    1.220   1_455 S
O531   Zn540   1.973   .     S
O532   Zn540   1.980   .     S
O533   Zn539   1.980   .     S
O534   Zn539   1.996   .     S
O535   Zn540   1.996   .     S
O536   Zn540   2.027   .     S
O537   Zn539   2.027   .     S
C541   C562    1.403   .     S
C541   O581    1.280   .     A
C541   O586    1.292   .     A
C542   C544    1.394   .     A
C542   C553    1.383   .     A
C542   H571    1.081   .     S
C543   C545    1.398   .     A
C543   C566    1.394   .     A
C543   C565    1.433   .     S
C544   C564    1.433   .     S
C544   C546    1.398   .     A
C545   H572    1.085   .     S
C545   C547    1.381   .     A
C546   H573    1.085   .     S
C546   C548    1.381   .     A
C547   C549    1.410   .     A
C547   C554    1.400   .     A
C548   C555    1.400   .     A
C548   C550    1.410   .     A
C549   C551    1.412   .     A
C550   C553    1.412   .     A
C550   C63     1.390   1_556 S
C551   C566    1.383   .     A
C551   C561    1.399   .     A
C552   C563    1.403   .     S
C552   O587    1.292   .     A
C552   O585    1.280   .     A
C553   C560    1.399   .     A
C554   H574    1.084   .     S
C555   H575    1.084   .     S
C555   C75     1.389   1_556 S
C556   O592    1.222   .     D
C556   C886    1.498   1_545 S
C556   H902    1.086   1_545 S
C557   O582    1.222   .     D
C557   C725    1.498   .     S
C557   H730    1.086   .     S
C558   H569    1.085   .     S
C559   H570    1.085   .     S
C559   N634    1.408   .     S
C559   O638    1.220   .     S
C560   H576    1.084   .     S
C560   C68     1.389   1_556 S
C561   H577    1.084   .     S
C562   C718    1.498   .     S
C562   C725    1.358   .     S
C563   C886    1.358   1_545 S
C563   C881    1.498   1_545 S
C564   O590    1.299   .     A
C564   O588    1.292   .     A
C565   O591    1.299   .     A
C565   O589    1.292   .     A
C566   H567    1.081   .     S
H568   C881    1.086   1_545 S
H578   C718    1.086   .     S
N579   Zn594   2.032   .     S
N579   C612    1.408   .     S
N579   N634    1.281   .     S
N580   Zn593   2.032   .     S
O581   Zn593   1.973   .     S
O583   C612    1.220   .     S
O585   Zn594   1.973   .     S
O586   Zn594   1.980   .     S
O587   Zn593   1.980   .     S
O588   Zn593   1.996   .     S
O589   Zn594   1.996   .     S
O590   Zn594   2.027   .     S
O591   Zn593   2.027   .     S
C595   C616    1.403   .     S
C595   O635    1.280   .     A
C595   O640    1.292   .     A
C596   C598    1.394   .     A
C596   C607    1.383   .     A
C596   H625    1.081   .     S
C597   C599    1.398   .     A
C597   C620    1.394   .     A
C597   C619    1.433   .     S
C598   C618    1.433   .     S
C598   C600    1.398   .     A
C599   H626    1.085   .     S
C599   C601    1.381   .     A
C600   H627    1.085   .     S
C600   C602    1.381   .     A
C601   C603    1.410   .     A
C601   C608    1.400   .     A
C602   C609    1.400   .     A
C602   C604    1.410   .     A
C603   C605    1.412   .     A
C604   C607    1.412   .     A
C604   C117    1.390   1_556 S
C605   C620    1.383   .     A
C605   C615    1.399   .     A
C606   C617    1.403   .     S
C606   O641    1.292   .     A
C606   O639    1.280   .     A
C607   C614    1.399   .     A
C608   H628    1.084   .     S
C609   H629    1.084   .     S
C609   C129    1.389   1_556 S
C610   O646    1.222   .     D
C610   C940    1.498   1_545 S
C610   H956    1.086   1_545 S
C611   O636    1.222   .     D
C611   C779    1.498   .     S
C611   H784    1.086   .     S
C612   H623    1.085   .     S
C613   H624    1.085   .     S
C613   N526    1.408   1_655 S
C613   O530    1.220   1_655 S
C614   H630    1.084   .     S
C614   C122    1.389   1_556 S
C615   H631    1.084   .     S
C616   C772    1.498   .     S
C616   C779    1.358   .     S
C617   C940    1.358   1_545 S
C617   C935    1.498   1_545 S
C618   O644    1.299   .     A
C618   O642    1.292   .     A
C619   O645    1.299   .     A
C619   O643    1.292   .     A
C620   H621    1.081   .     S
H622   C935    1.086   1_545 S
H632   C772    1.086   .     S
N633   Zn648   2.032   .     S
N633   C504    1.408   1_655 S
N633   N526    1.281   1_655 S
N634   Zn647   2.032   .     S
O635   Zn647   1.973   .     S
O637   C504    1.220   1_655 S
O639   Zn648   1.973   .     S
O640   Zn648   1.980   .     S
O641   Zn647   1.980   .     S
O642   Zn647   1.996   .     S
O643   Zn648   1.996   .     S
O644   Zn648   2.027   .     S
O645   Zn647   2.027   .     S
C649   C670    1.403   .     S
C649   O689    1.280   .     A
C649   O694    1.292   .     A
C650   C652    1.394   .     A
C650   C661    1.383   .     A
C650   H679    1.081   .     S
C651   C653    1.398   .     A
C651   C674    1.394   .     A
C651   C673    1.433   .     S
C652   C672    1.433   .     S
C652   C654    1.398   .     A
C653   H680    1.085   .     S
C653   C655    1.381   .     A
C654   H681    1.085   .     S
C654   C656    1.381   .     A
C655   C657    1.410   .     A
C655   C662    1.400   .     A
C656   C663    1.400   .     A
C656   C658    1.410   .     A
C657   C659    1.412   .     A
C658   C661    1.412   .     A
C658   C171    1.390   1_556 S
C659   C674    1.383   .     A
C659   C669    1.399   .     A
C660   C671    1.403   .     S
C660   O695    1.292   .     A
C660   O693    1.280   .     A
C661   C668    1.399   .     A
C662   H682    1.084   .     S
C663   H683    1.084   .     S
C663   C183    1.389   1_556 S
C664   O700    1.222   .     D
C665   O690    1.222   .     D
C665   C833    1.498   .     S
C665   H838    1.086   .     S
C666   H677    1.085   .     S
C666   N795    1.408   1_455 S
C666   O799    1.220   1_455 S
C667   H678    1.085   .     S
C667   N742    1.408   .     S
C667   O746    1.220   .     S
C668   H684    1.084   .     S
C668   C176    1.389   1_556 S
C669   H685    1.084   .     S
C670   C826    1.498   .     S
C670   C833    1.358   .     S
C672   O698    1.299   .     A
C672   O696    1.292   .     A
C673   O699    1.299   .     A
C673   O697    1.292   .     A
C674   H675    1.081   .     S
H686   C826    1.086   .     S
N687   Zn702   2.032   .     S
N687   C720    1.408   .     S
N687   N742    1.281   .     S
N688   Zn701   2.032   .     S
N688   N795    1.281   1_455 S
N688   C775    1.408   1_455 S
O689   Zn701   1.973   .     S
O691   C720    1.220   .     S
O692   C775    1.220   1_455 S
O693   Zn702   1.973   .     S
O694   Zn702   1.980   .     S
O695   Zn701   1.980   .     S
O696   Zn701   1.996   .     S
O697   Zn702   1.996   .     S
O698   Zn702   2.027   .     S
O699   Zn701   2.027   .     S
C703   C724    1.403   .     S
C703   O743    1.280   .     A
C703   O748    1.292   .     A
C704   C706    1.394   .     A
C704   C715    1.383   .     A
C704   H733    1.081   .     S
C705   C707    1.398   .     A
C705   C728    1.394   .     A
C705   C727    1.433   .     S
C706   C726    1.433   .     S
C706   C708    1.398   .     A
C707   H734    1.085   .     S
C707   C709    1.381   .     A
C708   H735    1.085   .     S
C708   C710    1.381   .     A
C709   C711    1.410   .     A
C709   C716    1.400   .     A
C710   C717    1.400   .     A
C710   C712    1.410   .     A
C711   C713    1.412   .     A
C712   C715    1.412   .     A
C712   C225    1.390   1_556 S
C713   C728    1.383   .     A
C713   C723    1.399   .     A
C714   C725    1.403   .     S
C714   O749    1.292   .     A
C714   O747    1.280   .     A
C715   C722    1.399   .     A
C716   H736    1.084   .     S
C717   H737    1.084   .     S
C717   C237    1.389   1_556 S
C718   O754    1.222   .     D
C719   O744    1.222   .     D
C719   C887    1.498   .     S
C719   H892    1.086   .     S
C720   H731    1.085   .     S
C721   H732    1.085   .     S
C721   N796    1.408   .     S
C721   O800    1.220   .     S
C722   H738    1.084   .     S
C722   C230    1.389   1_556 S
C723   H739    1.084   .     S
C724   C880    1.498   .     S
C724   C887    1.358   .     S
C726   O752    1.299   .     A
C726   O750    1.292   .     A
C727   O753    1.299   .     A
C727   O751    1.292   .     A
C728   H729    1.081   .     S
H740   C880    1.086   .     S
N741   Zn756   2.032   .     S
N741   C774    1.408   .     S
N741   N796    1.281   .     S
N742   Zn755   2.032   .     S
O743   Zn755   1.973   .     S
O745   C774    1.220   .     S
O747   Zn756   1.973   .     S
O748   Zn756   1.980   .     S
O749   Zn755   1.980   .     S
O750   Zn755   1.996   .     S
O751   Zn756   1.996   .     S
O752   Zn756   2.027   .     S
O753   Zn755   2.027   .     S
C757   C778    1.403   .     S
C757   O797    1.280   .     A
C757   O802    1.292   .     A
C758   C760    1.394   .     A
C758   C769    1.383   .     A
C758   H787    1.081   .     S
C759   C761    1.398   .     A
C759   C782    1.394   .     A
C759   C781    1.433   .     S
C760   C780    1.433   .     S
C760   C762    1.398   .     A
C761   H788    1.085   .     S
C761   C763    1.381   .     A
C762   H789    1.085   .     S
C762   C764    1.381   .     A
C763   C765    1.410   .     A
C763   C770    1.400   .     A
C764   C771    1.400   .     A
C764   C766    1.410   .     A
C765   C767    1.412   .     A
C766   C769    1.412   .     A
C766   C279    1.390   1_556 S
C767   C782    1.383   .     A
C767   C777    1.399   .     A
C768   C779    1.403   .     S
C768   O803    1.292   .     A
C768   O801    1.280   .     A
C769   C776    1.399   .     A
C770   H790    1.084   .     S
C771   H791    1.084   .     S
C771   C291    1.389   1_556 S
C772   O808    1.222   .     D
C773   O798    1.222   .     D
C773   C941    1.498   .     S
C773   H946    1.086   .     S
C774   H785    1.085   .     S
C775   H786    1.085   .     S
C775   N688    1.408   1_655 S
C775   O692    1.220   1_655 S
C776   H792    1.084   .     S
C776   C284    1.389   1_556 S
C777   H793    1.084   .     S
C778   C934    1.498   .     S
C778   C941    1.358   .     S
C780   O806    1.299   .     A
C780   O804    1.292   .     A
C781   O807    1.299   .     A
C781   O805    1.292   .     A
C782   H783    1.081   .     S
H794   C934    1.086   .     S
N795   Zn810   2.032   .     S
N795   C666    1.408   1_655 S
N795   N688    1.281   1_655 S
N796   Zn809   2.032   .     S
O797   Zn809   1.973   .     S
O799   C666    1.220   1_655 S
O801   Zn810   1.973   .     S
O802   Zn810   1.980   .     S
O803   Zn809   1.980   .     S
O804   Zn809   1.996   .     S
O805   Zn810   1.996   .     S
O806   Zn810   2.027   .     S
O807   Zn809   2.027   .     S
C811   C832    1.403   .     S
C811   O851    1.280   .     A
C811   O856    1.292   .     A
C812   C814    1.394   .     A
C812   C823    1.383   .     A
C812   H841    1.081   .     S
C813   C815    1.398   .     A
C813   C836    1.394   .     A
C813   C835    1.433   .     S
C814   C834    1.433   .     S
C814   C816    1.398   .     A
C815   H842    1.085   .     S
C815   C817    1.381   .     A
C816   H843    1.085   .     S
C816   C818    1.381   .     A
C817   C819    1.410   .     A
C817   C824    1.400   .     A
C818   C825    1.400   .     A
C818   C820    1.410   .     A
C819   C821    1.412   .     A
C820   C823    1.412   .     A
C820   C333    1.390   1_556 S
C821   C836    1.383   .     A
C821   C831    1.399   .     A
C822   C833    1.403   .     S
C822   O857    1.292   .     A
C822   O855    1.280   .     A
C823   C830    1.399   .     A
C824   H844    1.084   .     S
C825   H845    1.084   .     S
C825   C345    1.389   1_556 S
C826   O862    1.222   .     D
C827   O852    1.222   .     D
C827   C509    1.498   1_565 S
C827   H514    1.086   1_565 S
C828   H839    1.085   .     S
C828   N957    1.408   1_455 S
C828   O961    1.220   1_455 S
C829   H840    1.085   .     S
C829   N904    1.408   .     S
C829   O908    1.220   .     S
C830   H846    1.084   .     S
C830   C338    1.389   1_556 S
C831   H847    1.084   .     S
C832   C502    1.498   1_565 S
C832   C509    1.358   1_565 S
C834   O860    1.299   .     A
C834   O858    1.292   .     A
C835   O861    1.299   .     A
C835   O859    1.292   .     A
C836   H837    1.081   .     S
H848   C502    1.086   1_565 S
N849   Zn864   2.032   .     S
N849   C882    1.408   .     S
N849   N904    1.281   .     S
N850   Zn863   2.032   .     S
N850   N957    1.281   1_455 S
N850   C937    1.408   1_455 S
O851   Zn863   1.973   .     S
O853   C882    1.220   .     S
O854   C937    1.220   1_455 S
O855   Zn864   1.973   .     S
O856   Zn864   1.980   .     S
O857   Zn863   1.980   .     S
O858   Zn863   1.996   .     S
O859   Zn864   1.996   .     S
O860   Zn864   2.027   .     S
O861   Zn863   2.027   .     S
C865   C886    1.403   .     S
C865   O905    1.280   .     A
C865   O910    1.292   .     A
C866   C868    1.394   .     A
C866   C877    1.383   .     A
C866   H895    1.081   .     S
C867   C869    1.398   .     A
C867   C890    1.394   .     A
C867   C889    1.433   .     S
C868   C888    1.433   .     S
C868   C870    1.398   .     A
C869   H896    1.085   .     S
C869   C871    1.381   .     A
C870   H897    1.085   .     S
C870   C872    1.381   .     A
C871   C873    1.410   .     A
C871   C878    1.400   .     A
C872   C879    1.400   .     A
C872   C874    1.410   .     A
C873   C875    1.412   .     A
C874   C877    1.412   .     A
C874   C387    1.390   1_556 S
C875   C890    1.383   .     A
C875   C885    1.399   .     A
C876   C887    1.403   .     S
C876   O911    1.292   .     A
C876   O909    1.280   .     A
C877   C884    1.399   .     A
C878   H898    1.084   .     S
C879   H899    1.084   .     S
C879   C399    1.389   1_556 S
C880   O916    1.222   .     D
C881   O906    1.222   .     D
C881   C563    1.498   1_565 S
C881   H568    1.086   1_565 S
C882   H893    1.085   .     S
C883   H894    1.085   .     S
C883   N958    1.408   .     S
C883   O962    1.220   .     S
C884   H900    1.084   .     S
C884   C392    1.389   1_556 S
C885   H901    1.084   .     S
C886   C556    1.498   1_565 S
C886   C563    1.358   1_565 S
C888   O914    1.299   .     A
C888   O912    1.292   .     A
C889   O915    1.299   .     A
C889   O913    1.292   .     A
C890   H891    1.081   .     S
H902   C556    1.086   1_565 S
N903   Zn918   2.032   .     S
N903   C936    1.408   .     S
N903   N958    1.281   .     S
N904   Zn917   2.032   .     S
O905   Zn917   1.973   .     S
O907   C936    1.220   .     S
O909   Zn918   1.973   .     S
O910   Zn918   1.980   .     S
O911   Zn917   1.980   .     S
O912   Zn917   1.996   .     S
O913   Zn918   1.996   .     S
O914   Zn918   2.027   .     S
O915   Zn917   2.027   .     S
C919   C940    1.403   .     S
C919   O959    1.280   .     A
C919   O964    1.292   .     A
C920   C922    1.394   .     A
C920   C931    1.383   .     A
C920   H949    1.081   .     S
C921   C923    1.398   .     A
C921   C944    1.394   .     A
C921   C943    1.433   .     S
C922   C942    1.433   .     S
C922   C924    1.398   .     A
C923   H950    1.085   .     S
C923   C925    1.381   .     A
C924   H951    1.085   .     S
C924   C926    1.381   .     A
C925   C927    1.410   .     A
C925   C932    1.400   .     A
C926   C933    1.400   .     A
C926   C928    1.410   .     A
C927   C929    1.412   .     A
C928   C931    1.412   .     A
C928   C441    1.390   1_556 S
C929   C944    1.383   .     A
C929   C939    1.399   .     A
C930   C941    1.403   .     S
C930   O965    1.292   .     A
C930   O963    1.280   .     A
C931   C938    1.399   .     A
C932   H952    1.084   .     S
C933   H953    1.084   .     S
C933   C453    1.389   1_556 S
C934   O970    1.222   .     D
C935   O960    1.222   .     D
C935   C617    1.498   1_565 S
C935   H622    1.086   1_565 S
C936   H947    1.085   .     S
C937   H948    1.085   .     S
C937   N850    1.408   1_655 S
C937   O854    1.220   1_655 S
C938   H954    1.084   .     S
C938   C446    1.389   1_556 S
C939   H955    1.084   .     S
C940   C610    1.498   1_565 S
C940   C617    1.358   1_565 S
C942   O968    1.299   .     A
C942   O966    1.292   .     A
C943   O969    1.299   .     A
C943   O967    1.292   .     A
C944   H945    1.081   .     S
H956   C610    1.086   1_565 S
N957   Zn972   2.032   .     S
N957   C828    1.408   1_655 S
N957   N850    1.281   1_655 S
N958   Zn971   2.032   .     S
O959   Zn971   1.973   .     S
O961   C828    1.220   1_655 S
O963   Zn972   1.973   .     S
O964   Zn972   1.980   .     S
O965   Zn971   1.980   .     S
O966   Zn971   1.996   .     S
O967   Zn972   1.996   .     S
O968   Zn972   2.027   .     S
O969   Zn971   2.027   .     S
