data_str_m2_o1_o18_pcu_sym.194
_audit_creation_date              2020-01-03
_audit_creation_method            'Materials Studio'
_symmetry_space_group_name_H-M    'P1'
_symmetry_Int_Tables_number       1
_symmetry_cell_setting            triclinic
loop_
_symmetry_equiv_pos_as_xyz
  x,y,z
_cell_length_a                    29.0655
_cell_length_b                    32.2069
_cell_length_c                    30.6695
_cell_angle_alpha                 86.9419
_cell_angle_beta                  75.0181
_cell_angle_gamma                 89.2395
loop_
_atom_site_label
_atom_site_type_symbol
_atom_site_fract_x
_atom_site_fract_y
_atom_site_fract_z
_atom_site_U_iso_or_equiv
_atom_site_adp_type
_atom_site_occupancy
C1     C     0.00025   0.08764   0.24996   0.00000  Uiso   1.00
C2     C     0.33308   0.24569   0.25004   0.00000  Uiso   1.00
C3     C     0.19334   0.15993   0.04920   0.00000  Uiso   1.00
C4     C     0.13999   0.17341   0.45080   0.00000  Uiso   1.00
C5     C     0.23900   0.14648   0.02824   0.00000  Uiso   1.00
C6     C     0.09434   0.18685   0.47176   0.00000  Uiso   1.00
C7     C     0.30948   0.02020   0.28879   0.00000  Uiso   1.00
C8     C     0.02385   0.31313   0.21121   0.00000  Uiso   1.00
C9     C     0.30858   0.31040   0.28910   0.00000  Uiso   1.00
C10    C     0.02476   0.02293   0.21090   0.00000  Uiso   1.00
C11    C     0.33257   0.29036   0.25018   0.00000  Uiso   1.00
C12    C     0.00076   0.04298   0.24982   0.00000  Uiso   1.00
C13    C     0.18543   0.13636   0.27365   0.00000  Uiso   1.00
C14    C     0.14790   0.19697   0.22635   0.00000  Uiso   1.00
C15    C     0.13680   0.13560   0.27246   0.00000  Uiso   1.00
C16    C     0.19653   0.19773   0.22755   0.00000  Uiso   1.00
C17    C     0.30629   0.16558   0.33644   0.00000  Uiso   1.00
C18    C     0.02705   0.16775   0.16356   0.00000  Uiso   1.00
C19    C     0.29105   0.16124   0.38679   0.00000  Uiso   1.00
C20    C     0.04228   0.17210   0.11321   0.00000  Uiso   1.00
C21    C     0.30142   0.13553   0.45979   0.00000  Uiso   1.00
C22    C     0.03191   0.19780   0.04021   0.00000  Uiso   1.00
C23    C     0.31866   0.14058   0.41294   0.00000  Uiso   1.00
C24    C     0.01468   0.19275   0.08706   0.00000  Uiso   1.00
C25    C     0.24530   0.17500   0.40903   0.00000  Uiso   1.00
C26    C     0.08803   0.15834   0.09097   0.00000  Uiso   1.00
C27    C     0.22422   0.16280   0.45478   0.00000  Uiso   1.00
C28    C     0.10912   0.17054   0.04522   0.00000  Uiso   1.00
C29    C     0.25466   0.14723   0.48108   0.00000  Uiso   1.00
C30    C     0.07867   0.18610   0.01892   0.00000  Uiso   1.00
C31    C     0.17464   0.16777   0.47586   0.00000  Uiso   1.00
C32    C     0.15870   0.16556   0.02414   0.00000  Uiso   1.00
Cu33   Cu    0.04689   0.16667   0.25000   0.00000  Uiso   1.00
Cu34   Cu    0.28645   0.16666   0.25000   0.00000  Uiso   1.00
N35    N     0.11736   0.16668   0.24999   0.00000  Uiso   1.00
N36    N     0.21597   0.16666   0.25001   0.00000  Uiso   1.00
O37    O     0.03958   0.10655   0.25000   0.00000  Uiso   1.00
O38    O     0.29375   0.22678   0.25000   0.00000  Uiso   1.00
O39    O     0.29372   0.10654   0.25001   0.00000  Uiso   1.00
O40    O     0.03961   0.22679   0.25000   0.00000  Uiso   1.00
O41    O     0.01852   0.16668   0.31492   0.00000  Uiso   1.00
O42    O     0.31481   0.16666   0.18509   0.00000  Uiso   1.00
O43    O     0.27267   0.16667   0.31492   0.00000  Uiso   1.00
O44    O     0.06067   0.16667   0.18508   0.00000  Uiso   1.00
F45    F     0.26949   0.13672   0.05418   0.00000  Uiso   1.00
F46    F     0.06385   0.19661   0.44582   0.00000  Uiso   1.00
F47    F     0.10936   0.12912   0.11268   0.00000  Uiso   1.00
F48    F     0.22397   0.20421   0.38732   0.00000  Uiso   1.00
Cl49   Cl    0.29172   0.21327   0.11051   0.00000  Uiso   1.00
Cl50   Cl    0.04161   0.12007   0.38949   0.00000  Uiso   1.00
F51    F     0.33025   0.11800   0.48422   0.00000  Uiso   1.00
F52    F     0.00309   0.21533   0.01578   0.00000  Uiso   1.00
Cl53   Cl    0.18571   0.17770   0.10410   0.00000  Uiso   1.00
Cl54   Cl    0.14762   0.15563   0.39590   0.00000  Uiso   1.00
F55    F     0.28731   0.03994   0.32661   0.00000  Uiso   1.00
F56    F     0.04602   0.29339   0.17339   0.00000  Uiso   1.00
Cl57   Cl    0.27858   0.28222   0.33891   0.00000  Uiso   1.00
Cl58   Cl    0.05476   0.05111   0.16109   0.00000  Uiso   1.00
Cl59   Cl    0.20496   0.09861   0.30867   0.00000  Uiso   1.00
Cl60   Cl    0.12837   0.23473   0.19133   0.00000  Uiso   1.00
Cl61   Cl    0.10378   0.09144   0.29793   0.00000  Uiso   1.00
Cl62   Cl    0.22955   0.24190   0.20207   0.00000  Uiso   1.00
C63    C     0.33359   0.08764   0.24996   0.00000  Uiso   1.00
C64    C     0.66641   0.24569   0.25004   0.00000  Uiso   1.00
C65    C     0.52668   0.15993   0.04920   0.00000  Uiso   1.00
C66    C     0.47332   0.17341   0.45080   0.00000  Uiso   1.00
C67    C     0.57233   0.14648   0.02824   0.00000  Uiso   1.00
C68    C     0.42767   0.18685   0.47176   0.00000  Uiso   1.00
C69    C     0.64281   0.02020   0.28879   0.00000  Uiso   1.00
C70    C     0.35719   0.31313   0.21121   0.00000  Uiso   1.00
C71    C     0.64191   0.31040   0.28910   0.00000  Uiso   1.00
C72    C     0.35809   0.02293   0.21090   0.00000  Uiso   1.00
C73    C     0.66591   0.29036   0.25018   0.00000  Uiso   1.00
C74    C     0.33409   0.04298   0.24982   0.00000  Uiso   1.00
C75    C     0.51877   0.13636   0.27365   0.00000  Uiso   1.00
C76    C     0.48123   0.19697   0.22635   0.00000  Uiso   1.00
C77    C     0.47013   0.13560   0.27246   0.00000  Uiso   1.00
C78    C     0.52987   0.19773   0.22755   0.00000  Uiso   1.00
C79    C     0.63962   0.16558   0.33644   0.00000  Uiso   1.00
C80    C     0.36038   0.16775   0.16356   0.00000  Uiso   1.00
C81    C     0.62439   0.16124   0.38679   0.00000  Uiso   1.00
C82    C     0.37561   0.17210   0.11321   0.00000  Uiso   1.00
C83    C     0.63475   0.13553   0.45979   0.00000  Uiso   1.00
C84    C     0.36525   0.19780   0.04021   0.00000  Uiso   1.00
C85    C     0.65199   0.14058   0.41294   0.00000  Uiso   1.00
C86    C     0.34801   0.19275   0.08706   0.00000  Uiso   1.00
C87    C     0.57864   0.17500   0.40903   0.00000  Uiso   1.00
C88    C     0.42137   0.15834   0.09097   0.00000  Uiso   1.00
C89    C     0.55755   0.16280   0.45478   0.00000  Uiso   1.00
C90    C     0.44245   0.17054   0.04522   0.00000  Uiso   1.00
C91    C     0.58800   0.14723   0.48108   0.00000  Uiso   1.00
C92    C     0.41200   0.18610   0.01892   0.00000  Uiso   1.00
C93    C     0.50797   0.16777   0.47586   0.00000  Uiso   1.00
C94    C     0.49203   0.16556   0.02414   0.00000  Uiso   1.00
Cu95   Cu    0.38022   0.16667   0.25000   0.00000  Uiso   1.00
Cu96   Cu    0.61978   0.16666   0.25000   0.00000  Uiso   1.00
N97    N     0.45069   0.16668   0.24999   0.00000  Uiso   1.00
N98    N     0.54931   0.16666   0.25001   0.00000  Uiso   1.00
O99    O     0.37291   0.10655   0.25000   0.00000  Uiso   1.00
O100   O     0.62709   0.22678   0.25000   0.00000  Uiso   1.00
O101   O     0.62706   0.10654   0.25001   0.00000  Uiso   1.00
O102   O     0.37294   0.22679   0.25000   0.00000  Uiso   1.00
O103   O     0.35186   0.16668   0.31492   0.00000  Uiso   1.00
O104   O     0.64814   0.16666   0.18509   0.00000  Uiso   1.00
O105   O     0.60600   0.16667   0.31492   0.00000  Uiso   1.00
O106   O     0.39400   0.16667   0.18508   0.00000  Uiso   1.00
F107   F     0.60282   0.13672   0.05418   0.00000  Uiso   1.00
F108   F     0.39718   0.19661   0.44582   0.00000  Uiso   1.00
F109   F     0.44270   0.12912   0.11268   0.00000  Uiso   1.00
F110   F     0.55730   0.20421   0.38732   0.00000  Uiso   1.00
Cl111  Cl    0.62505   0.21327   0.11051   0.00000  Uiso   1.00
Cl112  Cl    0.37495   0.12007   0.38949   0.00000  Uiso   1.00
F113   F     0.66358   0.11800   0.48422   0.00000  Uiso   1.00
F114   F     0.33642   0.21533   0.01578   0.00000  Uiso   1.00
Cl115  Cl    0.51905   0.17770   0.10410   0.00000  Uiso   1.00
Cl116  Cl    0.48095   0.15563   0.39590   0.00000  Uiso   1.00
F117   F     0.62065   0.03994   0.32661   0.00000  Uiso   1.00
F118   F     0.37935   0.29339   0.17339   0.00000  Uiso   1.00
Cl119  Cl    0.61191   0.28222   0.33891   0.00000  Uiso   1.00
Cl120  Cl    0.38809   0.05111   0.16109   0.00000  Uiso   1.00
Cl121  Cl    0.53829   0.09861   0.30867   0.00000  Uiso   1.00
Cl122  Cl    0.46171   0.23473   0.19133   0.00000  Uiso   1.00
Cl123  Cl    0.43712   0.09144   0.29793   0.00000  Uiso   1.00
Cl124  Cl    0.56288   0.24190   0.20207   0.00000  Uiso   1.00
C125   C     0.66692   0.08764   0.24996   0.00000  Uiso   1.00
C126   C     0.99975   0.24569   0.25004   0.00000  Uiso   1.00
C127   C     0.86001   0.15993   0.04920   0.00000  Uiso   1.00
C128   C     0.80666   0.17341   0.45080   0.00000  Uiso   1.00
C129   C     0.90566   0.14648   0.02824   0.00000  Uiso   1.00
C130   C     0.76100   0.18685   0.47176   0.00000  Uiso   1.00
C131   C     0.97615   0.02020   0.28879   0.00000  Uiso   1.00
C132   C     0.69052   0.31313   0.21121   0.00000  Uiso   1.00
C133   C     0.97524   0.31040   0.28910   0.00000  Uiso   1.00
C134   C     0.69142   0.02293   0.21090   0.00000  Uiso   1.00
C135   C     0.99924   0.29036   0.25018   0.00000  Uiso   1.00
C136   C     0.66743   0.04298   0.24982   0.00000  Uiso   1.00
C137   C     0.85210   0.13636   0.27365   0.00000  Uiso   1.00
C138   C     0.81457   0.19697   0.22635   0.00000  Uiso   1.00
C139   C     0.80347   0.13560   0.27246   0.00000  Uiso   1.00
C140   C     0.86320   0.19773   0.22755   0.00000  Uiso   1.00
C141   C     0.97295   0.16558   0.33644   0.00000  Uiso   1.00
C142   C     0.69371   0.16775   0.16356   0.00000  Uiso   1.00
C143   C     0.95772   0.16124   0.38679   0.00000  Uiso   1.00
C144   C     0.70895   0.17210   0.11321   0.00000  Uiso   1.00
C145   C     0.96809   0.13553   0.45979   0.00000  Uiso   1.00
C146   C     0.69858   0.19780   0.04021   0.00000  Uiso   1.00
C147   C     0.98532   0.14058   0.41294   0.00000  Uiso   1.00
C148   C     0.68134   0.19275   0.08706   0.00000  Uiso   1.00
C149   C     0.91197   0.17500   0.40903   0.00000  Uiso   1.00
C150   C     0.75470   0.15834   0.09097   0.00000  Uiso   1.00
C151   C     0.89088   0.16280   0.45478   0.00000  Uiso   1.00
C152   C     0.77578   0.17054   0.04522   0.00000  Uiso   1.00
C153   C     0.92133   0.14723   0.48108   0.00000  Uiso   1.00
C154   C     0.74534   0.18610   0.01892   0.00000  Uiso   1.00
C155   C     0.84130   0.16777   0.47586   0.00000  Uiso   1.00
C156   C     0.82537   0.16556   0.02414   0.00000  Uiso   1.00
Cu157  Cu    0.71355   0.16667   0.25000   0.00000  Uiso   1.00
Cu158  Cu    0.95311   0.16666   0.25000   0.00000  Uiso   1.00
N159   N     0.78403   0.16668   0.24999   0.00000  Uiso   1.00
N160   N     0.88264   0.16666   0.25001   0.00000  Uiso   1.00
O161   O     0.70625   0.10655   0.25000   0.00000  Uiso   1.00
O162   O     0.96042   0.22678   0.25000   0.00000  Uiso   1.00
O163   O     0.96039   0.10654   0.25001   0.00000  Uiso   1.00
O164   O     0.70628   0.22679   0.25000   0.00000  Uiso   1.00
O165   O     0.68519   0.16668   0.31492   0.00000  Uiso   1.00
O166   O     0.98148   0.16666   0.18509   0.00000  Uiso   1.00
O167   O     0.93933   0.16667   0.31492   0.00000  Uiso   1.00
O168   O     0.72733   0.16667   0.18508   0.00000  Uiso   1.00
F169   F     0.93615   0.13672   0.05418   0.00000  Uiso   1.00
F170   F     0.73051   0.19661   0.44582   0.00000  Uiso   1.00
F171   F     0.77603   0.12912   0.11268   0.00000  Uiso   1.00
F172   F     0.89064   0.20421   0.38732   0.00000  Uiso   1.00
Cl173  Cl    0.95839   0.21327   0.11051   0.00000  Uiso   1.00
Cl174  Cl    0.70828   0.12007   0.38949   0.00000  Uiso   1.00
F175   F     0.99692   0.11800   0.48422   0.00000  Uiso   1.00
F176   F     0.66975   0.21533   0.01578   0.00000  Uiso   1.00
Cl177  Cl    0.85238   0.17770   0.10410   0.00000  Uiso   1.00
Cl178  Cl    0.81429   0.15563   0.39590   0.00000  Uiso   1.00
F179   F     0.95398   0.03994   0.32661   0.00000  Uiso   1.00
F180   F     0.71269   0.29339   0.17339   0.00000  Uiso   1.00
Cl181  Cl    0.94524   0.28222   0.33891   0.00000  Uiso   1.00
Cl182  Cl    0.72142   0.05111   0.16109   0.00000  Uiso   1.00
Cl183  Cl    0.87163   0.09861   0.30867   0.00000  Uiso   1.00
Cl184  Cl    0.79504   0.23473   0.19133   0.00000  Uiso   1.00
Cl185  Cl    0.77045   0.09144   0.29793   0.00000  Uiso   1.00
Cl186  Cl    0.89622   0.24190   0.20207   0.00000  Uiso   1.00
C187   C     0.00025   0.42098   0.24996   0.00000  Uiso   1.00
C188   C     0.33308   0.57902   0.25004   0.00000  Uiso   1.00
C189   C     0.19334   0.49326   0.04920   0.00000  Uiso   1.00
C190   C     0.13999   0.50674   0.45080   0.00000  Uiso   1.00
C191   C     0.23900   0.47981   0.02824   0.00000  Uiso   1.00
C192   C     0.09434   0.52019   0.47176   0.00000  Uiso   1.00
C193   C     0.30948   0.35353   0.28879   0.00000  Uiso   1.00
C194   C     0.02385   0.64647   0.21121   0.00000  Uiso   1.00
C195   C     0.30858   0.64373   0.28910   0.00000  Uiso   1.00
C196   C     0.02476   0.35627   0.21090   0.00000  Uiso   1.00
C197   C     0.33257   0.62369   0.25018   0.00000  Uiso   1.00
C198   C     0.00076   0.37631   0.24982   0.00000  Uiso   1.00
C199   C     0.18543   0.46969   0.27365   0.00000  Uiso   1.00
C200   C     0.14790   0.53031   0.22635   0.00000  Uiso   1.00
C201   C     0.13680   0.46894   0.27246   0.00000  Uiso   1.00
C202   C     0.19653   0.53106   0.22755   0.00000  Uiso   1.00
C203   C     0.30629   0.49891   0.33644   0.00000  Uiso   1.00
C204   C     0.02705   0.50109   0.16356   0.00000  Uiso   1.00
C205   C     0.29105   0.49457   0.38679   0.00000  Uiso   1.00
C206   C     0.04228   0.50543   0.11321   0.00000  Uiso   1.00
C207   C     0.30142   0.46887   0.45979   0.00000  Uiso   1.00
C208   C     0.03191   0.53113   0.04021   0.00000  Uiso   1.00
C209   C     0.31866   0.47391   0.41294   0.00000  Uiso   1.00
C210   C     0.01468   0.52609   0.08706   0.00000  Uiso   1.00
C211   C     0.24530   0.50833   0.40903   0.00000  Uiso   1.00
C212   C     0.08803   0.49167   0.09097   0.00000  Uiso   1.00
C213   C     0.22422   0.49613   0.45478   0.00000  Uiso   1.00
C214   C     0.10912   0.50387   0.04522   0.00000  Uiso   1.00
C215   C     0.25466   0.48056   0.48108   0.00000  Uiso   1.00
C216   C     0.07867   0.51944   0.01892   0.00000  Uiso   1.00
C217   C     0.17464   0.50111   0.47586   0.00000  Uiso   1.00
C218   C     0.15870   0.49889   0.02414   0.00000  Uiso   1.00
Cu219  Cu    0.04689   0.50001   0.25000   0.00000  Uiso   1.00
Cu220  Cu    0.28645   0.49999   0.25000   0.00000  Uiso   1.00
N221   N     0.11736   0.50001   0.24999   0.00000  Uiso   1.00
N222   N     0.21597   0.49999   0.25001   0.00000  Uiso   1.00
O223   O     0.03958   0.43989   0.25000   0.00000  Uiso   1.00
O224   O     0.29375   0.56011   0.25000   0.00000  Uiso   1.00
O225   O     0.29372   0.43988   0.25001   0.00000  Uiso   1.00
O226   O     0.03961   0.56012   0.25000   0.00000  Uiso   1.00
O227   O     0.01852   0.50001   0.31492   0.00000  Uiso   1.00
O228   O     0.31481   0.49999   0.18509   0.00000  Uiso   1.00
O229   O     0.27267   0.50000   0.31492   0.00000  Uiso   1.00
O230   O     0.06067   0.50000   0.18508   0.00000  Uiso   1.00
F231   F     0.26949   0.47006   0.05418   0.00000  Uiso   1.00
F232   F     0.06385   0.52994   0.44582   0.00000  Uiso   1.00
F233   F     0.10936   0.46246   0.11268   0.00000  Uiso   1.00
F234   F     0.22397   0.53754   0.38732   0.00000  Uiso   1.00
Cl235  Cl    0.29172   0.54660   0.11051   0.00000  Uiso   1.00
Cl236  Cl    0.04161   0.45340   0.38949   0.00000  Uiso   1.00
F237   F     0.33025   0.45133   0.48422   0.00000  Uiso   1.00
F238   F     0.00309   0.54867   0.01578   0.00000  Uiso   1.00
Cl239  Cl    0.18571   0.51104   0.10410   0.00000  Uiso   1.00
Cl240  Cl    0.14762   0.48896   0.39590   0.00000  Uiso   1.00
F241   F     0.28731   0.37328   0.32661   0.00000  Uiso   1.00
F242   F     0.04602   0.62672   0.17339   0.00000  Uiso   1.00
Cl243  Cl    0.27858   0.61555   0.33891   0.00000  Uiso   1.00
Cl244  Cl    0.05476   0.38445   0.16109   0.00000  Uiso   1.00
Cl245  Cl    0.20496   0.43194   0.30867   0.00000  Uiso   1.00
Cl246  Cl    0.12837   0.56806   0.19133   0.00000  Uiso   1.00
Cl247  Cl    0.10378   0.42477   0.29793   0.00000  Uiso   1.00
Cl248  Cl    0.22955   0.57523   0.20207   0.00000  Uiso   1.00
C249   C     0.33359   0.42098   0.24996   0.00000  Uiso   1.00
C250   C     0.66641   0.57902   0.25004   0.00000  Uiso   1.00
C251   C     0.52668   0.49326   0.04920   0.00000  Uiso   1.00
C252   C     0.47332   0.50674   0.45080   0.00000  Uiso   1.00
C253   C     0.57233   0.47981   0.02824   0.00000  Uiso   1.00
C254   C     0.42767   0.52019   0.47176   0.00000  Uiso   1.00
C255   C     0.64281   0.35353   0.28879   0.00000  Uiso   1.00
C256   C     0.35719   0.64647   0.21121   0.00000  Uiso   1.00
C257   C     0.64191   0.64373   0.28910   0.00000  Uiso   1.00
C258   C     0.35809   0.35627   0.21090   0.00000  Uiso   1.00
C259   C     0.66591   0.62369   0.25018   0.00000  Uiso   1.00
C260   C     0.33409   0.37631   0.24982   0.00000  Uiso   1.00
C261   C     0.51877   0.46969   0.27365   0.00000  Uiso   1.00
C262   C     0.48123   0.53031   0.22635   0.00000  Uiso   1.00
C263   C     0.47013   0.46894   0.27246   0.00000  Uiso   1.00
C264   C     0.52987   0.53106   0.22755   0.00000  Uiso   1.00
C265   C     0.63962   0.49891   0.33644   0.00000  Uiso   1.00
C266   C     0.36038   0.50109   0.16356   0.00000  Uiso   1.00
C267   C     0.62439   0.49457   0.38679   0.00000  Uiso   1.00
C268   C     0.37561   0.50543   0.11321   0.00000  Uiso   1.00
C269   C     0.63475   0.46887   0.45979   0.00000  Uiso   1.00
C270   C     0.36525   0.53113   0.04021   0.00000  Uiso   1.00
C271   C     0.65199   0.47391   0.41294   0.00000  Uiso   1.00
C272   C     0.34801   0.52609   0.08706   0.00000  Uiso   1.00
C273   C     0.57864   0.50833   0.40903   0.00000  Uiso   1.00
C274   C     0.42137   0.49167   0.09097   0.00000  Uiso   1.00
C275   C     0.55755   0.49613   0.45478   0.00000  Uiso   1.00
C276   C     0.44245   0.50387   0.04522   0.00000  Uiso   1.00
C277   C     0.58800   0.48056   0.48108   0.00000  Uiso   1.00
C278   C     0.41200   0.51944   0.01892   0.00000  Uiso   1.00
C279   C     0.50797   0.50111   0.47586   0.00000  Uiso   1.00
C280   C     0.49203   0.49889   0.02414   0.00000  Uiso   1.00
Cu281  Cu    0.38022   0.50001   0.25000   0.00000  Uiso   1.00
Cu282  Cu    0.61978   0.49999   0.25000   0.00000  Uiso   1.00
N283   N     0.45069   0.50001   0.24999   0.00000  Uiso   1.00
N284   N     0.54931   0.49999   0.25001   0.00000  Uiso   1.00
O285   O     0.37291   0.43989   0.25000   0.00000  Uiso   1.00
O286   O     0.62709   0.56011   0.25000   0.00000  Uiso   1.00
O287   O     0.62706   0.43988   0.25001   0.00000  Uiso   1.00
O288   O     0.37294   0.56012   0.25000   0.00000  Uiso   1.00
O289   O     0.35186   0.50001   0.31492   0.00000  Uiso   1.00
O290   O     0.64814   0.49999   0.18509   0.00000  Uiso   1.00
O291   O     0.60600   0.50000   0.31492   0.00000  Uiso   1.00
O292   O     0.39400   0.50000   0.18508   0.00000  Uiso   1.00
F293   F     0.60282   0.47006   0.05418   0.00000  Uiso   1.00
F294   F     0.39718   0.52994   0.44582   0.00000  Uiso   1.00
F295   F     0.44270   0.46246   0.11268   0.00000  Uiso   1.00
F296   F     0.55730   0.53754   0.38732   0.00000  Uiso   1.00
Cl297  Cl    0.62505   0.54660   0.11051   0.00000  Uiso   1.00
Cl298  Cl    0.37495   0.45340   0.38949   0.00000  Uiso   1.00
F299   F     0.66358   0.45133   0.48422   0.00000  Uiso   1.00
F300   F     0.33642   0.54867   0.01578   0.00000  Uiso   1.00
Cl301  Cl    0.51905   0.51104   0.10410   0.00000  Uiso   1.00
Cl302  Cl    0.48095   0.48896   0.39590   0.00000  Uiso   1.00
F303   F     0.62065   0.37328   0.32661   0.00000  Uiso   1.00
F304   F     0.37935   0.62672   0.17339   0.00000  Uiso   1.00
Cl305  Cl    0.61191   0.61555   0.33891   0.00000  Uiso   1.00
Cl306  Cl    0.38809   0.38445   0.16109   0.00000  Uiso   1.00
Cl307  Cl    0.53829   0.43194   0.30867   0.00000  Uiso   1.00
Cl308  Cl    0.46171   0.56806   0.19133   0.00000  Uiso   1.00
Cl309  Cl    0.43712   0.42477   0.29793   0.00000  Uiso   1.00
Cl310  Cl    0.56288   0.57523   0.20207   0.00000  Uiso   1.00
C311   C     0.66692   0.42098   0.24996   0.00000  Uiso   1.00
C312   C     0.99975   0.57902   0.25004   0.00000  Uiso   1.00
C313   C     0.86001   0.49326   0.04920   0.00000  Uiso   1.00
C314   C     0.80666   0.50674   0.45080   0.00000  Uiso   1.00
C315   C     0.90566   0.47981   0.02824   0.00000  Uiso   1.00
C316   C     0.76100   0.52019   0.47176   0.00000  Uiso   1.00
C317   C     0.97615   0.35353   0.28879   0.00000  Uiso   1.00
C318   C     0.69052   0.64647   0.21121   0.00000  Uiso   1.00
C319   C     0.97524   0.64373   0.28910   0.00000  Uiso   1.00
C320   C     0.69142   0.35627   0.21090   0.00000  Uiso   1.00
C321   C     0.99924   0.62369   0.25018   0.00000  Uiso   1.00
C322   C     0.66743   0.37631   0.24982   0.00000  Uiso   1.00
C323   C     0.85210   0.46969   0.27365   0.00000  Uiso   1.00
C324   C     0.81457   0.53031   0.22635   0.00000  Uiso   1.00
C325   C     0.80347   0.46894   0.27246   0.00000  Uiso   1.00
C326   C     0.86320   0.53106   0.22755   0.00000  Uiso   1.00
C327   C     0.97295   0.49891   0.33644   0.00000  Uiso   1.00
C328   C     0.69371   0.50109   0.16356   0.00000  Uiso   1.00
C329   C     0.95772   0.49457   0.38679   0.00000  Uiso   1.00
C330   C     0.70895   0.50543   0.11321   0.00000  Uiso   1.00
C331   C     0.96809   0.46887   0.45979   0.00000  Uiso   1.00
C332   C     0.69858   0.53113   0.04021   0.00000  Uiso   1.00
C333   C     0.98532   0.47391   0.41294   0.00000  Uiso   1.00
C334   C     0.68134   0.52609   0.08706   0.00000  Uiso   1.00
C335   C     0.91197   0.50833   0.40903   0.00000  Uiso   1.00
C336   C     0.75470   0.49167   0.09097   0.00000  Uiso   1.00
C337   C     0.89088   0.49613   0.45478   0.00000  Uiso   1.00
C338   C     0.77578   0.50387   0.04522   0.00000  Uiso   1.00
C339   C     0.92133   0.48056   0.48108   0.00000  Uiso   1.00
C340   C     0.74534   0.51944   0.01892   0.00000  Uiso   1.00
C341   C     0.84130   0.50111   0.47586   0.00000  Uiso   1.00
C342   C     0.82537   0.49889   0.02414   0.00000  Uiso   1.00
Cu343  Cu    0.71355   0.50001   0.25000   0.00000  Uiso   1.00
Cu344  Cu    0.95311   0.49999   0.25000   0.00000  Uiso   1.00
N345   N     0.78403   0.50001   0.24999   0.00000  Uiso   1.00
N346   N     0.88264   0.49999   0.25001   0.00000  Uiso   1.00
O347   O     0.70625   0.43989   0.25000   0.00000  Uiso   1.00
O348   O     0.96042   0.56011   0.25000   0.00000  Uiso   1.00
O349   O     0.96039   0.43988   0.25001   0.00000  Uiso   1.00
O350   O     0.70628   0.56012   0.25000   0.00000  Uiso   1.00
O351   O     0.68519   0.50001   0.31492   0.00000  Uiso   1.00
O352   O     0.98148   0.49999   0.18509   0.00000  Uiso   1.00
O353   O     0.93933   0.50000   0.31492   0.00000  Uiso   1.00
O354   O     0.72733   0.50000   0.18508   0.00000  Uiso   1.00
F355   F     0.93615   0.47006   0.05418   0.00000  Uiso   1.00
F356   F     0.73051   0.52994   0.44582   0.00000  Uiso   1.00
F357   F     0.77603   0.46246   0.11268   0.00000  Uiso   1.00
F358   F     0.89064   0.53754   0.38732   0.00000  Uiso   1.00
Cl359  Cl    0.95839   0.54660   0.11051   0.00000  Uiso   1.00
Cl360  Cl    0.70828   0.45340   0.38949   0.00000  Uiso   1.00
F361   F     0.99692   0.45133   0.48422   0.00000  Uiso   1.00
F362   F     0.66975   0.54867   0.01578   0.00000  Uiso   1.00
Cl363  Cl    0.85238   0.51104   0.10410   0.00000  Uiso   1.00
Cl364  Cl    0.81429   0.48896   0.39590   0.00000  Uiso   1.00
F365   F     0.95398   0.37328   0.32661   0.00000  Uiso   1.00
F366   F     0.71269   0.62672   0.17339   0.00000  Uiso   1.00
Cl367  Cl    0.94524   0.61555   0.33891   0.00000  Uiso   1.00
Cl368  Cl    0.72142   0.38445   0.16109   0.00000  Uiso   1.00
Cl369  Cl    0.87163   0.43194   0.30867   0.00000  Uiso   1.00
Cl370  Cl    0.79504   0.56806   0.19133   0.00000  Uiso   1.00
Cl371  Cl    0.77045   0.42477   0.29793   0.00000  Uiso   1.00
Cl372  Cl    0.89622   0.57523   0.20207   0.00000  Uiso   1.00
C373   C     0.00025   0.75431   0.24996   0.00000  Uiso   1.00
C374   C     0.33308   0.91236   0.25004   0.00000  Uiso   1.00
C375   C     0.19334   0.82659   0.04920   0.00000  Uiso   1.00
C376   C     0.13999   0.84007   0.45080   0.00000  Uiso   1.00
C377   C     0.23900   0.81315   0.02824   0.00000  Uiso   1.00
C378   C     0.09434   0.85352   0.47176   0.00000  Uiso   1.00
C379   C     0.30948   0.68687   0.28879   0.00000  Uiso   1.00
C380   C     0.02385   0.97980   0.21121   0.00000  Uiso   1.00
C381   C     0.30858   0.97707   0.28910   0.00000  Uiso   1.00
C382   C     0.02476   0.68960   0.21090   0.00000  Uiso   1.00
C383   C     0.33257   0.95702   0.25018   0.00000  Uiso   1.00
C384   C     0.00076   0.70964   0.24982   0.00000  Uiso   1.00
C385   C     0.18543   0.80303   0.27365   0.00000  Uiso   1.00
C386   C     0.14790   0.86364   0.22635   0.00000  Uiso   1.00
C387   C     0.13680   0.80227   0.27246   0.00000  Uiso   1.00
C388   C     0.19653   0.86440   0.22755   0.00000  Uiso   1.00
C389   C     0.30629   0.83225   0.33644   0.00000  Uiso   1.00
C390   C     0.02705   0.83442   0.16356   0.00000  Uiso   1.00
C391   C     0.29105   0.82790   0.38679   0.00000  Uiso   1.00
C392   C     0.04228   0.83876   0.11321   0.00000  Uiso   1.00
C393   C     0.30142   0.80220   0.45979   0.00000  Uiso   1.00
C394   C     0.03191   0.86447   0.04021   0.00000  Uiso   1.00
C395   C     0.31866   0.80725   0.41294   0.00000  Uiso   1.00
C396   C     0.01468   0.85942   0.08706   0.00000  Uiso   1.00
C397   C     0.24530   0.84166   0.40903   0.00000  Uiso   1.00
C398   C     0.08803   0.82500   0.09097   0.00000  Uiso   1.00
C399   C     0.22422   0.82946   0.45478   0.00000  Uiso   1.00
C400   C     0.10912   0.83720   0.04522   0.00000  Uiso   1.00
C401   C     0.25466   0.81390   0.48108   0.00000  Uiso   1.00
C402   C     0.07867   0.85277   0.01892   0.00000  Uiso   1.00
C403   C     0.17464   0.83444   0.47586   0.00000  Uiso   1.00
C404   C     0.15870   0.83223   0.02414   0.00000  Uiso   1.00
Cu405  Cu    0.04689   0.83334   0.25000   0.00000  Uiso   1.00
Cu406  Cu    0.28645   0.83333   0.25000   0.00000  Uiso   1.00
N407   N     0.11736   0.83334   0.24999   0.00000  Uiso   1.00
N408   N     0.21597   0.83332   0.25001   0.00000  Uiso   1.00
O409   O     0.03958   0.77322   0.25000   0.00000  Uiso   1.00
O410   O     0.29375   0.89345   0.25000   0.00000  Uiso   1.00
O411   O     0.29372   0.77321   0.25001   0.00000  Uiso   1.00
O412   O     0.03961   0.89346   0.25000   0.00000  Uiso   1.00
O413   O     0.01852   0.83334   0.31492   0.00000  Uiso   1.00
O414   O     0.31481   0.83332   0.18509   0.00000  Uiso   1.00
O415   O     0.27267   0.83333   0.31492   0.00000  Uiso   1.00
O416   O     0.06067   0.83333   0.18508   0.00000  Uiso   1.00
F417   F     0.26949   0.80339   0.05418   0.00000  Uiso   1.00
F418   F     0.06385   0.86328   0.44582   0.00000  Uiso   1.00
F419   F     0.10936   0.79579   0.11268   0.00000  Uiso   1.00
F420   F     0.22397   0.87088   0.38732   0.00000  Uiso   1.00
Cl421  Cl    0.29172   0.87993   0.11051   0.00000  Uiso   1.00
Cl422  Cl    0.04161   0.78673   0.38949   0.00000  Uiso   1.00
F423   F     0.33025   0.78467   0.48422   0.00000  Uiso   1.00
F424   F     0.00309   0.88200   0.01578   0.00000  Uiso   1.00
Cl425  Cl    0.18571   0.84437   0.10410   0.00000  Uiso   1.00
Cl426  Cl    0.14762   0.82230   0.39590   0.00000  Uiso   1.00
F427   F     0.28731   0.70661   0.32661   0.00000  Uiso   1.00
F428   F     0.04602   0.96006   0.17339   0.00000  Uiso   1.00
Cl429  Cl    0.27858   0.94889   0.33891   0.00000  Uiso   1.00
Cl430  Cl    0.05476   0.71778   0.16109   0.00000  Uiso   1.00
Cl431  Cl    0.20496   0.76527   0.30867   0.00000  Uiso   1.00
Cl432  Cl    0.12837   0.90139   0.19133   0.00000  Uiso   1.00
Cl433  Cl    0.10378   0.75810   0.29793   0.00000  Uiso   1.00
Cl434  Cl    0.22955   0.90856   0.20207   0.00000  Uiso   1.00
C435   C     0.33359   0.75431   0.24996   0.00000  Uiso   1.00
C436   C     0.66641   0.91236   0.25004   0.00000  Uiso   1.00
C437   C     0.52668   0.82659   0.04920   0.00000  Uiso   1.00
C438   C     0.47332   0.84007   0.45080   0.00000  Uiso   1.00
C439   C     0.57233   0.81315   0.02824   0.00000  Uiso   1.00
C440   C     0.42767   0.85352   0.47176   0.00000  Uiso   1.00
C441   C     0.64281   0.68687   0.28879   0.00000  Uiso   1.00
C442   C     0.35719   0.97980   0.21121   0.00000  Uiso   1.00
C443   C     0.64191   0.97707   0.28910   0.00000  Uiso   1.00
C444   C     0.35809   0.68960   0.21090   0.00000  Uiso   1.00
C445   C     0.66591   0.95702   0.25018   0.00000  Uiso   1.00
C446   C     0.33409   0.70964   0.24982   0.00000  Uiso   1.00
C447   C     0.51877   0.80303   0.27365   0.00000  Uiso   1.00
C448   C     0.48123   0.86364   0.22635   0.00000  Uiso   1.00
C449   C     0.47013   0.80227   0.27246   0.00000  Uiso   1.00
C450   C     0.52987   0.86440   0.22755   0.00000  Uiso   1.00
C451   C     0.63962   0.83225   0.33644   0.00000  Uiso   1.00
C452   C     0.36038   0.83442   0.16356   0.00000  Uiso   1.00
C453   C     0.62439   0.82790   0.38679   0.00000  Uiso   1.00
C454   C     0.37561   0.83876   0.11321   0.00000  Uiso   1.00
C455   C     0.63475   0.80220   0.45979   0.00000  Uiso   1.00
C456   C     0.36525   0.86447   0.04021   0.00000  Uiso   1.00
C457   C     0.65199   0.80725   0.41294   0.00000  Uiso   1.00
C458   C     0.34801   0.85942   0.08706   0.00000  Uiso   1.00
C459   C     0.57864   0.84166   0.40903   0.00000  Uiso   1.00
C460   C     0.42137   0.82500   0.09097   0.00000  Uiso   1.00
C461   C     0.55755   0.82946   0.45478   0.00000  Uiso   1.00
C462   C     0.44245   0.83720   0.04522   0.00000  Uiso   1.00
C463   C     0.58800   0.81390   0.48108   0.00000  Uiso   1.00
C464   C     0.41200   0.85277   0.01892   0.00000  Uiso   1.00
C465   C     0.50797   0.83444   0.47586   0.00000  Uiso   1.00
C466   C     0.49203   0.83223   0.02414   0.00000  Uiso   1.00
Cu467  Cu    0.38022   0.83334   0.25000   0.00000  Uiso   1.00
Cu468  Cu    0.61978   0.83333   0.25000   0.00000  Uiso   1.00
N469   N     0.45069   0.83334   0.24999   0.00000  Uiso   1.00
N470   N     0.54931   0.83332   0.25001   0.00000  Uiso   1.00
O471   O     0.37291   0.77322   0.25000   0.00000  Uiso   1.00
O472   O     0.62709   0.89345   0.25000   0.00000  Uiso   1.00
O473   O     0.62706   0.77321   0.25001   0.00000  Uiso   1.00
O474   O     0.37294   0.89346   0.25000   0.00000  Uiso   1.00
O475   O     0.35186   0.83334   0.31492   0.00000  Uiso   1.00
O476   O     0.64814   0.83332   0.18509   0.00000  Uiso   1.00
O477   O     0.60600   0.83333   0.31492   0.00000  Uiso   1.00
O478   O     0.39400   0.83333   0.18508   0.00000  Uiso   1.00
F479   F     0.60282   0.80339   0.05418   0.00000  Uiso   1.00
F480   F     0.39718   0.86328   0.44582   0.00000  Uiso   1.00
F481   F     0.44270   0.79579   0.11268   0.00000  Uiso   1.00
F482   F     0.55730   0.87088   0.38732   0.00000  Uiso   1.00
Cl483  Cl    0.62505   0.87993   0.11051   0.00000  Uiso   1.00
Cl484  Cl    0.37495   0.78673   0.38949   0.00000  Uiso   1.00
F485   F     0.66358   0.78467   0.48422   0.00000  Uiso   1.00
F486   F     0.33642   0.88200   0.01578   0.00000  Uiso   1.00
Cl487  Cl    0.51905   0.84437   0.10410   0.00000  Uiso   1.00
Cl488  Cl    0.48095   0.82230   0.39590   0.00000  Uiso   1.00
F489   F     0.62065   0.70661   0.32661   0.00000  Uiso   1.00
F490   F     0.37935   0.96006   0.17339   0.00000  Uiso   1.00
Cl491  Cl    0.61191   0.94889   0.33891   0.00000  Uiso   1.00
Cl492  Cl    0.38809   0.71778   0.16109   0.00000  Uiso   1.00
Cl493  Cl    0.53829   0.76527   0.30867   0.00000  Uiso   1.00
Cl494  Cl    0.46171   0.90139   0.19133   0.00000  Uiso   1.00
Cl495  Cl    0.43712   0.75810   0.29793   0.00000  Uiso   1.00
Cl496  Cl    0.56288   0.90856   0.20207   0.00000  Uiso   1.00
C497   C     0.66692   0.75431   0.24996   0.00000  Uiso   1.00
C498   C     0.99975   0.91236   0.25004   0.00000  Uiso   1.00
C499   C     0.86001   0.82659   0.04920   0.00000  Uiso   1.00
C500   C     0.80666   0.84007   0.45080   0.00000  Uiso   1.00
C501   C     0.90566   0.81315   0.02824   0.00000  Uiso   1.00
C502   C     0.76100   0.85352   0.47176   0.00000  Uiso   1.00
C503   C     0.97615   0.68687   0.28879   0.00000  Uiso   1.00
C504   C     0.69052   0.97980   0.21121   0.00000  Uiso   1.00
C505   C     0.97524   0.97707   0.28910   0.00000  Uiso   1.00
C506   C     0.69142   0.68960   0.21090   0.00000  Uiso   1.00
C507   C     0.99924   0.95702   0.25018   0.00000  Uiso   1.00
C508   C     0.66743   0.70964   0.24982   0.00000  Uiso   1.00
C509   C     0.85210   0.80303   0.27365   0.00000  Uiso   1.00
C510   C     0.81457   0.86364   0.22635   0.00000  Uiso   1.00
C511   C     0.80347   0.80227   0.27246   0.00000  Uiso   1.00
C512   C     0.86320   0.86440   0.22755   0.00000  Uiso   1.00
C513   C     0.97295   0.83225   0.33644   0.00000  Uiso   1.00
C514   C     0.69371   0.83442   0.16356   0.00000  Uiso   1.00
C515   C     0.95772   0.82790   0.38679   0.00000  Uiso   1.00
C516   C     0.70895   0.83876   0.11321   0.00000  Uiso   1.00
C517   C     0.96809   0.80220   0.45979   0.00000  Uiso   1.00
C518   C     0.69858   0.86447   0.04021   0.00000  Uiso   1.00
C519   C     0.98532   0.80725   0.41294   0.00000  Uiso   1.00
C520   C     0.68134   0.85942   0.08706   0.00000  Uiso   1.00
C521   C     0.91197   0.84166   0.40903   0.00000  Uiso   1.00
C522   C     0.75470   0.82500   0.09097   0.00000  Uiso   1.00
C523   C     0.89088   0.82946   0.45478   0.00000  Uiso   1.00
C524   C     0.77578   0.83720   0.04522   0.00000  Uiso   1.00
C525   C     0.92133   0.81390   0.48108   0.00000  Uiso   1.00
C526   C     0.74534   0.85277   0.01892   0.00000  Uiso   1.00
C527   C     0.84130   0.83444   0.47586   0.00000  Uiso   1.00
C528   C     0.82537   0.83223   0.02414   0.00000  Uiso   1.00
Cu529  Cu    0.71355   0.83334   0.25000   0.00000  Uiso   1.00
Cu530  Cu    0.95311   0.83333   0.25000   0.00000  Uiso   1.00
N531   N     0.78403   0.83334   0.24999   0.00000  Uiso   1.00
N532   N     0.88264   0.83332   0.25001   0.00000  Uiso   1.00
O533   O     0.70625   0.77322   0.25000   0.00000  Uiso   1.00
O534   O     0.96042   0.89345   0.25000   0.00000  Uiso   1.00
O535   O     0.96039   0.77321   0.25001   0.00000  Uiso   1.00
O536   O     0.70628   0.89346   0.25000   0.00000  Uiso   1.00
O537   O     0.68519   0.83334   0.31492   0.00000  Uiso   1.00
O538   O     0.98148   0.83332   0.18509   0.00000  Uiso   1.00
O539   O     0.93933   0.83333   0.31492   0.00000  Uiso   1.00
O540   O     0.72733   0.83333   0.18508   0.00000  Uiso   1.00
F541   F     0.93615   0.80339   0.05418   0.00000  Uiso   1.00
F542   F     0.73051   0.86328   0.44582   0.00000  Uiso   1.00
F543   F     0.77603   0.79579   0.11268   0.00000  Uiso   1.00
F544   F     0.89064   0.87088   0.38732   0.00000  Uiso   1.00
Cl545  Cl    0.95839   0.87993   0.11051   0.00000  Uiso   1.00
Cl546  Cl    0.70828   0.78673   0.38949   0.00000  Uiso   1.00
F547   F     0.99692   0.78467   0.48422   0.00000  Uiso   1.00
F548   F     0.66975   0.88200   0.01578   0.00000  Uiso   1.00
Cl549  Cl    0.85238   0.84437   0.10410   0.00000  Uiso   1.00
Cl550  Cl    0.81429   0.82230   0.39590   0.00000  Uiso   1.00
F551   F     0.95398   0.70661   0.32661   0.00000  Uiso   1.00
F552   F     0.71269   0.96006   0.17339   0.00000  Uiso   1.00
Cl553  Cl    0.94524   0.94889   0.33891   0.00000  Uiso   1.00
Cl554  Cl    0.72142   0.71778   0.16109   0.00000  Uiso   1.00
Cl555  Cl    0.87163   0.76527   0.30867   0.00000  Uiso   1.00
Cl556  Cl    0.79504   0.90139   0.19133   0.00000  Uiso   1.00
Cl557  Cl    0.77045   0.75810   0.29793   0.00000  Uiso   1.00
Cl558  Cl    0.89622   0.90856   0.20207   0.00000  Uiso   1.00
C559   C     0.00025   0.08764   0.74996   0.00000  Uiso   1.00
C560   C     0.33308   0.24569   0.75004   0.00000  Uiso   1.00
C561   C     0.19334   0.15993   0.54920   0.00000  Uiso   1.00
C562   C     0.13999   0.17341   0.95080   0.00000  Uiso   1.00
C563   C     0.23900   0.14648   0.52824   0.00000  Uiso   1.00
C564   C     0.09434   0.18685   0.97176   0.00000  Uiso   1.00
C565   C     0.30948   0.02020   0.78879   0.00000  Uiso   1.00
C566   C     0.02385   0.31313   0.71121   0.00000  Uiso   1.00
C567   C     0.30858   0.31040   0.78910   0.00000  Uiso   1.00
C568   C     0.02476   0.02293   0.71090   0.00000  Uiso   1.00
C569   C     0.33257   0.29036   0.75018   0.00000  Uiso   1.00
C570   C     0.00076   0.04298   0.74982   0.00000  Uiso   1.00
C571   C     0.18543   0.13636   0.77365   0.00000  Uiso   1.00
C572   C     0.14790   0.19697   0.72635   0.00000  Uiso   1.00
C573   C     0.13680   0.13560   0.77246   0.00000  Uiso   1.00
C574   C     0.19653   0.19773   0.72755   0.00000  Uiso   1.00
C575   C     0.30629   0.16558   0.83644   0.00000  Uiso   1.00
C576   C     0.02705   0.16775   0.66356   0.00000  Uiso   1.00
C577   C     0.29105   0.16124   0.88679   0.00000  Uiso   1.00
C578   C     0.04228   0.17210   0.61321   0.00000  Uiso   1.00
C579   C     0.30142   0.13553   0.95979   0.00000  Uiso   1.00
C580   C     0.03191   0.19780   0.54021   0.00000  Uiso   1.00
C581   C     0.31866   0.14058   0.91294   0.00000  Uiso   1.00
C582   C     0.01468   0.19275   0.58706   0.00000  Uiso   1.00
C583   C     0.24530   0.17500   0.90903   0.00000  Uiso   1.00
C584   C     0.08803   0.15834   0.59097   0.00000  Uiso   1.00
C585   C     0.22422   0.16280   0.95478   0.00000  Uiso   1.00
C586   C     0.10912   0.17054   0.54522   0.00000  Uiso   1.00
C587   C     0.25466   0.14723   0.98108   0.00000  Uiso   1.00
C588   C     0.07867   0.18610   0.51892   0.00000  Uiso   1.00
C589   C     0.17464   0.16777   0.97586   0.00000  Uiso   1.00
C590   C     0.15870   0.16556   0.52414   0.00000  Uiso   1.00
Cu591  Cu    0.04689   0.16667   0.75000   0.00000  Uiso   1.00
Cu592  Cu    0.28645   0.16666   0.75000   0.00000  Uiso   1.00
N593   N     0.11736   0.16668   0.74999   0.00000  Uiso   1.00
N594   N     0.21597   0.16666   0.75001   0.00000  Uiso   1.00
O595   O     0.03958   0.10655   0.75000   0.00000  Uiso   1.00
O596   O     0.29375   0.22678   0.75000   0.00000  Uiso   1.00
O597   O     0.29372   0.10654   0.75001   0.00000  Uiso   1.00
O598   O     0.03961   0.22679   0.75000   0.00000  Uiso   1.00
O599   O     0.01852   0.16668   0.81492   0.00000  Uiso   1.00
O600   O     0.31481   0.16666   0.68509   0.00000  Uiso   1.00
O601   O     0.27267   0.16667   0.81492   0.00000  Uiso   1.00
O602   O     0.06067   0.16667   0.68508   0.00000  Uiso   1.00
F603   F     0.26949   0.13672   0.55418   0.00000  Uiso   1.00
F604   F     0.06385   0.19661   0.94582   0.00000  Uiso   1.00
F605   F     0.10936   0.12912   0.61268   0.00000  Uiso   1.00
F606   F     0.22397   0.20421   0.88732   0.00000  Uiso   1.00
Cl607  Cl    0.29172   0.21327   0.61051   0.00000  Uiso   1.00
Cl608  Cl    0.04161   0.12007   0.88949   0.00000  Uiso   1.00
F609   F     0.33025   0.11800   0.98422   0.00000  Uiso   1.00
F610   F     0.00309   0.21533   0.51578   0.00000  Uiso   1.00
Cl611  Cl    0.18571   0.17770   0.60410   0.00000  Uiso   1.00
Cl612  Cl    0.14762   0.15563   0.89590   0.00000  Uiso   1.00
F613   F     0.28731   0.03994   0.82661   0.00000  Uiso   1.00
F614   F     0.04602   0.29339   0.67339   0.00000  Uiso   1.00
Cl615  Cl    0.27858   0.28222   0.83891   0.00000  Uiso   1.00
Cl616  Cl    0.05476   0.05111   0.66109   0.00000  Uiso   1.00
Cl617  Cl    0.20496   0.09861   0.80867   0.00000  Uiso   1.00
Cl618  Cl    0.12837   0.23473   0.69133   0.00000  Uiso   1.00
Cl619  Cl    0.10378   0.09144   0.79793   0.00000  Uiso   1.00
Cl620  Cl    0.22955   0.24190   0.70207   0.00000  Uiso   1.00
C621   C     0.33359   0.08764   0.74996   0.00000  Uiso   1.00
C622   C     0.66641   0.24569   0.75004   0.00000  Uiso   1.00
C623   C     0.52668   0.15993   0.54920   0.00000  Uiso   1.00
C624   C     0.47332   0.17341   0.95080   0.00000  Uiso   1.00
C625   C     0.57233   0.14648   0.52824   0.00000  Uiso   1.00
C626   C     0.42767   0.18685   0.97176   0.00000  Uiso   1.00
C627   C     0.64281   0.02020   0.78879   0.00000  Uiso   1.00
C628   C     0.35719   0.31313   0.71121   0.00000  Uiso   1.00
C629   C     0.64191   0.31040   0.78910   0.00000  Uiso   1.00
C630   C     0.35809   0.02293   0.71090   0.00000  Uiso   1.00
C631   C     0.66591   0.29036   0.75018   0.00000  Uiso   1.00
C632   C     0.33409   0.04298   0.74982   0.00000  Uiso   1.00
C633   C     0.51877   0.13636   0.77365   0.00000  Uiso   1.00
C634   C     0.48123   0.19697   0.72635   0.00000  Uiso   1.00
C635   C     0.47013   0.13560   0.77246   0.00000  Uiso   1.00
C636   C     0.52987   0.19773   0.72755   0.00000  Uiso   1.00
C637   C     0.63962   0.16558   0.83644   0.00000  Uiso   1.00
C638   C     0.36038   0.16775   0.66356   0.00000  Uiso   1.00
C639   C     0.62439   0.16124   0.88679   0.00000  Uiso   1.00
C640   C     0.37561   0.17210   0.61321   0.00000  Uiso   1.00
C641   C     0.63475   0.13553   0.95979   0.00000  Uiso   1.00
C642   C     0.36525   0.19780   0.54021   0.00000  Uiso   1.00
C643   C     0.65199   0.14058   0.91294   0.00000  Uiso   1.00
C644   C     0.34801   0.19275   0.58706   0.00000  Uiso   1.00
C645   C     0.57864   0.17500   0.90903   0.00000  Uiso   1.00
C646   C     0.42137   0.15834   0.59097   0.00000  Uiso   1.00
C647   C     0.55755   0.16280   0.95478   0.00000  Uiso   1.00
C648   C     0.44245   0.17054   0.54522   0.00000  Uiso   1.00
C649   C     0.58800   0.14723   0.98108   0.00000  Uiso   1.00
C650   C     0.41200   0.18610   0.51892   0.00000  Uiso   1.00
C651   C     0.50797   0.16777   0.97586   0.00000  Uiso   1.00
C652   C     0.49203   0.16556   0.52414   0.00000  Uiso   1.00
Cu653  Cu    0.38022   0.16667   0.75000   0.00000  Uiso   1.00
Cu654  Cu    0.61978   0.16666   0.75000   0.00000  Uiso   1.00
N655   N     0.45069   0.16668   0.74999   0.00000  Uiso   1.00
N656   N     0.54931   0.16666   0.75001   0.00000  Uiso   1.00
O657   O     0.37291   0.10655   0.75000   0.00000  Uiso   1.00
O658   O     0.62709   0.22678   0.75000   0.00000  Uiso   1.00
O659   O     0.62706   0.10654   0.75001   0.00000  Uiso   1.00
O660   O     0.37294   0.22679   0.75000   0.00000  Uiso   1.00
O661   O     0.35186   0.16668   0.81492   0.00000  Uiso   1.00
O662   O     0.64814   0.16666   0.68509   0.00000  Uiso   1.00
O663   O     0.60600   0.16667   0.81492   0.00000  Uiso   1.00
O664   O     0.39400   0.16667   0.68508   0.00000  Uiso   1.00
F665   F     0.60282   0.13672   0.55418   0.00000  Uiso   1.00
F666   F     0.39718   0.19661   0.94582   0.00000  Uiso   1.00
F667   F     0.44270   0.12912   0.61268   0.00000  Uiso   1.00
F668   F     0.55730   0.20421   0.88732   0.00000  Uiso   1.00
Cl669  Cl    0.62505   0.21327   0.61051   0.00000  Uiso   1.00
Cl670  Cl    0.37495   0.12007   0.88949   0.00000  Uiso   1.00
F671   F     0.66358   0.11800   0.98422   0.00000  Uiso   1.00
F672   F     0.33642   0.21533   0.51578   0.00000  Uiso   1.00
Cl673  Cl    0.51905   0.17770   0.60410   0.00000  Uiso   1.00
Cl674  Cl    0.48095   0.15563   0.89590   0.00000  Uiso   1.00
F675   F     0.62065   0.03994   0.82661   0.00000  Uiso   1.00
F676   F     0.37935   0.29339   0.67339   0.00000  Uiso   1.00
Cl677  Cl    0.61191   0.28222   0.83891   0.00000  Uiso   1.00
Cl678  Cl    0.38809   0.05111   0.66109   0.00000  Uiso   1.00
Cl679  Cl    0.53829   0.09861   0.80867   0.00000  Uiso   1.00
Cl680  Cl    0.46171   0.23473   0.69133   0.00000  Uiso   1.00
Cl681  Cl    0.43712   0.09144   0.79793   0.00000  Uiso   1.00
Cl682  Cl    0.56288   0.24190   0.70207   0.00000  Uiso   1.00
C683   C     0.66692   0.08764   0.74996   0.00000  Uiso   1.00
C684   C     0.99975   0.24569   0.75004   0.00000  Uiso   1.00
C685   C     0.86001   0.15993   0.54920   0.00000  Uiso   1.00
C686   C     0.80666   0.17341   0.95080   0.00000  Uiso   1.00
C687   C     0.90566   0.14648   0.52824   0.00000  Uiso   1.00
C688   C     0.76100   0.18685   0.97176   0.00000  Uiso   1.00
C689   C     0.97615   0.02020   0.78879   0.00000  Uiso   1.00
C690   C     0.69052   0.31313   0.71121   0.00000  Uiso   1.00
C691   C     0.97524   0.31040   0.78910   0.00000  Uiso   1.00
C692   C     0.69142   0.02293   0.71090   0.00000  Uiso   1.00
C693   C     0.99924   0.29036   0.75018   0.00000  Uiso   1.00
C694   C     0.66743   0.04298   0.74982   0.00000  Uiso   1.00
C695   C     0.85210   0.13636   0.77365   0.00000  Uiso   1.00
C696   C     0.81457   0.19697   0.72635   0.00000  Uiso   1.00
C697   C     0.80347   0.13560   0.77246   0.00000  Uiso   1.00
C698   C     0.86320   0.19773   0.72755   0.00000  Uiso   1.00
C699   C     0.97295   0.16558   0.83644   0.00000  Uiso   1.00
C700   C     0.69371   0.16775   0.66356   0.00000  Uiso   1.00
C701   C     0.95772   0.16124   0.88679   0.00000  Uiso   1.00
C702   C     0.70895   0.17210   0.61321   0.00000  Uiso   1.00
C703   C     0.96809   0.13553   0.95979   0.00000  Uiso   1.00
C704   C     0.69858   0.19780   0.54021   0.00000  Uiso   1.00
C705   C     0.98532   0.14058   0.91294   0.00000  Uiso   1.00
C706   C     0.68134   0.19275   0.58706   0.00000  Uiso   1.00
C707   C     0.91197   0.17500   0.90903   0.00000  Uiso   1.00
C708   C     0.75470   0.15834   0.59097   0.00000  Uiso   1.00
C709   C     0.89088   0.16280   0.95478   0.00000  Uiso   1.00
C710   C     0.77578   0.17054   0.54522   0.00000  Uiso   1.00
C711   C     0.92133   0.14723   0.98108   0.00000  Uiso   1.00
C712   C     0.74534   0.18610   0.51892   0.00000  Uiso   1.00
C713   C     0.84130   0.16777   0.97586   0.00000  Uiso   1.00
C714   C     0.82537   0.16556   0.52414   0.00000  Uiso   1.00
Cu715  Cu    0.71355   0.16667   0.75000   0.00000  Uiso   1.00
Cu716  Cu    0.95311   0.16666   0.75000   0.00000  Uiso   1.00
N717   N     0.78403   0.16668   0.74999   0.00000  Uiso   1.00
N718   N     0.88264   0.16666   0.75001   0.00000  Uiso   1.00
O719   O     0.70625   0.10655   0.75000   0.00000  Uiso   1.00
O720   O     0.96042   0.22678   0.75000   0.00000  Uiso   1.00
O721   O     0.96039   0.10654   0.75001   0.00000  Uiso   1.00
O722   O     0.70628   0.22679   0.75000   0.00000  Uiso   1.00
O723   O     0.68519   0.16668   0.81492   0.00000  Uiso   1.00
O724   O     0.98148   0.16666   0.68509   0.00000  Uiso   1.00
O725   O     0.93933   0.16667   0.81492   0.00000  Uiso   1.00
O726   O     0.72733   0.16667   0.68508   0.00000  Uiso   1.00
F727   F     0.93615   0.13672   0.55418   0.00000  Uiso   1.00
F728   F     0.73051   0.19661   0.94582   0.00000  Uiso   1.00
F729   F     0.77603   0.12912   0.61268   0.00000  Uiso   1.00
F730   F     0.89064   0.20421   0.88732   0.00000  Uiso   1.00
Cl731  Cl    0.95839   0.21327   0.61051   0.00000  Uiso   1.00
Cl732  Cl    0.70828   0.12007   0.88949   0.00000  Uiso   1.00
F733   F     0.99692   0.11800   0.98422   0.00000  Uiso   1.00
F734   F     0.66975   0.21533   0.51578   0.00000  Uiso   1.00
Cl735  Cl    0.85238   0.17770   0.60410   0.00000  Uiso   1.00
Cl736  Cl    0.81429   0.15563   0.89590   0.00000  Uiso   1.00
F737   F     0.95398   0.03994   0.82661   0.00000  Uiso   1.00
F738   F     0.71269   0.29339   0.67339   0.00000  Uiso   1.00
Cl739  Cl    0.94524   0.28222   0.83891   0.00000  Uiso   1.00
Cl740  Cl    0.72142   0.05111   0.66109   0.00000  Uiso   1.00
Cl741  Cl    0.87163   0.09861   0.80867   0.00000  Uiso   1.00
Cl742  Cl    0.79504   0.23473   0.69133   0.00000  Uiso   1.00
Cl743  Cl    0.77045   0.09144   0.79793   0.00000  Uiso   1.00
Cl744  Cl    0.89622   0.24190   0.70207   0.00000  Uiso   1.00
C745   C     0.00025   0.42098   0.74996   0.00000  Uiso   1.00
C746   C     0.33308   0.57902   0.75004   0.00000  Uiso   1.00
C747   C     0.19334   0.49326   0.54920   0.00000  Uiso   1.00
C748   C     0.13999   0.50674   0.95080   0.00000  Uiso   1.00
C749   C     0.23900   0.47981   0.52824   0.00000  Uiso   1.00
C750   C     0.09434   0.52019   0.97176   0.00000  Uiso   1.00
C751   C     0.30948   0.35353   0.78879   0.00000  Uiso   1.00
C752   C     0.02385   0.64647   0.71121   0.00000  Uiso   1.00
C753   C     0.30858   0.64373   0.78910   0.00000  Uiso   1.00
C754   C     0.02476   0.35627   0.71090   0.00000  Uiso   1.00
C755   C     0.33257   0.62369   0.75018   0.00000  Uiso   1.00
C756   C     0.00076   0.37631   0.74982   0.00000  Uiso   1.00
C757   C     0.18543   0.46969   0.77365   0.00000  Uiso   1.00
C758   C     0.14790   0.53031   0.72635   0.00000  Uiso   1.00
C759   C     0.13680   0.46894   0.77246   0.00000  Uiso   1.00
C760   C     0.19653   0.53106   0.72755   0.00000  Uiso   1.00
C761   C     0.30629   0.49891   0.83644   0.00000  Uiso   1.00
C762   C     0.02705   0.50109   0.66356   0.00000  Uiso   1.00
C763   C     0.29105   0.49457   0.88679   0.00000  Uiso   1.00
C764   C     0.04228   0.50543   0.61321   0.00000  Uiso   1.00
C765   C     0.30142   0.46887   0.95979   0.00000  Uiso   1.00
C766   C     0.03191   0.53113   0.54021   0.00000  Uiso   1.00
C767   C     0.31866   0.47391   0.91294   0.00000  Uiso   1.00
C768   C     0.01468   0.52609   0.58706   0.00000  Uiso   1.00
C769   C     0.24530   0.50833   0.90903   0.00000  Uiso   1.00
C770   C     0.08803   0.49167   0.59097   0.00000  Uiso   1.00
C771   C     0.22422   0.49613   0.95478   0.00000  Uiso   1.00
C772   C     0.10912   0.50387   0.54522   0.00000  Uiso   1.00
C773   C     0.25466   0.48056   0.98108   0.00000  Uiso   1.00
C774   C     0.07867   0.51944   0.51892   0.00000  Uiso   1.00
C775   C     0.17464   0.50111   0.97586   0.00000  Uiso   1.00
C776   C     0.15870   0.49889   0.52414   0.00000  Uiso   1.00
Cu777  Cu    0.04689   0.50001   0.75000   0.00000  Uiso   1.00
Cu778  Cu    0.28645   0.49999   0.75000   0.00000  Uiso   1.00
N779   N     0.11736   0.50001   0.74999   0.00000  Uiso   1.00
N780   N     0.21597   0.49999   0.75001   0.00000  Uiso   1.00
O781   O     0.03958   0.43989   0.75000   0.00000  Uiso   1.00
O782   O     0.29375   0.56011   0.75000   0.00000  Uiso   1.00
O783   O     0.29372   0.43988   0.75001   0.00000  Uiso   1.00
O784   O     0.03961   0.56012   0.75000   0.00000  Uiso   1.00
O785   O     0.01852   0.50001   0.81492   0.00000  Uiso   1.00
O786   O     0.31481   0.49999   0.68509   0.00000  Uiso   1.00
O787   O     0.27267   0.50000   0.81492   0.00000  Uiso   1.00
O788   O     0.06067   0.50000   0.68508   0.00000  Uiso   1.00
F789   F     0.26949   0.47006   0.55418   0.00000  Uiso   1.00
F790   F     0.06385   0.52994   0.94582   0.00000  Uiso   1.00
F791   F     0.10936   0.46246   0.61268   0.00000  Uiso   1.00
F792   F     0.22397   0.53754   0.88732   0.00000  Uiso   1.00
Cl793  Cl    0.29172   0.54660   0.61051   0.00000  Uiso   1.00
Cl794  Cl    0.04161   0.45340   0.88949   0.00000  Uiso   1.00
F795   F     0.33025   0.45133   0.98422   0.00000  Uiso   1.00
F796   F     0.00309   0.54867   0.51578   0.00000  Uiso   1.00
Cl797  Cl    0.18571   0.51104   0.60410   0.00000  Uiso   1.00
Cl798  Cl    0.14762   0.48896   0.89590   0.00000  Uiso   1.00
F799   F     0.28731   0.37328   0.82661   0.00000  Uiso   1.00
F800   F     0.04602   0.62672   0.67339   0.00000  Uiso   1.00
Cl801  Cl    0.27858   0.61555   0.83891   0.00000  Uiso   1.00
Cl802  Cl    0.05476   0.38445   0.66109   0.00000  Uiso   1.00
Cl803  Cl    0.20496   0.43194   0.80867   0.00000  Uiso   1.00
Cl804  Cl    0.12837   0.56806   0.69133   0.00000  Uiso   1.00
Cl805  Cl    0.10378   0.42477   0.79793   0.00000  Uiso   1.00
Cl806  Cl    0.22955   0.57523   0.70207   0.00000  Uiso   1.00
C807   C     0.33359   0.42098   0.74996   0.00000  Uiso   1.00
C808   C     0.66641   0.57902   0.75004   0.00000  Uiso   1.00
C809   C     0.52668   0.49326   0.54920   0.00000  Uiso   1.00
C810   C     0.47332   0.50674   0.95080   0.00000  Uiso   1.00
C811   C     0.57233   0.47981   0.52824   0.00000  Uiso   1.00
C812   C     0.42767   0.52019   0.97176   0.00000  Uiso   1.00
C813   C     0.64281   0.35353   0.78879   0.00000  Uiso   1.00
C814   C     0.35719   0.64647   0.71121   0.00000  Uiso   1.00
C815   C     0.64191   0.64373   0.78910   0.00000  Uiso   1.00
C816   C     0.35809   0.35627   0.71090   0.00000  Uiso   1.00
C817   C     0.66591   0.62369   0.75018   0.00000  Uiso   1.00
C818   C     0.33409   0.37631   0.74982   0.00000  Uiso   1.00
C819   C     0.51877   0.46969   0.77365   0.00000  Uiso   1.00
C820   C     0.48123   0.53031   0.72635   0.00000  Uiso   1.00
C821   C     0.47013   0.46894   0.77246   0.00000  Uiso   1.00
C822   C     0.52987   0.53106   0.72755   0.00000  Uiso   1.00
C823   C     0.63962   0.49891   0.83644   0.00000  Uiso   1.00
C824   C     0.36038   0.50109   0.66356   0.00000  Uiso   1.00
C825   C     0.62439   0.49457   0.88679   0.00000  Uiso   1.00
C826   C     0.37561   0.50543   0.61321   0.00000  Uiso   1.00
C827   C     0.63475   0.46887   0.95979   0.00000  Uiso   1.00
C828   C     0.36525   0.53113   0.54021   0.00000  Uiso   1.00
C829   C     0.65199   0.47391   0.91294   0.00000  Uiso   1.00
C830   C     0.34801   0.52609   0.58706   0.00000  Uiso   1.00
C831   C     0.57864   0.50833   0.90903   0.00000  Uiso   1.00
C832   C     0.42137   0.49167   0.59097   0.00000  Uiso   1.00
C833   C     0.55755   0.49613   0.95478   0.00000  Uiso   1.00
C834   C     0.44245   0.50387   0.54522   0.00000  Uiso   1.00
C835   C     0.58800   0.48056   0.98108   0.00000  Uiso   1.00
C836   C     0.41200   0.51944   0.51892   0.00000  Uiso   1.00
C837   C     0.50797   0.50111   0.97586   0.00000  Uiso   1.00
C838   C     0.49203   0.49889   0.52414   0.00000  Uiso   1.00
Cu839  Cu    0.38022   0.50001   0.75000   0.00000  Uiso   1.00
Cu840  Cu    0.61978   0.49999   0.75000   0.00000  Uiso   1.00
N841   N     0.45069   0.50001   0.74999   0.00000  Uiso   1.00
N842   N     0.54931   0.49999   0.75001   0.00000  Uiso   1.00
O843   O     0.37291   0.43989   0.75000   0.00000  Uiso   1.00
O844   O     0.62709   0.56011   0.75000   0.00000  Uiso   1.00
O845   O     0.62706   0.43988   0.75001   0.00000  Uiso   1.00
O846   O     0.37294   0.56012   0.75000   0.00000  Uiso   1.00
O847   O     0.35186   0.50001   0.81492   0.00000  Uiso   1.00
O848   O     0.64814   0.49999   0.68509   0.00000  Uiso   1.00
O849   O     0.60600   0.50000   0.81492   0.00000  Uiso   1.00
O850   O     0.39400   0.50000   0.68508   0.00000  Uiso   1.00
F851   F     0.60282   0.47006   0.55418   0.00000  Uiso   1.00
F852   F     0.39718   0.52994   0.94582   0.00000  Uiso   1.00
F853   F     0.44270   0.46246   0.61268   0.00000  Uiso   1.00
F854   F     0.55730   0.53754   0.88732   0.00000  Uiso   1.00
Cl855  Cl    0.62505   0.54660   0.61051   0.00000  Uiso   1.00
Cl856  Cl    0.37495   0.45340   0.88949   0.00000  Uiso   1.00
F857   F     0.66358   0.45133   0.98422   0.00000  Uiso   1.00
F858   F     0.33642   0.54867   0.51578   0.00000  Uiso   1.00
Cl859  Cl    0.51905   0.51104   0.60410   0.00000  Uiso   1.00
Cl860  Cl    0.48095   0.48896   0.89590   0.00000  Uiso   1.00
F861   F     0.62065   0.37328   0.82661   0.00000  Uiso   1.00
F862   F     0.37935   0.62672   0.67339   0.00000  Uiso   1.00
Cl863  Cl    0.61191   0.61555   0.83891   0.00000  Uiso   1.00
Cl864  Cl    0.38809   0.38445   0.66109   0.00000  Uiso   1.00
Cl865  Cl    0.53829   0.43194   0.80867   0.00000  Uiso   1.00
Cl866  Cl    0.46171   0.56806   0.69133   0.00000  Uiso   1.00
Cl867  Cl    0.43712   0.42477   0.79793   0.00000  Uiso   1.00
Cl868  Cl    0.56288   0.57523   0.70207   0.00000  Uiso   1.00
C869   C     0.66692   0.42098   0.74996   0.00000  Uiso   1.00
C870   C     0.99975   0.57902   0.75004   0.00000  Uiso   1.00
C871   C     0.86001   0.49326   0.54920   0.00000  Uiso   1.00
C872   C     0.80666   0.50674   0.95080   0.00000  Uiso   1.00
C873   C     0.90566   0.47981   0.52824   0.00000  Uiso   1.00
C874   C     0.76100   0.52019   0.97176   0.00000  Uiso   1.00
C875   C     0.97615   0.35353   0.78879   0.00000  Uiso   1.00
C876   C     0.69052   0.64647   0.71121   0.00000  Uiso   1.00
C877   C     0.97524   0.64373   0.78910   0.00000  Uiso   1.00
C878   C     0.69142   0.35627   0.71090   0.00000  Uiso   1.00
C879   C     0.99924   0.62369   0.75018   0.00000  Uiso   1.00
C880   C     0.66743   0.37631   0.74982   0.00000  Uiso   1.00
C881   C     0.85210   0.46969   0.77365   0.00000  Uiso   1.00
C882   C     0.81457   0.53031   0.72635   0.00000  Uiso   1.00
C883   C     0.80347   0.46894   0.77246   0.00000  Uiso   1.00
C884   C     0.86320   0.53106   0.72755   0.00000  Uiso   1.00
C885   C     0.97295   0.49891   0.83644   0.00000  Uiso   1.00
C886   C     0.69371   0.50109   0.66356   0.00000  Uiso   1.00
C887   C     0.95772   0.49457   0.88679   0.00000  Uiso   1.00
C888   C     0.70895   0.50543   0.61321   0.00000  Uiso   1.00
C889   C     0.96809   0.46887   0.95979   0.00000  Uiso   1.00
C890   C     0.69858   0.53113   0.54021   0.00000  Uiso   1.00
C891   C     0.98532   0.47391   0.91294   0.00000  Uiso   1.00
C892   C     0.68134   0.52609   0.58706   0.00000  Uiso   1.00
C893   C     0.91197   0.50833   0.90903   0.00000  Uiso   1.00
C894   C     0.75470   0.49167   0.59097   0.00000  Uiso   1.00
C895   C     0.89088   0.49613   0.95478   0.00000  Uiso   1.00
C896   C     0.77578   0.50387   0.54522   0.00000  Uiso   1.00
C897   C     0.92133   0.48056   0.98108   0.00000  Uiso   1.00
C898   C     0.74534   0.51944   0.51892   0.00000  Uiso   1.00
C899   C     0.84130   0.50111   0.97586   0.00000  Uiso   1.00
C900   C     0.82537   0.49889   0.52414   0.00000  Uiso   1.00
Cu901  Cu    0.71355   0.50001   0.75000   0.00000  Uiso   1.00
Cu902  Cu    0.95311   0.49999   0.75000   0.00000  Uiso   1.00
N903   N     0.78403   0.50001   0.74999   0.00000  Uiso   1.00
N904   N     0.88264   0.49999   0.75001   0.00000  Uiso   1.00
O905   O     0.70625   0.43989   0.75000   0.00000  Uiso   1.00
O906   O     0.96042   0.56011   0.75000   0.00000  Uiso   1.00
O907   O     0.96039   0.43988   0.75001   0.00000  Uiso   1.00
O908   O     0.70628   0.56012   0.75000   0.00000  Uiso   1.00
O909   O     0.68519   0.50001   0.81492   0.00000  Uiso   1.00
O910   O     0.98148   0.49999   0.68509   0.00000  Uiso   1.00
O911   O     0.93933   0.50000   0.81492   0.00000  Uiso   1.00
O912   O     0.72733   0.50000   0.68508   0.00000  Uiso   1.00
F913   F     0.93615   0.47006   0.55418   0.00000  Uiso   1.00
F914   F     0.73051   0.52994   0.94582   0.00000  Uiso   1.00
F915   F     0.77603   0.46246   0.61268   0.00000  Uiso   1.00
F916   F     0.89064   0.53754   0.88732   0.00000  Uiso   1.00
Cl917  Cl    0.95839   0.54660   0.61051   0.00000  Uiso   1.00
Cl918  Cl    0.70828   0.45340   0.88949   0.00000  Uiso   1.00
F919   F     0.99692   0.45133   0.98422   0.00000  Uiso   1.00
F920   F     0.66975   0.54867   0.51578   0.00000  Uiso   1.00
Cl921  Cl    0.85238   0.51104   0.60410   0.00000  Uiso   1.00
Cl922  Cl    0.81429   0.48896   0.89590   0.00000  Uiso   1.00
F923   F     0.95398   0.37328   0.82661   0.00000  Uiso   1.00
F924   F     0.71269   0.62672   0.67339   0.00000  Uiso   1.00
Cl925  Cl    0.94524   0.61555   0.83891   0.00000  Uiso   1.00
Cl926  Cl    0.72142   0.38445   0.66109   0.00000  Uiso   1.00
Cl927  Cl    0.87163   0.43194   0.80867   0.00000  Uiso   1.00
Cl928  Cl    0.79504   0.56806   0.69133   0.00000  Uiso   1.00
Cl929  Cl    0.77045   0.42477   0.79793   0.00000  Uiso   1.00
Cl930  Cl    0.89622   0.57523   0.70207   0.00000  Uiso   1.00
C931   C     0.00025   0.75431   0.74996   0.00000  Uiso   1.00
C932   C     0.33308   0.91236   0.75004   0.00000  Uiso   1.00
C933   C     0.19334   0.82659   0.54920   0.00000  Uiso   1.00
C934   C     0.13999   0.84007   0.95080   0.00000  Uiso   1.00
C935   C     0.23900   0.81315   0.52824   0.00000  Uiso   1.00
C936   C     0.09434   0.85352   0.97176   0.00000  Uiso   1.00
C937   C     0.30948   0.68687   0.78879   0.00000  Uiso   1.00
C938   C     0.02385   0.97980   0.71121   0.00000  Uiso   1.00
C939   C     0.30858   0.97707   0.78910   0.00000  Uiso   1.00
C940   C     0.02476   0.68960   0.71090   0.00000  Uiso   1.00
C941   C     0.33257   0.95702   0.75018   0.00000  Uiso   1.00
C942   C     0.00076   0.70964   0.74982   0.00000  Uiso   1.00
C943   C     0.18543   0.80303   0.77365   0.00000  Uiso   1.00
C944   C     0.14790   0.86364   0.72635   0.00000  Uiso   1.00
C945   C     0.13680   0.80227   0.77246   0.00000  Uiso   1.00
C946   C     0.19653   0.86440   0.72755   0.00000  Uiso   1.00
C947   C     0.30629   0.83225   0.83644   0.00000  Uiso   1.00
C948   C     0.02705   0.83442   0.66356   0.00000  Uiso   1.00
C949   C     0.29105   0.82790   0.88679   0.00000  Uiso   1.00
C950   C     0.04228   0.83876   0.61321   0.00000  Uiso   1.00
C951   C     0.30142   0.80220   0.95979   0.00000  Uiso   1.00
C952   C     0.03191   0.86447   0.54021   0.00000  Uiso   1.00
C953   C     0.31866   0.80725   0.91294   0.00000  Uiso   1.00
C954   C     0.01468   0.85942   0.58706   0.00000  Uiso   1.00
C955   C     0.24530   0.84166   0.90903   0.00000  Uiso   1.00
C956   C     0.08803   0.82500   0.59097   0.00000  Uiso   1.00
C957   C     0.22422   0.82946   0.95478   0.00000  Uiso   1.00
C958   C     0.10912   0.83720   0.54522   0.00000  Uiso   1.00
C959   C     0.25466   0.81390   0.98108   0.00000  Uiso   1.00
C960   C     0.07867   0.85277   0.51892   0.00000  Uiso   1.00
C961   C     0.17464   0.83444   0.97586   0.00000  Uiso   1.00
C962   C     0.15870   0.83223   0.52414   0.00000  Uiso   1.00
Cu963  Cu    0.04689   0.83334   0.75000   0.00000  Uiso   1.00
Cu964  Cu    0.28645   0.83333   0.75000   0.00000  Uiso   1.00
N965   N     0.11736   0.83334   0.74999   0.00000  Uiso   1.00
N966   N     0.21597   0.83332   0.75001   0.00000  Uiso   1.00
O967   O     0.03958   0.77322   0.75000   0.00000  Uiso   1.00
O968   O     0.29375   0.89345   0.75000   0.00000  Uiso   1.00
O969   O     0.29372   0.77321   0.75001   0.00000  Uiso   1.00
O970   O     0.03961   0.89346   0.75000   0.00000  Uiso   1.00
O971   O     0.01852   0.83334   0.81492   0.00000  Uiso   1.00
O972   O     0.31481   0.83332   0.68509   0.00000  Uiso   1.00
O973   O     0.27267   0.83333   0.81492   0.00000  Uiso   1.00
O974   O     0.06067   0.83333   0.68508   0.00000  Uiso   1.00
F975   F     0.26949   0.80339   0.55418   0.00000  Uiso   1.00
F976   F     0.06385   0.86328   0.94582   0.00000  Uiso   1.00
F977   F     0.10936   0.79579   0.61268   0.00000  Uiso   1.00
F978   F     0.22397   0.87088   0.88732   0.00000  Uiso   1.00
Cl979  Cl    0.29172   0.87993   0.61051   0.00000  Uiso   1.00
Cl980  Cl    0.04161   0.78673   0.88949   0.00000  Uiso   1.00
F981   F     0.33025   0.78467   0.98422   0.00000  Uiso   1.00
F982   F     0.00309   0.88200   0.51578   0.00000  Uiso   1.00
Cl983  Cl    0.18571   0.84437   0.60410   0.00000  Uiso   1.00
Cl984  Cl    0.14762   0.82230   0.89590   0.00000  Uiso   1.00
F985   F     0.28731   0.70661   0.82661   0.00000  Uiso   1.00
F986   F     0.04602   0.96006   0.67339   0.00000  Uiso   1.00
Cl987  Cl    0.27858   0.94889   0.83891   0.00000  Uiso   1.00
Cl988  Cl    0.05476   0.71778   0.66109   0.00000  Uiso   1.00
Cl989  Cl    0.20496   0.76527   0.80867   0.00000  Uiso   1.00
Cl990  Cl    0.12837   0.90139   0.69133   0.00000  Uiso   1.00
Cl991  Cl    0.10378   0.75810   0.79793   0.00000  Uiso   1.00
Cl992  Cl    0.22955   0.90856   0.70207   0.00000  Uiso   1.00
C993   C     0.33359   0.75431   0.74996   0.00000  Uiso   1.00
C994   C     0.66641   0.91236   0.75004   0.00000  Uiso   1.00
C995   C     0.52668   0.82659   0.54920   0.00000  Uiso   1.00
C996   C     0.47332   0.84007   0.95080   0.00000  Uiso   1.00
C997   C     0.57233   0.81315   0.52824   0.00000  Uiso   1.00
C998   C     0.42767   0.85352   0.97176   0.00000  Uiso   1.00
C999   C     0.64281   0.68687   0.78879   0.00000  Uiso   1.00
C1000  C     0.35719   0.97980   0.71121   0.00000  Uiso   1.00
C1001  C     0.64191   0.97707   0.78910   0.00000  Uiso   1.00
C1002  C     0.35809   0.68960   0.71090   0.00000  Uiso   1.00
C1003  C     0.66591   0.95702   0.75018   0.00000  Uiso   1.00
C1004  C     0.33409   0.70964   0.74982   0.00000  Uiso   1.00
C1005  C     0.51877   0.80303   0.77365   0.00000  Uiso   1.00
C1006  C     0.48123   0.86364   0.72635   0.00000  Uiso   1.00
C1007  C     0.47013   0.80227   0.77246   0.00000  Uiso   1.00
C1008  C     0.52987   0.86440   0.72755   0.00000  Uiso   1.00
C1009  C     0.63962   0.83225   0.83644   0.00000  Uiso   1.00
C1010  C     0.36038   0.83442   0.66356   0.00000  Uiso   1.00
C1011  C     0.62439   0.82790   0.88679   0.00000  Uiso   1.00
C1012  C     0.37561   0.83876   0.61321   0.00000  Uiso   1.00
C1013  C     0.63475   0.80220   0.95979   0.00000  Uiso   1.00
C1014  C     0.36525   0.86447   0.54021   0.00000  Uiso   1.00
C1015  C     0.65199   0.80725   0.91294   0.00000  Uiso   1.00
C1016  C     0.34801   0.85942   0.58706   0.00000  Uiso   1.00
C1017  C     0.57864   0.84166   0.90903   0.00000  Uiso   1.00
C1018  C     0.42137   0.82500   0.59097   0.00000  Uiso   1.00
C1019  C     0.55755   0.82946   0.95478   0.00000  Uiso   1.00
C1020  C     0.44245   0.83720   0.54522   0.00000  Uiso   1.00
C1021  C     0.58800   0.81390   0.98108   0.00000  Uiso   1.00
C1022  C     0.41200   0.85277   0.51892   0.00000  Uiso   1.00
C1023  C     0.50797   0.83444   0.97586   0.00000  Uiso   1.00
C1024  C     0.49203   0.83223   0.52414   0.00000  Uiso   1.00
Cu1025 Cu    0.38022   0.83334   0.75000   0.00000  Uiso   1.00
Cu1026 Cu    0.61978   0.83333   0.75000   0.00000  Uiso   1.00
N1027  N     0.45069   0.83334   0.74999   0.00000  Uiso   1.00
N1028  N     0.54931   0.83332   0.75001   0.00000  Uiso   1.00
O1029  O     0.37291   0.77322   0.75000   0.00000  Uiso   1.00
O1030  O     0.62709   0.89345   0.75000   0.00000  Uiso   1.00
O1031  O     0.62706   0.77321   0.75001   0.00000  Uiso   1.00
O1032  O     0.37294   0.89346   0.75000   0.00000  Uiso   1.00
O1033  O     0.35186   0.83334   0.81492   0.00000  Uiso   1.00
O1034  O     0.64814   0.83332   0.68509   0.00000  Uiso   1.00
O1035  O     0.60600   0.83333   0.81492   0.00000  Uiso   1.00
O1036  O     0.39400   0.83333   0.68508   0.00000  Uiso   1.00
F1037  F     0.60282   0.80339   0.55418   0.00000  Uiso   1.00
F1038  F     0.39718   0.86328   0.94582   0.00000  Uiso   1.00
F1039  F     0.44270   0.79579   0.61268   0.00000  Uiso   1.00
F1040  F     0.55730   0.87088   0.88732   0.00000  Uiso   1.00
Cl1041 Cl    0.62505   0.87993   0.61051   0.00000  Uiso   1.00
Cl1042 Cl    0.37495   0.78673   0.88949   0.00000  Uiso   1.00
F1043  F     0.66358   0.78467   0.98422   0.00000  Uiso   1.00
F1044  F     0.33642   0.88200   0.51578   0.00000  Uiso   1.00
Cl1045 Cl    0.51905   0.84437   0.60410   0.00000  Uiso   1.00
Cl1046 Cl    0.48095   0.82230   0.89590   0.00000  Uiso   1.00
F1047  F     0.62065   0.70661   0.82661   0.00000  Uiso   1.00
F1048  F     0.37935   0.96006   0.67339   0.00000  Uiso   1.00
Cl1049 Cl    0.61191   0.94889   0.83891   0.00000  Uiso   1.00
Cl1050 Cl    0.38809   0.71778   0.66109   0.00000  Uiso   1.00
Cl1051 Cl    0.53829   0.76527   0.80867   0.00000  Uiso   1.00
Cl1052 Cl    0.46171   0.90139   0.69133   0.00000  Uiso   1.00
Cl1053 Cl    0.43712   0.75810   0.79793   0.00000  Uiso   1.00
Cl1054 Cl    0.56288   0.90856   0.70207   0.00000  Uiso   1.00
C1055  C     0.66692   0.75431   0.74996   0.00000  Uiso   1.00
C1056  C     0.99975   0.91236   0.75004   0.00000  Uiso   1.00
C1057  C     0.86001   0.82659   0.54920   0.00000  Uiso   1.00
C1058  C     0.80666   0.84007   0.95080   0.00000  Uiso   1.00
C1059  C     0.90566   0.81315   0.52824   0.00000  Uiso   1.00
C1060  C     0.76100   0.85352   0.97176   0.00000  Uiso   1.00
C1061  C     0.97615   0.68687   0.78879   0.00000  Uiso   1.00
C1062  C     0.69052   0.97980   0.71121   0.00000  Uiso   1.00
C1063  C     0.97524   0.97707   0.78910   0.00000  Uiso   1.00
C1064  C     0.69142   0.68960   0.71090   0.00000  Uiso   1.00
C1065  C     0.99924   0.95702   0.75018   0.00000  Uiso   1.00
C1066  C     0.66743   0.70964   0.74982   0.00000  Uiso   1.00
C1067  C     0.85210   0.80303   0.77365   0.00000  Uiso   1.00
C1068  C     0.81457   0.86364   0.72635   0.00000  Uiso   1.00
C1069  C     0.80347   0.80227   0.77246   0.00000  Uiso   1.00
C1070  C     0.86320   0.86440   0.72755   0.00000  Uiso   1.00
C1071  C     0.97295   0.83225   0.83644   0.00000  Uiso   1.00
C1072  C     0.69371   0.83442   0.66356   0.00000  Uiso   1.00
C1073  C     0.95772   0.82790   0.88679   0.00000  Uiso   1.00
C1074  C     0.70895   0.83876   0.61321   0.00000  Uiso   1.00
C1075  C     0.96809   0.80220   0.95979   0.00000  Uiso   1.00
C1076  C     0.69858   0.86447   0.54021   0.00000  Uiso   1.00
C1077  C     0.98532   0.80725   0.91294   0.00000  Uiso   1.00
C1078  C     0.68134   0.85942   0.58706   0.00000  Uiso   1.00
C1079  C     0.91197   0.84166   0.90903   0.00000  Uiso   1.00
C1080  C     0.75470   0.82500   0.59097   0.00000  Uiso   1.00
C1081  C     0.89088   0.82946   0.95478   0.00000  Uiso   1.00
C1082  C     0.77578   0.83720   0.54522   0.00000  Uiso   1.00
C1083  C     0.92133   0.81390   0.98108   0.00000  Uiso   1.00
C1084  C     0.74534   0.85277   0.51892   0.00000  Uiso   1.00
C1085  C     0.84130   0.83444   0.97586   0.00000  Uiso   1.00
C1086  C     0.82537   0.83223   0.52414   0.00000  Uiso   1.00
Cu1087 Cu    0.71355   0.83334   0.75000   0.00000  Uiso   1.00
Cu1088 Cu    0.95311   0.83333   0.75000   0.00000  Uiso   1.00
N1089  N     0.78403   0.83334   0.74999   0.00000  Uiso   1.00
N1090  N     0.88264   0.83332   0.75001   0.00000  Uiso   1.00
O1091  O     0.70625   0.77322   0.75000   0.00000  Uiso   1.00
O1092  O     0.96042   0.89345   0.75000   0.00000  Uiso   1.00
O1093  O     0.96039   0.77321   0.75001   0.00000  Uiso   1.00
O1094  O     0.70628   0.89346   0.75000   0.00000  Uiso   1.00
O1095  O     0.68519   0.83334   0.81492   0.00000  Uiso   1.00
O1096  O     0.98148   0.83332   0.68509   0.00000  Uiso   1.00
O1097  O     0.93933   0.83333   0.81492   0.00000  Uiso   1.00
O1098  O     0.72733   0.83333   0.68508   0.00000  Uiso   1.00
F1099  F     0.93615   0.80339   0.55418   0.00000  Uiso   1.00
F1100  F     0.73051   0.86328   0.94582   0.00000  Uiso   1.00
F1101  F     0.77603   0.79579   0.61268   0.00000  Uiso   1.00
F1102  F     0.89064   0.87088   0.88732   0.00000  Uiso   1.00
Cl1103 Cl    0.95839   0.87993   0.61051   0.00000  Uiso   1.00
Cl1104 Cl    0.70828   0.78673   0.88949   0.00000  Uiso   1.00
F1105  F     0.99692   0.78467   0.98422   0.00000  Uiso   1.00
F1106  F     0.66975   0.88200   0.51578   0.00000  Uiso   1.00
Cl1107 Cl    0.85238   0.84437   0.60410   0.00000  Uiso   1.00
Cl1108 Cl    0.81429   0.82230   0.89590   0.00000  Uiso   1.00
F1109  F     0.95398   0.70661   0.82661   0.00000  Uiso   1.00
F1110  F     0.71269   0.96006   0.67339   0.00000  Uiso   1.00
Cl1111 Cl    0.94524   0.94889   0.83891   0.00000  Uiso   1.00
Cl1112 Cl    0.72142   0.71778   0.66109   0.00000  Uiso   1.00
Cl1113 Cl    0.87163   0.76527   0.80867   0.00000  Uiso   1.00
Cl1114 Cl    0.79504   0.90139   0.69133   0.00000  Uiso   1.00
Cl1115 Cl    0.77045   0.75810   0.79793   0.00000  Uiso   1.00
Cl1116 Cl    0.89622   0.90856   0.70207   0.00000  Uiso   1.00
loop_
_geom_bond_atom_site_label_1
_geom_bond_atom_site_label_2
_geom_bond_distance
_geom_bond_site_symmetry_2
_ccdc_geom_bond_type
C1     C12     1.439   .     S
C1     O37     1.303   .     A
C1     O163    1.301   1_455 S
C2     O38     1.303   .     A
C2     C11     1.439   .     S
C2     O102    1.301   .     S
C3     C5      1.391   .     A
C3     Cl53    1.766   .     S
C3     C32     1.421   .     A
C4     C31     1.421   .     A
C4     C6      1.391   .     A
C4     Cl54    1.766   .     S
C5     F45     1.359   .     S
C5     C587    1.399   1_554 S
C6     F46     1.359   .     S
C6     C588    1.399   .     S
C7     F55     1.359   .     S
C7     C381    1.389   1_545 S
C7     C74     1.399   .     S
C8     F56     1.359   .     S
C8     C196    1.389   .     S
C8     C135    1.399   1_455 S
C9     C11     1.403   .     A
C9     Cl57    1.761   .     S
C9     C193    1.389   .     S
C10    C12     1.403   .     A
C10    Cl58    1.761   .     S
C10    C380    1.389   1_545 S
C11    C70     1.399   .     S
C12    C131    1.399   1_455 S
C13    Cl59    1.764   .     S
C13    C15     1.424   .     A
C13    N36     1.371   .     A
C14    Cl60    1.764   .     S
C14    C16     1.424   .     A
C14    N35     1.371   .     A
C15    Cl61    1.756   .     S
C15    N35     1.381   .     A
C16    N36     1.381   .     A
C16    Cl62    1.756   .     S
C17    O43     1.312   .     A
C17    C19     1.492   .     S
C17    O103    1.318   .     S
C18    C20     1.492   .     S
C18    O44     1.312   .     A
C18    O166    1.318   1_455 S
C19    C23     1.411   .     A
C19    C25     1.406   .     A
C20    C26     1.406   .     A
C20    C24     1.411   .     A
C21    F51     1.360   .     S
C21    C23     1.395   .     A
C21    C29     1.403   .     A
C22    C24     1.395   .     A
C22    F52     1.360   .     S
C22    C30     1.403   .     A
C23    Cl112   1.745   .     S
C24    Cl173   1.745   1_455 S
C25    F48     1.358   .     S
C25    C27     1.415   .     A
C26    C28     1.415   .     A
C26    F47     1.358   .     S
C27    C29     1.414   .     A
C27    C31     1.430   .     A
C28    C30     1.414   .     A
C28    C32     1.430   .     A
C29    C563    1.399   .     S
C30    C564    1.399   1_554 S
C31    C590    1.431   .     S
C32    C589    1.431   1_554 S
Cu33   O41     1.948   .     S
Cu33   N35     2.048   .     S
Cu33   O37     1.951   .     S
Cu33   O40     1.945   .     S
Cu33   O44     1.927   .     S
Cu33   Cu158   2.726   1_455 S
Cu34   O42     1.948   .     S
Cu34   N36     2.048   .     S
Cu34   O39     1.945   .     S
Cu34   O38     1.951   .     S
Cu34   O43     1.927   .     S
Cu34   Cu95    2.726   .     S
O39    C63     1.301   .     S
O40    C126    1.301   1_455 S
O41    C141    1.318   1_455 S
O42    C80     1.318   .     S
Cl49   C86     1.745   .     S
Cl50   C147    1.745   1_455 S
C63    C74     1.439   .     S
C63    O99     1.303   .     A
C64    O100    1.303   .     A
C64    C73     1.439   .     S
C64    O164    1.301   .     S
C65    C67     1.391   .     A
C65    Cl115   1.766   .     S
C65    C94     1.421   .     A
C66    C93     1.421   .     A
C66    C68     1.391   .     A
C66    Cl116   1.766   .     S
C67    F107    1.359   .     S
C67    C649    1.399   1_554 S
C68    F108    1.359   .     S
C68    C650    1.399   .     S
C69    F117    1.359   .     S
C69    C443    1.389   1_545 S
C69    C136    1.399   .     S
C70    F118    1.359   .     S
C70    C258    1.389   .     S
C71    C73     1.403   .     A
C71    Cl119   1.761   .     S
C71    C255    1.389   .     S
C72    C74     1.403   .     A
C72    Cl120   1.761   .     S
C72    C442    1.389   1_545 S
C73    C132    1.399   .     S
C75    Cl121   1.764   .     S
C75    C77     1.424   .     A
C75    N98     1.371   .     A
C76    Cl122   1.764   .     S
C76    C78     1.424   .     A
C76    N97     1.371   .     A
C77    Cl123   1.756   .     S
C77    N97     1.381   .     A
C78    N98     1.381   .     A
C78    Cl124   1.756   .     S
C79    O105    1.312   .     A
C79    C81     1.492   .     S
C79    O165    1.318   .     S
C80    C82     1.492   .     S
C80    O106    1.312   .     A
C81    C85     1.411   .     A
C81    C87     1.406   .     A
C82    C88     1.406   .     A
C82    C86     1.411   .     A
C83    F113    1.360   .     S
C83    C85     1.395   .     A
C83    C91     1.403   .     A
C84    C86     1.395   .     A
C84    F114    1.360   .     S
C84    C92     1.403   .     A
C85    Cl174   1.745   .     S
C87    F110    1.358   .     S
C87    C89     1.415   .     A
C88    C90     1.415   .     A
C88    F109    1.358   .     S
C89    C91     1.414   .     A
C89    C93     1.430   .     A
C90    C92     1.414   .     A
C90    C94     1.430   .     A
C91    C625    1.399   .     S
C92    C626    1.399   1_554 S
C93    C652    1.431   .     S
C94    C651    1.431   1_554 S
Cu95   O103    1.948   .     S
Cu95   N97     2.048   .     S
Cu95   O99     1.951   .     S
Cu95   O102    1.945   .     S
Cu95   O106    1.927   .     S
Cu96   O104    1.948   .     S
Cu96   N98     2.048   .     S
Cu96   O101    1.945   .     S
Cu96   O100    1.951   .     S
Cu96   O105    1.927   .     S
Cu96   Cu157   2.726   .     S
O101   C125    1.301   .     S
O104   C142    1.318   .     S
Cl111  C148    1.745   .     S
C125   C136    1.439   .     S
C125   O161    1.303   .     A
C126   O162    1.303   .     A
C126   C135    1.439   .     S
C126   O40     1.301   1_655 S
C127   C129    1.391   .     A
C127   Cl177   1.766   .     S
C127   C156    1.421   .     A
C128   C155    1.421   .     A
C128   C130    1.391   .     A
C128   Cl178   1.766   .     S
C129   F169    1.359   .     S
C129   C711    1.399   1_554 S
C130   F170    1.359   .     S
C130   C712    1.399   .     S
C131   F179    1.359   .     S
C131   C505    1.389   1_545 S
C131   C12     1.399   1_655 S
C132   F180    1.359   .     S
C132   C320    1.389   .     S
C133   C135    1.403   .     A
C133   Cl181   1.761   .     S
C133   C317    1.389   .     S
C134   C136    1.403   .     A
C134   Cl182   1.761   .     S
C134   C504    1.389   1_545 S
C135   C8      1.399   1_655 S
C137   Cl183   1.764   .     S
C137   C139    1.424   .     A
C137   N160    1.371   .     A
C138   Cl184   1.764   .     S
C138   C140    1.424   .     A
C138   N159    1.371   .     A
C139   Cl185   1.756   .     S
C139   N159    1.381   .     A
C140   N160    1.381   .     A
C140   Cl186   1.756   .     S
C141   O167    1.312   .     A
C141   C143    1.492   .     S
C141   O41     1.318   1_655 S
C142   C144    1.492   .     S
C142   O168    1.312   .     A
C143   C147    1.411   .     A
C143   C149    1.406   .     A
C144   C150    1.406   .     A
C144   C148    1.411   .     A
C145   F175    1.360   .     S
C145   C147    1.395   .     A
C145   C153    1.403   .     A
C146   C148    1.395   .     A
C146   F176    1.360   .     S
C146   C154    1.403   .     A
C147   Cl50    1.745   1_655 S
C149   F172    1.358   .     S
C149   C151    1.415   .     A
C150   C152    1.415   .     A
C150   F171    1.358   .     S
C151   C153    1.414   .     A
C151   C155    1.430   .     A
C152   C154    1.414   .     A
C152   C156    1.430   .     A
C153   C687    1.399   .     S
C154   C688    1.399   1_554 S
C155   C714    1.431   .     S
C156   C713    1.431   1_554 S
Cu157  O165    1.948   .     S
Cu157  N159    2.048   .     S
Cu157  O161    1.951   .     S
Cu157  O164    1.945   .     S
Cu157  O168    1.927   .     S
Cu158  O166    1.948   .     S
Cu158  N160    2.048   .     S
Cu158  O163    1.945   .     S
Cu158  O162    1.951   .     S
Cu158  O167    1.927   .     S
Cu158  Cu33    2.726   1_655 S
O163   C1      1.301   1_655 S
O166   C18     1.318   1_655 S
Cl173  C24     1.745   1_655 S
C187   C198    1.439   .     S
C187   O223    1.303   .     A
C187   O349    1.301   1_455 S
C188   O224    1.303   .     A
C188   C197    1.439   .     S
C188   O288    1.301   .     S
C189   C191    1.391   .     A
C189   Cl239   1.766   .     S
C189   C218    1.421   .     A
C190   C217    1.421   .     A
C190   C192    1.391   .     A
C190   Cl240   1.766   .     S
C191   F231    1.359   .     S
C191   C773    1.399   1_554 S
C192   F232    1.359   .     S
C192   C774    1.399   .     S
C193   F241    1.359   .     S
C193   C260    1.399   .     S
C194   F242    1.359   .     S
C194   C382    1.389   .     S
C194   C321    1.399   1_455 S
C195   C197    1.403   .     A
C195   Cl243   1.761   .     S
C195   C379    1.389   .     S
C196   C198    1.403   .     A
C196   Cl244   1.761   .     S
C197   C256    1.399   .     S
C198   C317    1.399   1_455 S
C199   Cl245   1.764   .     S
C199   C201    1.424   .     A
C199   N222    1.371   .     A
C200   Cl246   1.764   .     S
C200   C202    1.424   .     A
C200   N221    1.371   .     A
C201   Cl247   1.756   .     S
C201   N221    1.381   .     A
C202   N222    1.381   .     A
C202   Cl248   1.756   .     S
C203   O229    1.312   .     A
C203   C205    1.492   .     S
C203   O289    1.318   .     S
C204   C206    1.492   .     S
C204   O230    1.312   .     A
C204   O352    1.318   1_455 S
C205   C209    1.411   .     A
C205   C211    1.406   .     A
C206   C212    1.406   .     A
C206   C210    1.411   .     A
C207   F237    1.360   .     S
C207   C209    1.395   .     A
C207   C215    1.403   .     A
C208   C210    1.395   .     A
C208   F238    1.360   .     S
C208   C216    1.403   .     A
C209   Cl298   1.745   .     S
C210   Cl359   1.745   1_455 S
C211   F234    1.358   .     S
C211   C213    1.415   .     A
C212   C214    1.415   .     A
C212   F233    1.358   .     S
C213   C215    1.414   .     A
C213   C217    1.430   .     A
C214   C216    1.414   .     A
C214   C218    1.430   .     A
C215   C749    1.399   .     S
C216   C750    1.399   1_554 S
C217   C776    1.431   .     S
C218   C775    1.431   1_554 S
Cu219  O227    1.948   .     S
Cu219  N221    2.048   .     S
Cu219  O223    1.951   .     S
Cu219  O226    1.945   .     S
Cu219  O230    1.927   .     S
Cu219  Cu344   2.726   1_455 S
Cu220  O228    1.948   .     S
Cu220  N222    2.048   .     S
Cu220  O225    1.945   .     S
Cu220  O224    1.951   .     S
Cu220  O229    1.927   .     S
Cu220  Cu281   2.726   .     S
O225   C249    1.301   .     S
O226   C312    1.301   1_455 S
O227   C327    1.318   1_455 S
O228   C266    1.318   .     S
Cl235  C272    1.745   .     S
Cl236  C333    1.745   1_455 S
C249   C260    1.439   .     S
C249   O285    1.303   .     A
C250   O286    1.303   .     A
C250   C259    1.439   .     S
C250   O350    1.301   .     S
C251   C253    1.391   .     A
C251   Cl301   1.766   .     S
C251   C280    1.421   .     A
C252   C279    1.421   .     A
C252   C254    1.391   .     A
C252   Cl302   1.766   .     S
C253   F293    1.359   .     S
C253   C835    1.399   1_554 S
C254   F294    1.359   .     S
C254   C836    1.399   .     S
C255   F303    1.359   .     S
C255   C322    1.399   .     S
C256   F304    1.359   .     S
C256   C444    1.389   .     S
C257   C259    1.403   .     A
C257   Cl305   1.761   .     S
C257   C441    1.389   .     S
C258   C260    1.403   .     A
C258   Cl306   1.761   .     S
C259   C318    1.399   .     S
C261   Cl307   1.764   .     S
C261   C263    1.424   .     A
C261   N284    1.371   .     A
C262   Cl308   1.764   .     S
C262   C264    1.424   .     A
C262   N283    1.371   .     A
C263   Cl309   1.756   .     S
C263   N283    1.381   .     A
C264   N284    1.381   .     A
C264   Cl310   1.756   .     S
C265   O291    1.312   .     A
C265   C267    1.492   .     S
C265   O351    1.318   .     S
C266   C268    1.492   .     S
C266   O292    1.312   .     A
C267   C271    1.411   .     A
C267   C273    1.406   .     A
C268   C274    1.406   .     A
C268   C272    1.411   .     A
C269   F299    1.360   .     S
C269   C271    1.395   .     A
C269   C277    1.403   .     A
C270   C272    1.395   .     A
C270   F300    1.360   .     S
C270   C278    1.403   .     A
C271   Cl360   1.745   .     S
C273   F296    1.358   .     S
C273   C275    1.415   .     A
C274   C276    1.415   .     A
C274   F295    1.358   .     S
C275   C277    1.414   .     A
C275   C279    1.430   .     A
C276   C278    1.414   .     A
C276   C280    1.430   .     A
C277   C811    1.399   .     S
C278   C812    1.399   1_554 S
C279   C838    1.431   .     S
C280   C837    1.431   1_554 S
Cu281  O289    1.948   .     S
Cu281  N283    2.048   .     S
Cu281  O285    1.951   .     S
Cu281  O288    1.945   .     S
Cu281  O292    1.927   .     S
Cu282  O290    1.948   .     S
Cu282  N284    2.048   .     S
Cu282  O287    1.945   .     S
Cu282  O286    1.951   .     S
Cu282  O291    1.927   .     S
Cu282  Cu343   2.726   .     S
O287   C311    1.301   .     S
O290   C328    1.318   .     S
Cl297  C334    1.745   .     S
C311   C322    1.439   .     S
C311   O347    1.303   .     A
C312   O348    1.303   .     A
C312   C321    1.439   .     S
C312   O226    1.301   1_655 S
C313   C315    1.391   .     A
C313   Cl363   1.766   .     S
C313   C342    1.421   .     A
C314   C341    1.421   .     A
C314   C316    1.391   .     A
C314   Cl364   1.766   .     S
C315   F355    1.359   .     S
C315   C897    1.399   1_554 S
C316   F356    1.359   .     S
C316   C898    1.399   .     S
C317   F365    1.359   .     S
C317   C198    1.399   1_655 S
C318   F366    1.359   .     S
C318   C506    1.389   .     S
C319   C321    1.403   .     A
C319   Cl367   1.761   .     S
C319   C503    1.389   .     S
C320   C322    1.403   .     A
C320   Cl368   1.761   .     S
C321   C194    1.399   1_655 S
C323   Cl369   1.764   .     S
C323   C325    1.424   .     A
C323   N346    1.371   .     A
C324   Cl370   1.764   .     S
C324   C326    1.424   .     A
C324   N345    1.371   .     A
C325   Cl371   1.756   .     S
C325   N345    1.381   .     A
C326   N346    1.381   .     A
C326   Cl372   1.756   .     S
C327   O353    1.312   .     A
C327   C329    1.492   .     S
C327   O227    1.318   1_655 S
C328   C330    1.492   .     S
C328   O354    1.312   .     A
C329   C333    1.411   .     A
C329   C335    1.406   .     A
C330   C336    1.406   .     A
C330   C334    1.411   .     A
C331   F361    1.360   .     S
C331   C333    1.395   .     A
C331   C339    1.403   .     A
C332   C334    1.395   .     A
C332   F362    1.360   .     S
C332   C340    1.403   .     A
C333   Cl236   1.745   1_655 S
C335   F358    1.358   .     S
C335   C337    1.415   .     A
C336   C338    1.415   .     A
C336   F357    1.358   .     S
C337   C339    1.414   .     A
C337   C341    1.430   .     A
C338   C340    1.414   .     A
C338   C342    1.430   .     A
C339   C873    1.399   .     S
C340   C874    1.399   1_554 S
C341   C900    1.431   .     S
C342   C899    1.431   1_554 S
Cu343  O351    1.948   .     S
Cu343  N345    2.048   .     S
Cu343  O347    1.951   .     S
Cu343  O350    1.945   .     S
Cu343  O354    1.927   .     S
Cu344  O352    1.948   .     S
Cu344  N346    2.048   .     S
Cu344  O349    1.945   .     S
Cu344  O348    1.951   .     S
Cu344  O353    1.927   .     S
Cu344  Cu219   2.726   1_655 S
O349   C187    1.301   1_655 S
O352   C204    1.318   1_655 S
Cl359  C210    1.745   1_655 S
C373   C384    1.439   .     S
C373   O409    1.303   .     A
C373   O535    1.301   1_455 S
C374   O410    1.303   .     A
C374   C383    1.439   .     S
C374   O474    1.301   .     S
C375   C377    1.391   .     A
C375   Cl425   1.766   .     S
C375   C404    1.421   .     A
C376   C403    1.421   .     A
C376   C378    1.391   .     A
C376   Cl426   1.766   .     S
C377   F417    1.359   .     S
C377   C959    1.399   1_554 S
C378   F418    1.359   .     S
C378   C960    1.399   .     S
C379   F427    1.359   .     S
C379   C446    1.399   .     S
C380   F428    1.359   .     S
C380   C10     1.389   1_565 S
C380   C507    1.399   1_455 S
C381   C383    1.403   .     A
C381   Cl429   1.761   .     S
C381   C7      1.389   1_565 S
C382   C384    1.403   .     A
C382   Cl430   1.761   .     S
C383   C442    1.399   .     S
C384   C503    1.399   1_455 S
C385   Cl431   1.764   .     S
C385   C387    1.424   .     A
C385   N408    1.371   .     A
C386   Cl432   1.764   .     S
C386   C388    1.424   .     A
C386   N407    1.371   .     A
C387   Cl433   1.756   .     S
C387   N407    1.381   .     A
C388   N408    1.381   .     A
C388   Cl434   1.756   .     S
C389   O415    1.312   .     A
C389   C391    1.492   .     S
C389   O475    1.318   .     S
C390   C392    1.492   .     S
C390   O416    1.312   .     A
C390   O538    1.318   1_455 S
C391   C395    1.411   .     A
C391   C397    1.406   .     A
C392   C398    1.406   .     A
C392   C396    1.411   .     A
C393   F423    1.360   .     S
C393   C395    1.395   .     A
C393   C401    1.403   .     A
C394   C396    1.395   .     A
C394   F424    1.360   .     S
C394   C402    1.403   .     A
C395   Cl484   1.745   .     S
C396   Cl545   1.745   1_455 S
C397   F420    1.358   .     S
C397   C399    1.415   .     A
C398   C400    1.415   .     A
C398   F419    1.358   .     S
C399   C401    1.414   .     A
C399   C403    1.430   .     A
C400   C402    1.414   .     A
C400   C404    1.430   .     A
C401   C935    1.399   .     S
C402   C936    1.399   1_554 S
C403   C962    1.431   .     S
C404   C961    1.431   1_554 S
Cu405  O413    1.948   .     S
Cu405  N407    2.048   .     S
Cu405  O409    1.951   .     S
Cu405  O412    1.945   .     S
Cu405  O416    1.927   .     S
Cu405  Cu530   2.726   1_455 S
Cu406  O414    1.948   .     S
Cu406  N408    2.048   .     S
Cu406  O411    1.945   .     S
Cu406  O410    1.951   .     S
Cu406  O415    1.927   .     S
Cu406  Cu467   2.726   .     S
O411   C435    1.301   .     S
O412   C498    1.301   1_455 S
O413   C513    1.318   1_455 S
O414   C452    1.318   .     S
Cl421  C458    1.745   .     S
Cl422  C519    1.745   1_455 S
C435   C446    1.439   .     S
C435   O471    1.303   .     A
C436   O472    1.303   .     A
C436   C445    1.439   .     S
C436   O536    1.301   .     S
C437   C439    1.391   .     A
C437   Cl487   1.766   .     S
C437   C466    1.421   .     A
C438   C465    1.421   .     A
C438   C440    1.391   .     A
C438   Cl488   1.766   .     S
C439   F479    1.359   .     S
C439   C1021   1.399   1_554 S
C440   F480    1.359   .     S
C440   C1022   1.399   .     S
C441   F489    1.359   .     S
C441   C508    1.399   .     S
C442   F490    1.359   .     S
C442   C72     1.389   1_565 S
C443   C445    1.403   .     A
C443   Cl491   1.761   .     S
C443   C69     1.389   1_565 S
C444   C446    1.403   .     A
C444   Cl492   1.761   .     S
C445   C504    1.399   .     S
C447   Cl493   1.764   .     S
C447   C449    1.424   .     A
C447   N470    1.371   .     A
C448   Cl494   1.764   .     S
C448   C450    1.424   .     A
C448   N469    1.371   .     A
C449   Cl495   1.756   .     S
C449   N469    1.381   .     A
C450   N470    1.381   .     A
C450   Cl496   1.756   .     S
C451   O477    1.312   .     A
C451   C453    1.492   .     S
C451   O537    1.318   .     S
C452   C454    1.492   .     S
C452   O478    1.312   .     A
C453   C457    1.411   .     A
C453   C459    1.406   .     A
C454   C460    1.406   .     A
C454   C458    1.411   .     A
C455   F485    1.360   .     S
C455   C457    1.395   .     A
C455   C463    1.403   .     A
C456   C458    1.395   .     A
C456   F486    1.360   .     S
C456   C464    1.403   .     A
C457   Cl546   1.745   .     S
C459   F482    1.358   .     S
C459   C461    1.415   .     A
C460   C462    1.415   .     A
C460   F481    1.358   .     S
C461   C463    1.414   .     A
C461   C465    1.430   .     A
C462   C464    1.414   .     A
C462   C466    1.430   .     A
C463   C997    1.399   .     S
C464   C998    1.399   1_554 S
C465   C1024   1.431   .     S
C466   C1023   1.431   1_554 S
Cu467  O475    1.948   .     S
Cu467  N469    2.048   .     S
Cu467  O471    1.951   .     S
Cu467  O474    1.945   .     S
Cu467  O478    1.927   .     S
Cu468  O476    1.948   .     S
Cu468  N470    2.048   .     S
Cu468  O473    1.945   .     S
Cu468  O472    1.951   .     S
Cu468  O477    1.927   .     S
Cu468  Cu529   2.726   .     S
O473   C497    1.301   .     S
O476   C514    1.318   .     S
Cl483  C520    1.745   .     S
C497   C508    1.439   .     S
C497   O533    1.303   .     A
C498   O534    1.303   .     A
C498   C507    1.439   .     S
C498   O412    1.301   1_655 S
C499   C501    1.391   .     A
C499   Cl549   1.766   .     S
C499   C528    1.421   .     A
C500   C527    1.421   .     A
C500   C502    1.391   .     A
C500   Cl550   1.766   .     S
C501   F541    1.359   .     S
C501   C1083   1.399   1_554 S
C502   F542    1.359   .     S
C502   C1084   1.399   .     S
C503   F551    1.359   .     S
C503   C384    1.399   1_655 S
C504   F552    1.359   .     S
C504   C134    1.389   1_565 S
C505   C507    1.403   .     A
C505   Cl553   1.761   .     S
C505   C131    1.389   1_565 S
C506   C508    1.403   .     A
C506   Cl554   1.761   .     S
C507   C380    1.399   1_655 S
C509   Cl555   1.764   .     S
C509   C511    1.424   .     A
C509   N532    1.371   .     A
C510   Cl556   1.764   .     S
C510   C512    1.424   .     A
C510   N531    1.371   .     A
C511   Cl557   1.756   .     S
C511   N531    1.381   .     A
C512   N532    1.381   .     A
C512   Cl558   1.756   .     S
C513   O539    1.312   .     A
C513   C515    1.492   .     S
C513   O413    1.318   1_655 S
C514   C516    1.492   .     S
C514   O540    1.312   .     A
C515   C519    1.411   .     A
C515   C521    1.406   .     A
C516   C522    1.406   .     A
C516   C520    1.411   .     A
C517   F547    1.360   .     S
C517   C519    1.395   .     A
C517   C525    1.403   .     A
C518   C520    1.395   .     A
C518   F548    1.360   .     S
C518   C526    1.403   .     A
C519   Cl422   1.745   1_655 S
C521   F544    1.358   .     S
C521   C523    1.415   .     A
C522   C524    1.415   .     A
C522   F543    1.358   .     S
C523   C525    1.414   .     A
C523   C527    1.430   .     A
C524   C526    1.414   .     A
C524   C528    1.430   .     A
C525   C1059   1.399   .     S
C526   C1060   1.399   1_554 S
C527   C1086   1.431   .     S
C528   C1085   1.431   1_554 S
Cu529  O537    1.948   .     S
Cu529  N531    2.048   .     S
Cu529  O533    1.951   .     S
Cu529  O536    1.945   .     S
Cu529  O540    1.927   .     S
Cu530  O538    1.948   .     S
Cu530  N532    2.048   .     S
Cu530  O535    1.945   .     S
Cu530  O534    1.951   .     S
Cu530  O539    1.927   .     S
Cu530  Cu405   2.726   1_655 S
O535   C373    1.301   1_655 S
O538   C390    1.318   1_655 S
Cl545  C396    1.745   1_655 S
C559   C570    1.439   .     S
C559   O595    1.303   .     A
C559   O721    1.301   1_455 S
C560   O596    1.303   .     A
C560   C569    1.439   .     S
C560   O660    1.301   .     S
C561   C563    1.391   .     A
C561   Cl611   1.766   .     S
C561   C590    1.421   .     A
C562   C589    1.421   .     A
C562   C564    1.391   .     A
C562   Cl612   1.766   .     S
C563   F603    1.359   .     S
C564   F604    1.359   .     S
C564   C30     1.399   1_556 S
C565   F613    1.359   .     S
C565   C939    1.389   1_545 S
C565   C632    1.399   .     S
C566   F614    1.359   .     S
C566   C754    1.389   .     S
C566   C693    1.399   1_455 S
C567   C569    1.403   .     A
C567   Cl615   1.761   .     S
C567   C751    1.389   .     S
C568   C570    1.403   .     A
C568   Cl616   1.761   .     S
C568   C938    1.389   1_545 S
C569   C628    1.399   .     S
C570   C689    1.399   1_455 S
C571   Cl617   1.764   .     S
C571   C573    1.424   .     A
C571   N594    1.371   .     A
C572   Cl618   1.764   .     S
C572   C574    1.424   .     A
C572   N593    1.371   .     A
C573   Cl619   1.756   .     S
C573   N593    1.381   .     A
C574   N594    1.381   .     A
C574   Cl620   1.756   .     S
C575   O601    1.312   .     A
C575   C577    1.492   .     S
C575   O661    1.318   .     S
C576   C578    1.492   .     S
C576   O602    1.312   .     A
C576   O724    1.318   1_455 S
C577   C581    1.411   .     A
C577   C583    1.406   .     A
C578   C584    1.406   .     A
C578   C582    1.411   .     A
C579   F609    1.360   .     S
C579   C581    1.395   .     A
C579   C587    1.403   .     A
C580   C582    1.395   .     A
C580   F610    1.360   .     S
C580   C588    1.403   .     A
C581   Cl670   1.745   .     S
C582   Cl731   1.745   1_455 S
C583   F606    1.358   .     S
C583   C585    1.415   .     A
C584   C586    1.415   .     A
C584   F605    1.358   .     S
C585   C587    1.414   .     A
C585   C589    1.430   .     A
C586   C588    1.414   .     A
C586   C590    1.430   .     A
C587   C5      1.399   1_556 S
C589   C32     1.431   1_556 S
Cu591  O599    1.948   .     S
Cu591  N593    2.048   .     S
Cu591  O595    1.951   .     S
Cu591  O598    1.945   .     S
Cu591  O602    1.927   .     S
Cu591  Cu716   2.726   1_455 S
Cu592  O600    1.948   .     S
Cu592  N594    2.048   .     S
Cu592  O597    1.945   .     S
Cu592  O596    1.951   .     S
Cu592  O601    1.927   .     S
Cu592  Cu653   2.726   .     S
O597   C621    1.301   .     S
O598   C684    1.301   1_455 S
O599   C699    1.318   1_455 S
O600   C638    1.318   .     S
Cl607  C644    1.745   .     S
Cl608  C705    1.745   1_455 S
C621   C632    1.439   .     S
C621   O657    1.303   .     A
C622   O658    1.303   .     A
C622   C631    1.439   .     S
C622   O722    1.301   .     S
C623   C625    1.391   .     A
C623   Cl673   1.766   .     S
C623   C652    1.421   .     A
C624   C651    1.421   .     A
C624   C626    1.391   .     A
C624   Cl674   1.766   .     S
C625   F665    1.359   .     S
C626   F666    1.359   .     S
C626   C92     1.399   1_556 S
C627   F675    1.359   .     S
C627   C1001   1.389   1_545 S
C627   C694    1.399   .     S
C628   F676    1.359   .     S
C628   C816    1.389   .     S
C629   C631    1.403   .     A
C629   Cl677   1.761   .     S
C629   C813    1.389   .     S
C630   C632    1.403   .     A
C630   Cl678   1.761   .     S
C630   C1000   1.389   1_545 S
C631   C690    1.399   .     S
C633   Cl679   1.764   .     S
C633   C635    1.424   .     A
C633   N656    1.371   .     A
C634   Cl680   1.764   .     S
C634   C636    1.424   .     A
C634   N655    1.371   .     A
C635   Cl681   1.756   .     S
C635   N655    1.381   .     A
C636   N656    1.381   .     A
C636   Cl682   1.756   .     S
C637   O663    1.312   .     A
C637   C639    1.492   .     S
C637   O723    1.318   .     S
C638   C640    1.492   .     S
C638   O664    1.312   .     A
C639   C643    1.411   .     A
C639   C645    1.406   .     A
C640   C646    1.406   .     A
C640   C644    1.411   .     A
C641   F671    1.360   .     S
C641   C643    1.395   .     A
C641   C649    1.403   .     A
C642   C644    1.395   .     A
C642   F672    1.360   .     S
C642   C650    1.403   .     A
C643   Cl732   1.745   .     S
C645   F668    1.358   .     S
C645   C647    1.415   .     A
C646   C648    1.415   .     A
C646   F667    1.358   .     S
C647   C649    1.414   .     A
C647   C651    1.430   .     A
C648   C650    1.414   .     A
C648   C652    1.430   .     A
C649   C67     1.399   1_556 S
C651   C94     1.431   1_556 S
Cu653  O661    1.948   .     S
Cu653  N655    2.048   .     S
Cu653  O657    1.951   .     S
Cu653  O660    1.945   .     S
Cu653  O664    1.927   .     S
Cu654  O662    1.948   .     S
Cu654  N656    2.048   .     S
Cu654  O659    1.945   .     S
Cu654  O658    1.951   .     S
Cu654  O663    1.927   .     S
Cu654  Cu715   2.726   .     S
O659   C683    1.301   .     S
O662   C700    1.318   .     S
Cl669  C706    1.745   .     S
C683   C694    1.439   .     S
C683   O719    1.303   .     A
C684   O720    1.303   .     A
C684   C693    1.439   .     S
C684   O598    1.301   1_655 S
C685   C687    1.391   .     A
C685   Cl735   1.766   .     S
C685   C714    1.421   .     A
C686   C713    1.421   .     A
C686   C688    1.391   .     A
C686   Cl736   1.766   .     S
C687   F727    1.359   .     S
C688   F728    1.359   .     S
C688   C154    1.399   1_556 S
C689   F737    1.359   .     S
C689   C1063   1.389   1_545 S
C689   C570    1.399   1_655 S
C690   F738    1.359   .     S
C690   C878    1.389   .     S
C691   C693    1.403   .     A
C691   Cl739   1.761   .     S
C691   C875    1.389   .     S
C692   C694    1.403   .     A
C692   Cl740   1.761   .     S
C692   C1062   1.389   1_545 S
C693   C566    1.399   1_655 S
C695   Cl741   1.764   .     S
C695   C697    1.424   .     A
C695   N718    1.371   .     A
C696   Cl742   1.764   .     S
C696   C698    1.424   .     A
C696   N717    1.371   .     A
C697   Cl743   1.756   .     S
C697   N717    1.381   .     A
C698   N718    1.381   .     A
C698   Cl744   1.756   .     S
C699   O725    1.312   .     A
C699   C701    1.492   .     S
C699   O599    1.318   1_655 S
C700   C702    1.492   .     S
C700   O726    1.312   .     A
C701   C705    1.411   .     A
C701   C707    1.406   .     A
C702   C708    1.406   .     A
C702   C706    1.411   .     A
C703   F733    1.360   .     S
C703   C705    1.395   .     A
C703   C711    1.403   .     A
C704   C706    1.395   .     A
C704   F734    1.360   .     S
C704   C712    1.403   .     A
C705   Cl608   1.745   1_655 S
C707   F730    1.358   .     S
C707   C709    1.415   .     A
C708   C710    1.415   .     A
C708   F729    1.358   .     S
C709   C711    1.414   .     A
C709   C713    1.430   .     A
C710   C712    1.414   .     A
C710   C714    1.430   .     A
C711   C129    1.399   1_556 S
C713   C156    1.431   1_556 S
Cu715  O723    1.948   .     S
Cu715  N717    2.048   .     S
Cu715  O719    1.951   .     S
Cu715  O722    1.945   .     S
Cu715  O726    1.927   .     S
Cu716  O724    1.948   .     S
Cu716  N718    2.048   .     S
Cu716  O721    1.945   .     S
Cu716  O720    1.951   .     S
Cu716  O725    1.927   .     S
Cu716  Cu591   2.726   1_655 S
O721   C559    1.301   1_655 S
O724   C576    1.318   1_655 S
Cl731  C582    1.745   1_655 S
C745   C756    1.439   .     S
C745   O781    1.303   .     A
C745   O907    1.301   1_455 S
C746   O782    1.303   .     A
C746   C755    1.439   .     S
C746   O846    1.301   .     S
C747   C749    1.391   .     A
C747   Cl797   1.766   .     S
C747   C776    1.421   .     A
C748   C775    1.421   .     A
C748   C750    1.391   .     A
C748   Cl798   1.766   .     S
C749   F789    1.359   .     S
C750   F790    1.359   .     S
C750   C216    1.399   1_556 S
C751   F799    1.359   .     S
C751   C818    1.399   .     S
C752   F800    1.359   .     S
C752   C940    1.389   .     S
C752   C879    1.399   1_455 S
C753   C755    1.403   .     A
C753   Cl801   1.761   .     S
C753   C937    1.389   .     S
C754   C756    1.403   .     A
C754   Cl802   1.761   .     S
C755   C814    1.399   .     S
C756   C875    1.399   1_455 S
C757   Cl803   1.764   .     S
C757   C759    1.424   .     A
C757   N780    1.371   .     A
C758   Cl804   1.764   .     S
C758   C760    1.424   .     A
C758   N779    1.371   .     A
C759   Cl805   1.756   .     S
C759   N779    1.381   .     A
C760   N780    1.381   .     A
C760   Cl806   1.756   .     S
C761   O787    1.312   .     A
C761   C763    1.492   .     S
C761   O847    1.318   .     S
C762   C764    1.492   .     S
C762   O788    1.312   .     A
C762   O910    1.318   1_455 S
C763   C767    1.411   .     A
C763   C769    1.406   .     A
C764   C770    1.406   .     A
C764   C768    1.411   .     A
C765   F795    1.360   .     S
C765   C767    1.395   .     A
C765   C773    1.403   .     A
C766   C768    1.395   .     A
C766   F796    1.360   .     S
C766   C774    1.403   .     A
C767   Cl856   1.745   .     S
C768   Cl917   1.745   1_455 S
C769   F792    1.358   .     S
C769   C771    1.415   .     A
C770   C772    1.415   .     A
C770   F791    1.358   .     S
C771   C773    1.414   .     A
C771   C775    1.430   .     A
C772   C774    1.414   .     A
C772   C776    1.430   .     A
C773   C191    1.399   1_556 S
C775   C218    1.431   1_556 S
Cu777  O785    1.948   .     S
Cu777  N779    2.048   .     S
Cu777  O781    1.951   .     S
Cu777  O784    1.945   .     S
Cu777  O788    1.927   .     S
Cu777  Cu902   2.726   1_455 S
Cu778  O786    1.948   .     S
Cu778  N780    2.048   .     S
Cu778  O783    1.945   .     S
Cu778  O782    1.951   .     S
Cu778  O787    1.927   .     S
Cu778  Cu839   2.726   .     S
O783   C807    1.301   .     S
O784   C870    1.301   1_455 S
O785   C885    1.318   1_455 S
O786   C824    1.318   .     S
Cl793  C830    1.745   .     S
Cl794  C891    1.745   1_455 S
C807   C818    1.439   .     S
C807   O843    1.303   .     A
C808   O844    1.303   .     A
C808   C817    1.439   .     S
C808   O908    1.301   .     S
C809   C811    1.391   .     A
C809   Cl859   1.766   .     S
C809   C838    1.421   .     A
C810   C837    1.421   .     A
C810   C812    1.391   .     A
C810   Cl860   1.766   .     S
C811   F851    1.359   .     S
C812   F852    1.359   .     S
C812   C278    1.399   1_556 S
C813   F861    1.359   .     S
C813   C880    1.399   .     S
C814   F862    1.359   .     S
C814   C1002   1.389   .     S
C815   C817    1.403   .     A
C815   Cl863   1.761   .     S
C815   C999    1.389   .     S
C816   C818    1.403   .     A
C816   Cl864   1.761   .     S
C817   C876    1.399   .     S
C819   Cl865   1.764   .     S
C819   C821    1.424   .     A
C819   N842    1.371   .     A
C820   Cl866   1.764   .     S
C820   C822    1.424   .     A
C820   N841    1.371   .     A
C821   Cl867   1.756   .     S
C821   N841    1.381   .     A
C822   N842    1.381   .     A
C822   Cl868   1.756   .     S
C823   O849    1.312   .     A
C823   C825    1.492   .     S
C823   O909    1.318   .     S
C824   C826    1.492   .     S
C824   O850    1.312   .     A
C825   C829    1.411   .     A
C825   C831    1.406   .     A
C826   C832    1.406   .     A
C826   C830    1.411   .     A
C827   F857    1.360   .     S
C827   C829    1.395   .     A
C827   C835    1.403   .     A
C828   C830    1.395   .     A
C828   F858    1.360   .     S
C828   C836    1.403   .     A
C829   Cl918   1.745   .     S
C831   F854    1.358   .     S
C831   C833    1.415   .     A
C832   C834    1.415   .     A
C832   F853    1.358   .     S
C833   C835    1.414   .     A
C833   C837    1.430   .     A
C834   C836    1.414   .     A
C834   C838    1.430   .     A
C835   C253    1.399   1_556 S
C837   C280    1.431   1_556 S
Cu839  O847    1.948   .     S
Cu839  N841    2.048   .     S
Cu839  O843    1.951   .     S
Cu839  O846    1.945   .     S
Cu839  O850    1.927   .     S
Cu840  O848    1.948   .     S
Cu840  N842    2.048   .     S
Cu840  O845    1.945   .     S
Cu840  O844    1.951   .     S
Cu840  O849    1.927   .     S
Cu840  Cu901   2.726   .     S
O845   C869    1.301   .     S
O848   C886    1.318   .     S
Cl855  C892    1.745   .     S
C869   C880    1.439   .     S
C869   O905    1.303   .     A
C870   O906    1.303   .     A
C870   C879    1.439   .     S
C870   O784    1.301   1_655 S
C871   C873    1.391   .     A
C871   Cl921   1.766   .     S
C871   C900    1.421   .     A
C872   C899    1.421   .     A
C872   C874    1.391   .     A
C872   Cl922   1.766   .     S
C873   F913    1.359   .     S
C874   F914    1.359   .     S
C874   C340    1.399   1_556 S
C875   F923    1.359   .     S
C875   C756    1.399   1_655 S
C876   F924    1.359   .     S
C876   C1064   1.389   .     S
C877   C879    1.403   .     A
C877   Cl925   1.761   .     S
C877   C1061   1.389   .     S
C878   C880    1.403   .     A
C878   Cl926   1.761   .     S
C879   C752    1.399   1_655 S
C881   Cl927   1.764   .     S
C881   C883    1.424   .     A
C881   N904    1.371   .     A
C882   Cl928   1.764   .     S
C882   C884    1.424   .     A
C882   N903    1.371   .     A
C883   Cl929   1.756   .     S
C883   N903    1.381   .     A
C884   N904    1.381   .     A
C884   Cl930   1.756   .     S
C885   O911    1.312   .     A
C885   C887    1.492   .     S
C885   O785    1.318   1_655 S
C886   C888    1.492   .     S
C886   O912    1.312   .     A
C887   C891    1.411   .     A
C887   C893    1.406   .     A
C888   C894    1.406   .     A
C888   C892    1.411   .     A
C889   F919    1.360   .     S
C889   C891    1.395   .     A
C889   C897    1.403   .     A
C890   C892    1.395   .     A
C890   F920    1.360   .     S
C890   C898    1.403   .     A
C891   Cl794   1.745   1_655 S
C893   F916    1.358   .     S
C893   C895    1.415   .     A
C894   C896    1.415   .     A
C894   F915    1.358   .     S
C895   C897    1.414   .     A
C895   C899    1.430   .     A
C896   C898    1.414   .     A
C896   C900    1.430   .     A
C897   C315    1.399   1_556 S
C899   C342    1.431   1_556 S
Cu901  O909    1.948   .     S
Cu901  N903    2.048   .     S
Cu901  O905    1.951   .     S
Cu901  O908    1.945   .     S
Cu901  O912    1.927   .     S
Cu902  O910    1.948   .     S
Cu902  N904    2.048   .     S
Cu902  O907    1.945   .     S
Cu902  O906    1.951   .     S
Cu902  O911    1.927   .     S
Cu902  Cu777   2.726   1_655 S
O907   C745    1.301   1_655 S
O910   C762    1.318   1_655 S
Cl917  C768    1.745   1_655 S
C931   C942    1.439   .     S
C931   O967    1.303   .     A
C931   O1093   1.301   1_455 S
C932   O968    1.303   .     A
C932   C941    1.439   .     S
C932   O1032   1.301   .     S
C933   C935    1.391   .     A
C933   Cl983   1.766   .     S
C933   C962    1.421   .     A
C934   C961    1.421   .     A
C934   C936    1.391   .     A
C934   Cl984   1.766   .     S
C935   F975    1.359   .     S
C936   F976    1.359   .     S
C936   C402    1.399   1_556 S
C937   F985    1.359   .     S
C937   C1004   1.399   .     S
C938   F986    1.359   .     S
C938   C568    1.389   1_565 S
C938   C1065   1.399   1_455 S
C939   C941    1.403   .     A
C939   Cl987   1.761   .     S
C939   C565    1.389   1_565 S
C940   C942    1.403   .     A
C940   Cl988   1.761   .     S
C941   C1000   1.399   .     S
C942   C1061   1.399   1_455 S
C943   Cl989   1.764   .     S
C943   C945    1.424   .     A
C943   N966    1.371   .     A
C944   Cl990   1.764   .     S
C944   C946    1.424   .     A
C944   N965    1.371   .     A
C945   Cl991   1.756   .     S
C945   N965    1.381   .     A
C946   N966    1.381   .     A
C946   Cl992   1.756   .     S
C947   O973    1.312   .     A
C947   C949    1.492   .     S
C947   O1033   1.318   .     S
C948   C950    1.492   .     S
C948   O974    1.312   .     A
C948   O1096   1.318   1_455 S
C949   C953    1.411   .     A
C949   C955    1.406   .     A
C950   C956    1.406   .     A
C950   C954    1.411   .     A
C951   F981    1.360   .     S
C951   C953    1.395   .     A
C951   C959    1.403   .     A
C952   C954    1.395   .     A
C952   F982    1.360   .     S
C952   C960    1.403   .     A
C953   Cl1042  1.745   .     S
C954   Cl1103  1.745   1_455 S
C955   F978    1.358   .     S
C955   C957    1.415   .     A
C956   C958    1.415   .     A
C956   F977    1.358   .     S
C957   C959    1.414   .     A
C957   C961    1.430   .     A
C958   C960    1.414   .     A
C958   C962    1.430   .     A
C959   C377    1.399   1_556 S
C961   C404    1.431   1_556 S
Cu963  O971    1.948   .     S
Cu963  N965    2.048   .     S
Cu963  O967    1.951   .     S
Cu963  O970    1.945   .     S
Cu963  O974    1.927   .     S
Cu963  Cu1088  2.726   1_455 S
Cu964  O972    1.948   .     S
Cu964  N966    2.048   .     S
Cu964  O969    1.945   .     S
Cu964  O968    1.951   .     S
Cu964  O973    1.927   .     S
Cu964  Cu1025  2.726   .     S
O969   C993    1.301   .     S
O970   C1056   1.301   1_455 S
O971   C1071   1.318   1_455 S
O972   C1010   1.318   .     S
Cl979  C1016   1.745   .     S
Cl980  C1077   1.745   1_455 S
C993   C1004   1.439   .     S
C993   O1029   1.303   .     A
C994   O1030   1.303   .     A
C994   C1003   1.439   .     S
C994   O1094   1.301   .     S
C995   C997    1.391   .     A
C995   Cl1045  1.766   .     S
C995   C1024   1.421   .     A
C996   C1023   1.421   .     A
C996   C998    1.391   .     A
C996   Cl1046  1.766   .     S
C997   F1037   1.359   .     S
C998   F1038   1.359   .     S
C998   C464    1.399   1_556 S
C999   F1047   1.359   .     S
C999   C1066   1.399   .     S
C1000  F1048   1.359   .     S
C1000  C630    1.389   1_565 S
C1001  C1003   1.403   .     A
C1001  Cl1049  1.761   .     S
C1001  C627    1.389   1_565 S
C1002  C1004   1.403   .     A
C1002  Cl1050  1.761   .     S
C1003  C1062   1.399   .     S
C1005  Cl1051  1.764   .     S
C1005  C1007   1.424   .     A
C1005  N1028   1.371   .     A
C1006  Cl1052  1.764   .     S
C1006  C1008   1.424   .     A
C1006  N1027   1.371   .     A
C1007  Cl1053  1.756   .     S
C1007  N1027   1.381   .     A
C1008  N1028   1.381   .     A
C1008  Cl1054  1.756   .     S
C1009  O1035   1.312   .     A
C1009  C1011   1.492   .     S
C1009  O1095   1.318   .     S
C1010  C1012   1.492   .     S
C1010  O1036   1.312   .     A
C1011  C1015   1.411   .     A
C1011  C1017   1.406   .     A
C1012  C1018   1.406   .     A
C1012  C1016   1.411   .     A
C1013  F1043   1.360   .     S
C1013  C1015   1.395   .     A
C1013  C1021   1.403   .     A
C1014  C1016   1.395   .     A
C1014  F1044   1.360   .     S
C1014  C1022   1.403   .     A
C1015  Cl1104  1.745   .     S
C1017  F1040   1.358   .     S
C1017  C1019   1.415   .     A
C1018  C1020   1.415   .     A
C1018  F1039   1.358   .     S
C1019  C1021   1.414   .     A
C1019  C1023   1.430   .     A
C1020  C1022   1.414   .     A
C1020  C1024   1.430   .     A
C1021  C439    1.399   1_556 S
C1023  C466    1.431   1_556 S
Cu1025 O1033   1.948   .     S
Cu1025 N1027   2.048   .     S
Cu1025 O1029   1.951   .     S
Cu1025 O1032   1.945   .     S
Cu1025 O1036   1.927   .     S
Cu1026 O1034   1.948   .     S
Cu1026 N1028   2.048   .     S
Cu1026 O1031   1.945   .     S
Cu1026 O1030   1.951   .     S
Cu1026 O1035   1.927   .     S
Cu1026 Cu1087  2.726   .     S
O1031  C1055   1.301   .     S
O1034  C1072   1.318   .     S
Cl1041 C1078   1.745   .     S
C1055  C1066   1.439   .     S
C1055  O1091   1.303   .     A
C1056  O1092   1.303   .     A
C1056  C1065   1.439   .     S
C1056  O970    1.301   1_655 S
C1057  C1059   1.391   .     A
C1057  Cl1107  1.766   .     S
C1057  C1086   1.421   .     A
C1058  C1085   1.421   .     A
C1058  C1060   1.391   .     A
C1058  Cl1108  1.766   .     S
C1059  F1099   1.359   .     S
C1060  F1100   1.359   .     S
C1060  C526    1.399   1_556 S
C1061  F1109   1.359   .     S
C1061  C942    1.399   1_655 S
C1062  F1110   1.359   .     S
C1062  C692    1.389   1_565 S
C1063  C1065   1.403   .     A
C1063  Cl1111  1.761   .     S
C1063  C689    1.389   1_565 S
C1064  C1066   1.403   .     A
C1064  Cl1112  1.761   .     S
C1065  C938    1.399   1_655 S
C1067  Cl1113  1.764   .     S
C1067  C1069   1.424   .     A
C1067  N1090   1.371   .     A
C1068  Cl1114  1.764   .     S
C1068  C1070   1.424   .     A
C1068  N1089   1.371   .     A
C1069  Cl1115  1.756   .     S
C1069  N1089   1.381   .     A
C1070  N1090   1.381   .     A
C1070  Cl1116  1.756   .     S
C1071  O1097   1.312   .     A
C1071  C1073   1.492   .     S
C1071  O971    1.318   1_655 S
C1072  C1074   1.492   .     S
C1072  O1098   1.312   .     A
C1073  C1077   1.411   .     A
C1073  C1079   1.406   .     A
C1074  C1080   1.406   .     A
C1074  C1078   1.411   .     A
C1075  F1105   1.360   .     S
C1075  C1077   1.395   .     A
C1075  C1083   1.403   .     A
C1076  C1078   1.395   .     A
C1076  F1106   1.360   .     S
C1076  C1084   1.403   .     A
C1077  Cl980   1.745   1_655 S
C1079  F1102   1.358   .     S
C1079  C1081   1.415   .     A
C1080  C1082   1.415   .     A
C1080  F1101   1.358   .     S
C1081  C1083   1.414   .     A
C1081  C1085   1.430   .     A
C1082  C1084   1.414   .     A
C1082  C1086   1.430   .     A
C1083  C501    1.399   1_556 S
C1085  C528    1.431   1_556 S
Cu1087 O1095   1.948   .     S
Cu1087 N1089   2.048   .     S
Cu1087 O1091   1.951   .     S
Cu1087 O1094   1.945   .     S
Cu1087 O1098   1.927   .     S
Cu1088 O1096   1.948   .     S
Cu1088 N1090   2.048   .     S
Cu1088 O1093   1.945   .     S
Cu1088 O1092   1.951   .     S
Cu1088 O1097   1.927   .     S
Cu1088 Cu963   2.726   1_655 S
O1093  C931    1.301   1_655 S
O1096  C948    1.318   1_655 S
Cl1103 C954    1.745   1_655 S
