data_str_m2_o1_o10_pcu_sym.31
_audit_creation_date              2020-01-03
_audit_creation_method            'Materials Studio'
_symmetry_space_group_name_H-M    'P1'
_symmetry_Int_Tables_number       1
_symmetry_cell_setting            triclinic
loop_
_symmetry_equiv_pos_as_xyz
  x,y,z
_cell_length_a                    26.3937
_cell_length_b                    32.3521
_cell_length_c                    28.7425
_cell_angle_alpha                 89.2664
_cell_angle_beta                  97.0780
_cell_angle_gamma                 91.9173
loop_
_atom_site_label
_atom_site_type_symbol
_atom_site_fract_x
_atom_site_fract_y
_atom_site_fract_z
_atom_site_U_iso_or_equiv
_atom_site_adp_type
_atom_site_occupancy
C1     C     0.16493   0.08748   0.16666   0.00000  Uiso   1.00
C2     C     0.19818   0.02301   0.20013   0.00000  Uiso   1.00
C3     C     0.16953   0.29057   0.16645   0.00000  Uiso   1.00
C4     C     0.16380   0.04276   0.16689   0.00000  Uiso   1.00
C5     C     0.13225   0.14284   0.02190   0.00000  Uiso   1.00
C6     C     0.20109   0.19050   0.31143   0.00000  Uiso   1.00
C7     C     0.13178   0.14237   0.30574   0.00000  Uiso   1.00
C8     C     0.20156   0.19096   0.02759   0.00000  Uiso   1.00
C9     C     0.09171   0.03965   0.09971   0.00000  Uiso   1.00
C10    C     0.24162   0.29368   0.23363   0.00000  Uiso   1.00
C11    C     0.09293   0.11453   0.27918   0.00000  Uiso   1.00
C12    C     0.16841   0.24585   0.16667   0.00000  Uiso   1.00
C13    C     0.24040   0.21880   0.05416   0.00000  Uiso   1.00
C14    C     0.06825   0.16612   0.15495   0.00000  Uiso   1.00
C15    C     0.26509   0.16722   0.17838   0.00000  Uiso   1.00
C16    C     0.01336   0.16173   0.14900   0.00000  Uiso   1.00
C17    C     0.31997   0.17161   0.18433   0.00000  Uiso   1.00
C18    C     0.13133   0.01983   0.13322   0.00000  Uiso   1.00
C19    C     0.20200   0.31351   0.20012   0.00000  Uiso   1.00
C20    C     0.13515   0.31033   0.13321   0.00000  Uiso   1.00
Cu21   Cu    0.16667   0.16667   0.21355   0.00000  Uiso   1.00
Cu22   Cu    0.16667   0.16666   0.11978   0.00000  Uiso   1.00
H23    H     0.10993   0.29194   0.10830   0.00000  Uiso   1.00
H24    H     0.25139   0.26183   0.22920   0.00000  Uiso   1.00
H25    H     0.09452   0.10658   0.24334   0.00000  Uiso   1.00
H26    H     0.23882   0.22675   0.08999   0.00000  Uiso   1.00
H27    H     0.22340   0.04140   0.22504   0.00000  Uiso   1.00
H28    H     0.10527   0.12376   0.03877   0.00000  Uiso   1.00
H29    H     0.22806   0.20957   0.29456   0.00000  Uiso   1.00
H30    H     0.33104   0.16316   0.07803   0.00000  Uiso   1.00
H31    H     0.00397   0.11518   0.10176   0.00000  Uiso   1.00
H32    H     0.00229   0.17017   0.25530   0.00000  Uiso   1.00
H33    H     0.32937   0.21815   0.23157   0.00000  Uiso   1.00
H34    H     0.08194   0.07151   0.10413   0.00000  Uiso   1.00
N35    N     0.16668   0.16668   0.28403   0.00000  Uiso   1.00
N36    N     0.16665   0.16666   0.04931   0.00000  Uiso   1.00
N37    N     0.32221   0.14419   0.10583   0.00000  Uiso   1.00
N38    N     0.01112   0.18914   0.22750   0.00000  Uiso   1.00
O39    O     0.16666   0.10655   0.20625   0.00000  Uiso   1.00
O40    O     0.26441   0.31293   0.26649   0.00000  Uiso   1.00
O41    O     0.05752   0.09920   0.29783   0.00000  Uiso   1.00
O42    O     0.27582   0.23413   0.03550   0.00000  Uiso   1.00
O43    O     0.16667   0.22678   0.12709   0.00000  Uiso   1.00
O44    O     0.16666   0.10654   0.12706   0.00000  Uiso   1.00
O45    O     0.16667   0.22679   0.20628   0.00000  Uiso   1.00
O46    O     0.09161   0.16667   0.19712   0.00000  Uiso   1.00
O47    O     0.24172   0.16666   0.13621   0.00000  Uiso   1.00
O48    O     0.09161   0.16666   0.11793   0.00000  Uiso   1.00
O49    O     0.24172   0.16667   0.21540   0.00000  Uiso   1.00
O50    O     0.06891   0.02040   0.06685   0.00000  Uiso   1.00
C51    C     0.49826   0.08748   0.16666   0.00000  Uiso   1.00
C52    C     0.53151   0.02301   0.20013   0.00000  Uiso   1.00
C53    C     0.50287   0.29057   0.16645   0.00000  Uiso   1.00
C54    C     0.49713   0.04276   0.16689   0.00000  Uiso   1.00
C55    C     0.46558   0.14284   0.02190   0.00000  Uiso   1.00
C56    C     0.53442   0.19050   0.31143   0.00000  Uiso   1.00
C57    C     0.46511   0.14237   0.30574   0.00000  Uiso   1.00
C58    C     0.53489   0.19096   0.02759   0.00000  Uiso   1.00
C59    C     0.42504   0.03965   0.09971   0.00000  Uiso   1.00
C60    C     0.57495   0.29368   0.23363   0.00000  Uiso   1.00
C61    C     0.42626   0.11453   0.27918   0.00000  Uiso   1.00
C62    C     0.50174   0.24585   0.16667   0.00000  Uiso   1.00
C63    C     0.57374   0.21880   0.05416   0.00000  Uiso   1.00
C64    C     0.40158   0.16612   0.15495   0.00000  Uiso   1.00
C65    C     0.59842   0.16722   0.17838   0.00000  Uiso   1.00
C66    C     0.34670   0.16173   0.14900   0.00000  Uiso   1.00
C67    C     0.65330   0.17161   0.18433   0.00000  Uiso   1.00
C68    C     0.46466   0.01983   0.13322   0.00000  Uiso   1.00
C69    C     0.53533   0.31351   0.20012   0.00000  Uiso   1.00
C70    C     0.46849   0.31033   0.13321   0.00000  Uiso   1.00
Cu71   Cu    0.50000   0.16667   0.21355   0.00000  Uiso   1.00
Cu72   Cu    0.50000   0.16666   0.11978   0.00000  Uiso   1.00
H73    H     0.44327   0.29194   0.10830   0.00000  Uiso   1.00
H74    H     0.58473   0.26183   0.22920   0.00000  Uiso   1.00
H75    H     0.42785   0.10658   0.24334   0.00000  Uiso   1.00
H76    H     0.57215   0.22675   0.08999   0.00000  Uiso   1.00
H77    H     0.55673   0.04140   0.22504   0.00000  Uiso   1.00
H78    H     0.43860   0.12376   0.03877   0.00000  Uiso   1.00
H79    H     0.56140   0.20957   0.29456   0.00000  Uiso   1.00
H80    H     0.66437   0.16316   0.07803   0.00000  Uiso   1.00
H81    H     0.33730   0.11518   0.10176   0.00000  Uiso   1.00
H82    H     0.33563   0.17017   0.25530   0.00000  Uiso   1.00
H83    H     0.66270   0.21815   0.23157   0.00000  Uiso   1.00
H84    H     0.41528   0.07151   0.10413   0.00000  Uiso   1.00
N85    N     0.50001   0.16668   0.28403   0.00000  Uiso   1.00
N86    N     0.49999   0.16666   0.04931   0.00000  Uiso   1.00
N87    N     0.65555   0.14419   0.10583   0.00000  Uiso   1.00
N88    N     0.34445   0.18914   0.22750   0.00000  Uiso   1.00
O89    O     0.50000   0.10655   0.20625   0.00000  Uiso   1.00
O90    O     0.59774   0.31293   0.26649   0.00000  Uiso   1.00
O91    O     0.39085   0.09920   0.29783   0.00000  Uiso   1.00
O92    O     0.60915   0.23413   0.03550   0.00000  Uiso   1.00
O93    O     0.50000   0.22678   0.12709   0.00000  Uiso   1.00
O94    O     0.50000   0.10654   0.12706   0.00000  Uiso   1.00
O95    O     0.50000   0.22679   0.20628   0.00000  Uiso   1.00
O96    O     0.42495   0.16667   0.19712   0.00000  Uiso   1.00
O97    O     0.57505   0.16666   0.13621   0.00000  Uiso   1.00
O98    O     0.42494   0.16666   0.11793   0.00000  Uiso   1.00
O99    O     0.57506   0.16667   0.21540   0.00000  Uiso   1.00
O100   O     0.40224   0.02040   0.06685   0.00000  Uiso   1.00
C101   C     0.83159   0.08748   0.16666   0.00000  Uiso   1.00
C102   C     0.86485   0.02301   0.20013   0.00000  Uiso   1.00
C103   C     0.83620   0.29057   0.16645   0.00000  Uiso   1.00
C104   C     0.83047   0.04276   0.16689   0.00000  Uiso   1.00
C105   C     0.79891   0.14284   0.02190   0.00000  Uiso   1.00
C106   C     0.86775   0.19050   0.31143   0.00000  Uiso   1.00
C107   C     0.79844   0.14237   0.30574   0.00000  Uiso   1.00
C108   C     0.86822   0.19096   0.02759   0.00000  Uiso   1.00
C109   C     0.75838   0.03965   0.09971   0.00000  Uiso   1.00
C110   C     0.90829   0.29368   0.23363   0.00000  Uiso   1.00
C111   C     0.75960   0.11453   0.27918   0.00000  Uiso   1.00
C112   C     0.83507   0.24585   0.16667   0.00000  Uiso   1.00
C113   C     0.90707   0.21880   0.05416   0.00000  Uiso   1.00
C114   C     0.73491   0.16612   0.15495   0.00000  Uiso   1.00
C115   C     0.93175   0.16722   0.17838   0.00000  Uiso   1.00
C116   C     0.68003   0.16173   0.14900   0.00000  Uiso   1.00
C117   C     0.98664   0.17161   0.18433   0.00000  Uiso   1.00
C118   C     0.79800   0.01983   0.13322   0.00000  Uiso   1.00
C119   C     0.86867   0.31351   0.20012   0.00000  Uiso   1.00
C120   C     0.80182   0.31033   0.13321   0.00000  Uiso   1.00
Cu121  Cu    0.83333   0.16667   0.21355   0.00000  Uiso   1.00
Cu122  Cu    0.83333   0.16666   0.11978   0.00000  Uiso   1.00
H123   H     0.77660   0.29194   0.10830   0.00000  Uiso   1.00
H124   H     0.91806   0.26183   0.22920   0.00000  Uiso   1.00
H125   H     0.76118   0.10658   0.24334   0.00000  Uiso   1.00
H126   H     0.90548   0.22675   0.08999   0.00000  Uiso   1.00
H127   H     0.89006   0.04140   0.22504   0.00000  Uiso   1.00
H128   H     0.77194   0.12376   0.03877   0.00000  Uiso   1.00
H129   H     0.89473   0.20957   0.29456   0.00000  Uiso   1.00
H130   H     0.99771   0.16316   0.07803   0.00000  Uiso   1.00
H131   H     0.67063   0.11518   0.10176   0.00000  Uiso   1.00
H132   H     0.66896   0.17017   0.25530   0.00000  Uiso   1.00
H133   H     0.99603   0.21815   0.23157   0.00000  Uiso   1.00
H134   H     0.74861   0.07151   0.10413   0.00000  Uiso   1.00
N135   N     0.83335   0.16668   0.28403   0.00000  Uiso   1.00
N136   N     0.83332   0.16666   0.04931   0.00000  Uiso   1.00
N137   N     0.98888   0.14419   0.10583   0.00000  Uiso   1.00
N138   N     0.67779   0.18914   0.22750   0.00000  Uiso   1.00
O139   O     0.83333   0.10655   0.20625   0.00000  Uiso   1.00
O140   O     0.93107   0.31293   0.26649   0.00000  Uiso   1.00
O141   O     0.72418   0.09920   0.29783   0.00000  Uiso   1.00
O142   O     0.94248   0.23413   0.03550   0.00000  Uiso   1.00
O143   O     0.83334   0.22678   0.12709   0.00000  Uiso   1.00
O144   O     0.83333   0.10654   0.12706   0.00000  Uiso   1.00
O145   O     0.83334   0.22679   0.20628   0.00000  Uiso   1.00
O146   O     0.75828   0.16667   0.19712   0.00000  Uiso   1.00
O147   O     0.90839   0.16666   0.13621   0.00000  Uiso   1.00
O148   O     0.75828   0.16666   0.11793   0.00000  Uiso   1.00
O149   O     0.90839   0.16667   0.21540   0.00000  Uiso   1.00
O150   O     0.73558   0.02040   0.06685   0.00000  Uiso   1.00
C151   C     0.16493   0.42081   0.16666   0.00000  Uiso   1.00
C152   C     0.19818   0.35634   0.20013   0.00000  Uiso   1.00
C153   C     0.16953   0.62391   0.16645   0.00000  Uiso   1.00
C154   C     0.16380   0.37609   0.16689   0.00000  Uiso   1.00
C155   C     0.13225   0.47617   0.02190   0.00000  Uiso   1.00
C156   C     0.20109   0.52383   0.31143   0.00000  Uiso   1.00
C157   C     0.13178   0.47571   0.30574   0.00000  Uiso   1.00
C158   C     0.20156   0.52429   0.02759   0.00000  Uiso   1.00
C159   C     0.09171   0.37299   0.09971   0.00000  Uiso   1.00
C160   C     0.24162   0.62701   0.23363   0.00000  Uiso   1.00
C161   C     0.09293   0.44786   0.27918   0.00000  Uiso   1.00
C162   C     0.16841   0.57919   0.16667   0.00000  Uiso   1.00
C163   C     0.24040   0.55214   0.05416   0.00000  Uiso   1.00
C164   C     0.06825   0.49945   0.15495   0.00000  Uiso   1.00
C165   C     0.26509   0.50055   0.17838   0.00000  Uiso   1.00
C166   C     0.01336   0.49506   0.14900   0.00000  Uiso   1.00
C167   C     0.31997   0.50494   0.18433   0.00000  Uiso   1.00
C168   C     0.13133   0.35316   0.13322   0.00000  Uiso   1.00
C169   C     0.20200   0.64684   0.20012   0.00000  Uiso   1.00
C170   C     0.13515   0.64366   0.13321   0.00000  Uiso   1.00
Cu171  Cu    0.16667   0.50001   0.21355   0.00000  Uiso   1.00
Cu172  Cu    0.16667   0.49999   0.11978   0.00000  Uiso   1.00
H173   H     0.10993   0.62527   0.10830   0.00000  Uiso   1.00
H174   H     0.25139   0.59516   0.22920   0.00000  Uiso   1.00
H175   H     0.09452   0.43992   0.24334   0.00000  Uiso   1.00
H176   H     0.23882   0.56008   0.08999   0.00000  Uiso   1.00
H177   H     0.22340   0.37473   0.22504   0.00000  Uiso   1.00
H178   H     0.10527   0.45710   0.03877   0.00000  Uiso   1.00
H179   H     0.22806   0.54290   0.29456   0.00000  Uiso   1.00
H180   H     0.33104   0.49649   0.07803   0.00000  Uiso   1.00
H181   H     0.00397   0.44851   0.10176   0.00000  Uiso   1.00
H182   H     0.00229   0.50351   0.25530   0.00000  Uiso   1.00
H183   H     0.32937   0.55149   0.23157   0.00000  Uiso   1.00
H184   H     0.08194   0.40484   0.10413   0.00000  Uiso   1.00
N185   N     0.16668   0.50001   0.28403   0.00000  Uiso   1.00
N186   N     0.16665   0.49999   0.04931   0.00000  Uiso   1.00
N187   N     0.32221   0.47753   0.10583   0.00000  Uiso   1.00
N188   N     0.01112   0.52247   0.22750   0.00000  Uiso   1.00
O189   O     0.16666   0.43989   0.20625   0.00000  Uiso   1.00
O190   O     0.26441   0.64626   0.26649   0.00000  Uiso   1.00
O191   O     0.05752   0.43253   0.29783   0.00000  Uiso   1.00
O192   O     0.27582   0.56747   0.03550   0.00000  Uiso   1.00
O193   O     0.16667   0.56011   0.12709   0.00000  Uiso   1.00
O194   O     0.16666   0.43988   0.12706   0.00000  Uiso   1.00
O195   O     0.16667   0.56012   0.20628   0.00000  Uiso   1.00
O196   O     0.09161   0.50000   0.19712   0.00000  Uiso   1.00
O197   O     0.24172   0.50000   0.13621   0.00000  Uiso   1.00
O198   O     0.09161   0.49999   0.11793   0.00000  Uiso   1.00
O199   O     0.24172   0.50001   0.21540   0.00000  Uiso   1.00
O200   O     0.06891   0.35373   0.06685   0.00000  Uiso   1.00
C201   C     0.49826   0.42081   0.16666   0.00000  Uiso   1.00
C202   C     0.53151   0.35634   0.20013   0.00000  Uiso   1.00
C203   C     0.50287   0.62391   0.16645   0.00000  Uiso   1.00
C204   C     0.49713   0.37609   0.16689   0.00000  Uiso   1.00
C205   C     0.46558   0.47617   0.02190   0.00000  Uiso   1.00
C206   C     0.53442   0.52383   0.31143   0.00000  Uiso   1.00
C207   C     0.46511   0.47571   0.30574   0.00000  Uiso   1.00
C208   C     0.53489   0.52429   0.02759   0.00000  Uiso   1.00
C209   C     0.42504   0.37299   0.09971   0.00000  Uiso   1.00
C210   C     0.57495   0.62701   0.23363   0.00000  Uiso   1.00
C211   C     0.42626   0.44786   0.27918   0.00000  Uiso   1.00
C212   C     0.50174   0.57919   0.16667   0.00000  Uiso   1.00
C213   C     0.57374   0.55214   0.05416   0.00000  Uiso   1.00
C214   C     0.40158   0.49945   0.15495   0.00000  Uiso   1.00
C215   C     0.59842   0.50055   0.17838   0.00000  Uiso   1.00
C216   C     0.34670   0.49506   0.14900   0.00000  Uiso   1.00
C217   C     0.65330   0.50494   0.18433   0.00000  Uiso   1.00
C218   C     0.46466   0.35316   0.13322   0.00000  Uiso   1.00
C219   C     0.53533   0.64684   0.20012   0.00000  Uiso   1.00
C220   C     0.46849   0.64366   0.13321   0.00000  Uiso   1.00
Cu221  Cu    0.50000   0.50001   0.21355   0.00000  Uiso   1.00
Cu222  Cu    0.50000   0.49999   0.11978   0.00000  Uiso   1.00
H223   H     0.44327   0.62527   0.10830   0.00000  Uiso   1.00
H224   H     0.58473   0.59516   0.22920   0.00000  Uiso   1.00
H225   H     0.42785   0.43992   0.24334   0.00000  Uiso   1.00
H226   H     0.57215   0.56008   0.08999   0.00000  Uiso   1.00
H227   H     0.55673   0.37473   0.22504   0.00000  Uiso   1.00
H228   H     0.43860   0.45710   0.03877   0.00000  Uiso   1.00
H229   H     0.56140   0.54290   0.29456   0.00000  Uiso   1.00
H230   H     0.66437   0.49649   0.07803   0.00000  Uiso   1.00
H231   H     0.33730   0.44851   0.10176   0.00000  Uiso   1.00
H232   H     0.33563   0.50351   0.25530   0.00000  Uiso   1.00
H233   H     0.66270   0.55149   0.23157   0.00000  Uiso   1.00
H234   H     0.41528   0.40484   0.10413   0.00000  Uiso   1.00
N235   N     0.50001   0.50001   0.28403   0.00000  Uiso   1.00
N236   N     0.49999   0.49999   0.04931   0.00000  Uiso   1.00
N237   N     0.65555   0.47753   0.10583   0.00000  Uiso   1.00
N238   N     0.34445   0.52247   0.22750   0.00000  Uiso   1.00
O239   O     0.50000   0.43989   0.20625   0.00000  Uiso   1.00
O240   O     0.59774   0.64626   0.26649   0.00000  Uiso   1.00
O241   O     0.39085   0.43253   0.29783   0.00000  Uiso   1.00
O242   O     0.60915   0.56747   0.03550   0.00000  Uiso   1.00
O243   O     0.50000   0.56011   0.12709   0.00000  Uiso   1.00
O244   O     0.50000   0.43988   0.12706   0.00000  Uiso   1.00
O245   O     0.50000   0.56012   0.20628   0.00000  Uiso   1.00
O246   O     0.42495   0.50000   0.19712   0.00000  Uiso   1.00
O247   O     0.57505   0.50000   0.13621   0.00000  Uiso   1.00
O248   O     0.42494   0.49999   0.11793   0.00000  Uiso   1.00
O249   O     0.57506   0.50001   0.21540   0.00000  Uiso   1.00
O250   O     0.40224   0.35373   0.06685   0.00000  Uiso   1.00
C251   C     0.83159   0.42081   0.16666   0.00000  Uiso   1.00
C252   C     0.86485   0.35634   0.20013   0.00000  Uiso   1.00
C253   C     0.83620   0.62391   0.16645   0.00000  Uiso   1.00
C254   C     0.83047   0.37609   0.16689   0.00000  Uiso   1.00
C255   C     0.79891   0.47617   0.02190   0.00000  Uiso   1.00
C256   C     0.86775   0.52383   0.31143   0.00000  Uiso   1.00
C257   C     0.79844   0.47571   0.30574   0.00000  Uiso   1.00
C258   C     0.86822   0.52429   0.02759   0.00000  Uiso   1.00
C259   C     0.75838   0.37299   0.09971   0.00000  Uiso   1.00
C260   C     0.90829   0.62701   0.23363   0.00000  Uiso   1.00
C261   C     0.75960   0.44786   0.27918   0.00000  Uiso   1.00
C262   C     0.83507   0.57919   0.16667   0.00000  Uiso   1.00
C263   C     0.90707   0.55214   0.05416   0.00000  Uiso   1.00
C264   C     0.73491   0.49945   0.15495   0.00000  Uiso   1.00
C265   C     0.93175   0.50055   0.17838   0.00000  Uiso   1.00
C266   C     0.68003   0.49506   0.14900   0.00000  Uiso   1.00
C267   C     0.98664   0.50494   0.18433   0.00000  Uiso   1.00
C268   C     0.79800   0.35316   0.13322   0.00000  Uiso   1.00
C269   C     0.86867   0.64684   0.20012   0.00000  Uiso   1.00
C270   C     0.80182   0.64366   0.13321   0.00000  Uiso   1.00
Cu271  Cu    0.83333   0.50001   0.21355   0.00000  Uiso   1.00
Cu272  Cu    0.83333   0.49999   0.11978   0.00000  Uiso   1.00
H273   H     0.77660   0.62527   0.10830   0.00000  Uiso   1.00
H274   H     0.91806   0.59516   0.22920   0.00000  Uiso   1.00
H275   H     0.76118   0.43992   0.24334   0.00000  Uiso   1.00
H276   H     0.90548   0.56008   0.08999   0.00000  Uiso   1.00
H277   H     0.89006   0.37473   0.22504   0.00000  Uiso   1.00
H278   H     0.77194   0.45710   0.03877   0.00000  Uiso   1.00
H279   H     0.89473   0.54290   0.29456   0.00000  Uiso   1.00
H280   H     0.99771   0.49649   0.07803   0.00000  Uiso   1.00
H281   H     0.67063   0.44851   0.10176   0.00000  Uiso   1.00
H282   H     0.66896   0.50351   0.25530   0.00000  Uiso   1.00
H283   H     0.99603   0.55149   0.23157   0.00000  Uiso   1.00
H284   H     0.74861   0.40484   0.10413   0.00000  Uiso   1.00
N285   N     0.83335   0.50001   0.28403   0.00000  Uiso   1.00
N286   N     0.83332   0.49999   0.04931   0.00000  Uiso   1.00
N287   N     0.98888   0.47753   0.10583   0.00000  Uiso   1.00
N288   N     0.67779   0.52247   0.22750   0.00000  Uiso   1.00
O289   O     0.83333   0.43989   0.20625   0.00000  Uiso   1.00
O290   O     0.93107   0.64626   0.26649   0.00000  Uiso   1.00
O291   O     0.72418   0.43253   0.29783   0.00000  Uiso   1.00
O292   O     0.94248   0.56747   0.03550   0.00000  Uiso   1.00
O293   O     0.83334   0.56011   0.12709   0.00000  Uiso   1.00
O294   O     0.83333   0.43988   0.12706   0.00000  Uiso   1.00
O295   O     0.83334   0.56012   0.20628   0.00000  Uiso   1.00
O296   O     0.75828   0.50000   0.19712   0.00000  Uiso   1.00
O297   O     0.90839   0.50000   0.13621   0.00000  Uiso   1.00
O298   O     0.75828   0.49999   0.11793   0.00000  Uiso   1.00
O299   O     0.90839   0.50001   0.21540   0.00000  Uiso   1.00
O300   O     0.73558   0.35373   0.06685   0.00000  Uiso   1.00
C301   C     0.16493   0.75415   0.16666   0.00000  Uiso   1.00
C302   C     0.19818   0.68967   0.20013   0.00000  Uiso   1.00
C303   C     0.16953   0.95724   0.16645   0.00000  Uiso   1.00
C304   C     0.16380   0.70943   0.16689   0.00000  Uiso   1.00
C305   C     0.13225   0.80950   0.02190   0.00000  Uiso   1.00
C306   C     0.20109   0.85716   0.31143   0.00000  Uiso   1.00
C307   C     0.13178   0.80904   0.30574   0.00000  Uiso   1.00
C308   C     0.20156   0.85762   0.02759   0.00000  Uiso   1.00
C309   C     0.09171   0.70632   0.09971   0.00000  Uiso   1.00
C310   C     0.24162   0.96034   0.23363   0.00000  Uiso   1.00
C311   C     0.09293   0.78120   0.27918   0.00000  Uiso   1.00
C312   C     0.16841   0.91252   0.16667   0.00000  Uiso   1.00
C313   C     0.24040   0.88547   0.05416   0.00000  Uiso   1.00
C314   C     0.06825   0.83278   0.15495   0.00000  Uiso   1.00
C315   C     0.26509   0.83388   0.17838   0.00000  Uiso   1.00
C316   C     0.01336   0.82839   0.14900   0.00000  Uiso   1.00
C317   C     0.31997   0.83827   0.18433   0.00000  Uiso   1.00
C318   C     0.13133   0.68649   0.13322   0.00000  Uiso   1.00
C319   C     0.20200   0.98017   0.20012   0.00000  Uiso   1.00
C320   C     0.13515   0.97699   0.13321   0.00000  Uiso   1.00
Cu321  Cu    0.16667   0.83334   0.21355   0.00000  Uiso   1.00
Cu322  Cu    0.16667   0.83333   0.11978   0.00000  Uiso   1.00
H323   H     0.10993   0.95860   0.10830   0.00000  Uiso   1.00
H324   H     0.25139   0.92850   0.22920   0.00000  Uiso   1.00
H325   H     0.09452   0.77325   0.24334   0.00000  Uiso   1.00
H326   H     0.23882   0.89342   0.08999   0.00000  Uiso   1.00
H327   H     0.22340   0.70806   0.22504   0.00000  Uiso   1.00
H328   H     0.10527   0.79043   0.03877   0.00000  Uiso   1.00
H329   H     0.22806   0.87624   0.29456   0.00000  Uiso   1.00
H330   H     0.33104   0.82983   0.07803   0.00000  Uiso   1.00
H331   H     0.00397   0.78185   0.10176   0.00000  Uiso   1.00
H332   H     0.00229   0.83684   0.25530   0.00000  Uiso   1.00
H333   H     0.32937   0.88482   0.23157   0.00000  Uiso   1.00
H334   H     0.08194   0.73817   0.10413   0.00000  Uiso   1.00
N335   N     0.16668   0.83334   0.28403   0.00000  Uiso   1.00
N336   N     0.16665   0.83332   0.04931   0.00000  Uiso   1.00
N337   N     0.32221   0.81086   0.10583   0.00000  Uiso   1.00
N338   N     0.01112   0.85581   0.22750   0.00000  Uiso   1.00
O339   O     0.16666   0.77322   0.20625   0.00000  Uiso   1.00
O340   O     0.26441   0.97960   0.26649   0.00000  Uiso   1.00
O341   O     0.05752   0.76587   0.29783   0.00000  Uiso   1.00
O342   O     0.27582   0.90080   0.03550   0.00000  Uiso   1.00
O343   O     0.16667   0.89345   0.12709   0.00000  Uiso   1.00
O344   O     0.16666   0.77321   0.12706   0.00000  Uiso   1.00
O345   O     0.16667   0.89346   0.20628   0.00000  Uiso   1.00
O346   O     0.09161   0.83334   0.19712   0.00000  Uiso   1.00
O347   O     0.24172   0.83333   0.13621   0.00000  Uiso   1.00
O348   O     0.09161   0.83333   0.11793   0.00000  Uiso   1.00
O349   O     0.24172   0.83334   0.21540   0.00000  Uiso   1.00
O350   O     0.06891   0.68706   0.06685   0.00000  Uiso   1.00
C351   C     0.49826   0.75415   0.16666   0.00000  Uiso   1.00
C352   C     0.53151   0.68967   0.20013   0.00000  Uiso   1.00
C353   C     0.50287   0.95724   0.16645   0.00000  Uiso   1.00
C354   C     0.49713   0.70943   0.16689   0.00000  Uiso   1.00
C355   C     0.46558   0.80950   0.02190   0.00000  Uiso   1.00
C356   C     0.53442   0.85716   0.31143   0.00000  Uiso   1.00
C357   C     0.46511   0.80904   0.30574   0.00000  Uiso   1.00
C358   C     0.53489   0.85762   0.02759   0.00000  Uiso   1.00
C359   C     0.42504   0.70632   0.09971   0.00000  Uiso   1.00
C360   C     0.57495   0.96034   0.23363   0.00000  Uiso   1.00
C361   C     0.42626   0.78120   0.27918   0.00000  Uiso   1.00
C362   C     0.50174   0.91252   0.16667   0.00000  Uiso   1.00
C363   C     0.57374   0.88547   0.05416   0.00000  Uiso   1.00
C364   C     0.40158   0.83278   0.15495   0.00000  Uiso   1.00
C365   C     0.59842   0.83388   0.17838   0.00000  Uiso   1.00
C366   C     0.34670   0.82839   0.14900   0.00000  Uiso   1.00
C367   C     0.65330   0.83827   0.18433   0.00000  Uiso   1.00
C368   C     0.46466   0.68649   0.13322   0.00000  Uiso   1.00
C369   C     0.53533   0.98017   0.20012   0.00000  Uiso   1.00
C370   C     0.46849   0.97699   0.13321   0.00000  Uiso   1.00
Cu371  Cu    0.50000   0.83334   0.21355   0.00000  Uiso   1.00
Cu372  Cu    0.50000   0.83333   0.11978   0.00000  Uiso   1.00
H373   H     0.44327   0.95860   0.10830   0.00000  Uiso   1.00
H374   H     0.58473   0.92850   0.22920   0.00000  Uiso   1.00
H375   H     0.42785   0.77325   0.24334   0.00000  Uiso   1.00
H376   H     0.57215   0.89342   0.08999   0.00000  Uiso   1.00
H377   H     0.55673   0.70806   0.22504   0.00000  Uiso   1.00
H378   H     0.43860   0.79043   0.03877   0.00000  Uiso   1.00
H379   H     0.56140   0.87624   0.29456   0.00000  Uiso   1.00
H380   H     0.66437   0.82983   0.07803   0.00000  Uiso   1.00
H381   H     0.33730   0.78185   0.10176   0.00000  Uiso   1.00
H382   H     0.33563   0.83684   0.25530   0.00000  Uiso   1.00
H383   H     0.66270   0.88482   0.23157   0.00000  Uiso   1.00
H384   H     0.41528   0.73817   0.10413   0.00000  Uiso   1.00
N385   N     0.50001   0.83334   0.28403   0.00000  Uiso   1.00
N386   N     0.49999   0.83332   0.04931   0.00000  Uiso   1.00
N387   N     0.65555   0.81086   0.10583   0.00000  Uiso   1.00
N388   N     0.34445   0.85581   0.22750   0.00000  Uiso   1.00
O389   O     0.50000   0.77322   0.20625   0.00000  Uiso   1.00
O390   O     0.59774   0.97960   0.26649   0.00000  Uiso   1.00
O391   O     0.39085   0.76587   0.29783   0.00000  Uiso   1.00
O392   O     0.60915   0.90080   0.03550   0.00000  Uiso   1.00
O393   O     0.50000   0.89345   0.12709   0.00000  Uiso   1.00
O394   O     0.50000   0.77321   0.12706   0.00000  Uiso   1.00
O395   O     0.50000   0.89346   0.20628   0.00000  Uiso   1.00
O396   O     0.42495   0.83334   0.19712   0.00000  Uiso   1.00
O397   O     0.57505   0.83333   0.13621   0.00000  Uiso   1.00
O398   O     0.42494   0.83333   0.11793   0.00000  Uiso   1.00
O399   O     0.57506   0.83334   0.21540   0.00000  Uiso   1.00
O400   O     0.40224   0.68706   0.06685   0.00000  Uiso   1.00
C401   C     0.83159   0.75415   0.16666   0.00000  Uiso   1.00
C402   C     0.86485   0.68967   0.20013   0.00000  Uiso   1.00
C403   C     0.83620   0.95724   0.16645   0.00000  Uiso   1.00
C404   C     0.83047   0.70943   0.16689   0.00000  Uiso   1.00
C405   C     0.79891   0.80950   0.02190   0.00000  Uiso   1.00
C406   C     0.86775   0.85716   0.31143   0.00000  Uiso   1.00
C407   C     0.79844   0.80904   0.30574   0.00000  Uiso   1.00
C408   C     0.86822   0.85762   0.02759   0.00000  Uiso   1.00
C409   C     0.75838   0.70632   0.09971   0.00000  Uiso   1.00
C410   C     0.90829   0.96034   0.23363   0.00000  Uiso   1.00
C411   C     0.75960   0.78120   0.27918   0.00000  Uiso   1.00
C412   C     0.83507   0.91252   0.16667   0.00000  Uiso   1.00
C413   C     0.90707   0.88547   0.05416   0.00000  Uiso   1.00
C414   C     0.73491   0.83278   0.15495   0.00000  Uiso   1.00
C415   C     0.93175   0.83388   0.17838   0.00000  Uiso   1.00
C416   C     0.68003   0.82839   0.14900   0.00000  Uiso   1.00
C417   C     0.98664   0.83827   0.18433   0.00000  Uiso   1.00
C418   C     0.79800   0.68649   0.13322   0.00000  Uiso   1.00
C419   C     0.86867   0.98017   0.20012   0.00000  Uiso   1.00
C420   C     0.80182   0.97699   0.13321   0.00000  Uiso   1.00
Cu421  Cu    0.83333   0.83334   0.21355   0.00000  Uiso   1.00
Cu422  Cu    0.83333   0.83333   0.11978   0.00000  Uiso   1.00
H423   H     0.77660   0.95860   0.10830   0.00000  Uiso   1.00
H424   H     0.91806   0.92850   0.22920   0.00000  Uiso   1.00
H425   H     0.76118   0.77325   0.24334   0.00000  Uiso   1.00
H426   H     0.90548   0.89342   0.08999   0.00000  Uiso   1.00
H427   H     0.89006   0.70806   0.22504   0.00000  Uiso   1.00
H428   H     0.77194   0.79043   0.03877   0.00000  Uiso   1.00
H429   H     0.89473   0.87624   0.29456   0.00000  Uiso   1.00
H430   H     0.99771   0.82983   0.07803   0.00000  Uiso   1.00
H431   H     0.67063   0.78185   0.10176   0.00000  Uiso   1.00
H432   H     0.66896   0.83684   0.25530   0.00000  Uiso   1.00
H433   H     0.99603   0.88482   0.23157   0.00000  Uiso   1.00
H434   H     0.74861   0.73817   0.10413   0.00000  Uiso   1.00
N435   N     0.83335   0.83334   0.28403   0.00000  Uiso   1.00
N436   N     0.83332   0.83332   0.04931   0.00000  Uiso   1.00
N437   N     0.98888   0.81086   0.10583   0.00000  Uiso   1.00
N438   N     0.67779   0.85581   0.22750   0.00000  Uiso   1.00
O439   O     0.83333   0.77322   0.20625   0.00000  Uiso   1.00
O440   O     0.93107   0.97960   0.26649   0.00000  Uiso   1.00
O441   O     0.72418   0.76587   0.29783   0.00000  Uiso   1.00
O442   O     0.94248   0.90080   0.03550   0.00000  Uiso   1.00
O443   O     0.83334   0.89345   0.12709   0.00000  Uiso   1.00
O444   O     0.83333   0.77321   0.12706   0.00000  Uiso   1.00
O445   O     0.83334   0.89346   0.20628   0.00000  Uiso   1.00
O446   O     0.75828   0.83334   0.19712   0.00000  Uiso   1.00
O447   O     0.90839   0.83333   0.13621   0.00000  Uiso   1.00
O448   O     0.75828   0.83333   0.11793   0.00000  Uiso   1.00
O449   O     0.90839   0.83334   0.21540   0.00000  Uiso   1.00
O450   O     0.73558   0.68706   0.06685   0.00000  Uiso   1.00
C451   C     0.16493   0.08748   0.50000   0.00000  Uiso   1.00
C452   C     0.19818   0.02301   0.53346   0.00000  Uiso   1.00
C453   C     0.16953   0.29057   0.49978   0.00000  Uiso   1.00
C454   C     0.16380   0.04276   0.50022   0.00000  Uiso   1.00
C455   C     0.13225   0.14284   0.35523   0.00000  Uiso   1.00
C456   C     0.20109   0.19050   0.64477   0.00000  Uiso   1.00
C457   C     0.13178   0.14237   0.63907   0.00000  Uiso   1.00
C458   C     0.20156   0.19096   0.36093   0.00000  Uiso   1.00
C459   C     0.09171   0.03965   0.43304   0.00000  Uiso   1.00
C460   C     0.24162   0.29368   0.56696   0.00000  Uiso   1.00
C461   C     0.09293   0.11453   0.61251   0.00000  Uiso   1.00
C462   C     0.16841   0.24585   0.50000   0.00000  Uiso   1.00
C463   C     0.24040   0.21880   0.38749   0.00000  Uiso   1.00
C464   C     0.06825   0.16612   0.48829   0.00000  Uiso   1.00
C465   C     0.26509   0.16722   0.51171   0.00000  Uiso   1.00
C466   C     0.01336   0.16173   0.48233   0.00000  Uiso   1.00
C467   C     0.31997   0.17161   0.51767   0.00000  Uiso   1.00
C468   C     0.13133   0.01983   0.46655   0.00000  Uiso   1.00
C469   C     0.20200   0.31351   0.53345   0.00000  Uiso   1.00
C470   C     0.13515   0.31033   0.46654   0.00000  Uiso   1.00
Cu471  Cu    0.16667   0.16667   0.54689   0.00000  Uiso   1.00
Cu472  Cu    0.16667   0.16666   0.45311   0.00000  Uiso   1.00
H473   H     0.10993   0.29194   0.44163   0.00000  Uiso   1.00
H474   H     0.25139   0.26183   0.56253   0.00000  Uiso   1.00
H475   H     0.09452   0.10658   0.57667   0.00000  Uiso   1.00
H476   H     0.23882   0.22675   0.42333   0.00000  Uiso   1.00
H477   H     0.22340   0.04140   0.55837   0.00000  Uiso   1.00
H478   H     0.10527   0.12376   0.37210   0.00000  Uiso   1.00
H479   H     0.22806   0.20957   0.62790   0.00000  Uiso   1.00
H480   H     0.33104   0.16316   0.41136   0.00000  Uiso   1.00
H481   H     0.00397   0.11518   0.43509   0.00000  Uiso   1.00
H482   H     0.00229   0.17017   0.58864   0.00000  Uiso   1.00
H483   H     0.32937   0.21815   0.56491   0.00000  Uiso   1.00
H484   H     0.08194   0.07151   0.43746   0.00000  Uiso   1.00
N485   N     0.16668   0.16668   0.61736   0.00000  Uiso   1.00
N486   N     0.16665   0.16666   0.38264   0.00000  Uiso   1.00
N487   N     0.32221   0.14419   0.43916   0.00000  Uiso   1.00
N488   N     0.01112   0.18914   0.56084   0.00000  Uiso   1.00
O489   O     0.16666   0.10655   0.53958   0.00000  Uiso   1.00
O490   O     0.26441   0.31293   0.59982   0.00000  Uiso   1.00
O491   O     0.05752   0.09920   0.63117   0.00000  Uiso   1.00
O492   O     0.27582   0.23413   0.36883   0.00000  Uiso   1.00
O493   O     0.16667   0.22678   0.46042   0.00000  Uiso   1.00
O494   O     0.16666   0.10654   0.46039   0.00000  Uiso   1.00
O495   O     0.16667   0.22679   0.53961   0.00000  Uiso   1.00
O496   O     0.09161   0.16667   0.53046   0.00000  Uiso   1.00
O497   O     0.24172   0.16666   0.46954   0.00000  Uiso   1.00
O498   O     0.09161   0.16666   0.45127   0.00000  Uiso   1.00
O499   O     0.24172   0.16667   0.54873   0.00000  Uiso   1.00
O500   O     0.06891   0.02040   0.40019   0.00000  Uiso   1.00
C501   C     0.49826   0.08748   0.50000   0.00000  Uiso   1.00
C502   C     0.53151   0.02301   0.53346   0.00000  Uiso   1.00
C503   C     0.50287   0.29057   0.49978   0.00000  Uiso   1.00
C504   C     0.49713   0.04276   0.50022   0.00000  Uiso   1.00
C505   C     0.46558   0.14284   0.35523   0.00000  Uiso   1.00
C506   C     0.53442   0.19050   0.64477   0.00000  Uiso   1.00
C507   C     0.46511   0.14237   0.63907   0.00000  Uiso   1.00
C508   C     0.53489   0.19096   0.36093   0.00000  Uiso   1.00
C509   C     0.42504   0.03965   0.43304   0.00000  Uiso   1.00
C510   C     0.57495   0.29368   0.56696   0.00000  Uiso   1.00
C511   C     0.42626   0.11453   0.61251   0.00000  Uiso   1.00
C512   C     0.50174   0.24585   0.50000   0.00000  Uiso   1.00
C513   C     0.57374   0.21880   0.38749   0.00000  Uiso   1.00
C514   C     0.40158   0.16612   0.48829   0.00000  Uiso   1.00
C515   C     0.59842   0.16722   0.51171   0.00000  Uiso   1.00
C516   C     0.34670   0.16173   0.48233   0.00000  Uiso   1.00
C517   C     0.65330   0.17161   0.51767   0.00000  Uiso   1.00
C518   C     0.46466   0.01983   0.46655   0.00000  Uiso   1.00
C519   C     0.53533   0.31351   0.53345   0.00000  Uiso   1.00
C520   C     0.46849   0.31033   0.46654   0.00000  Uiso   1.00
Cu521  Cu    0.50000   0.16667   0.54689   0.00000  Uiso   1.00
Cu522  Cu    0.50000   0.16666   0.45311   0.00000  Uiso   1.00
H523   H     0.44327   0.29194   0.44163   0.00000  Uiso   1.00
H524   H     0.58473   0.26183   0.56253   0.00000  Uiso   1.00
H525   H     0.42785   0.10658   0.57667   0.00000  Uiso   1.00
H526   H     0.57215   0.22675   0.42333   0.00000  Uiso   1.00
H527   H     0.55673   0.04140   0.55837   0.00000  Uiso   1.00
H528   H     0.43860   0.12376   0.37210   0.00000  Uiso   1.00
H529   H     0.56140   0.20957   0.62790   0.00000  Uiso   1.00
H530   H     0.66437   0.16316   0.41136   0.00000  Uiso   1.00
H531   H     0.33730   0.11518   0.43509   0.00000  Uiso   1.00
H532   H     0.33563   0.17017   0.58864   0.00000  Uiso   1.00
H533   H     0.66270   0.21815   0.56491   0.00000  Uiso   1.00
H534   H     0.41528   0.07151   0.43746   0.00000  Uiso   1.00
N535   N     0.50001   0.16668   0.61736   0.00000  Uiso   1.00
N536   N     0.49999   0.16666   0.38264   0.00000  Uiso   1.00
N537   N     0.65555   0.14419   0.43916   0.00000  Uiso   1.00
N538   N     0.34445   0.18914   0.56084   0.00000  Uiso   1.00
O539   O     0.50000   0.10655   0.53958   0.00000  Uiso   1.00
O540   O     0.59774   0.31293   0.59982   0.00000  Uiso   1.00
O541   O     0.39085   0.09920   0.63117   0.00000  Uiso   1.00
O542   O     0.60915   0.23413   0.36883   0.00000  Uiso   1.00
O543   O     0.50000   0.22678   0.46042   0.00000  Uiso   1.00
O544   O     0.50000   0.10654   0.46039   0.00000  Uiso   1.00
O545   O     0.50000   0.22679   0.53961   0.00000  Uiso   1.00
O546   O     0.42495   0.16667   0.53046   0.00000  Uiso   1.00
O547   O     0.57505   0.16666   0.46954   0.00000  Uiso   1.00
O548   O     0.42494   0.16666   0.45127   0.00000  Uiso   1.00
O549   O     0.57506   0.16667   0.54873   0.00000  Uiso   1.00
O550   O     0.40224   0.02040   0.40019   0.00000  Uiso   1.00
C551   C     0.83159   0.08748   0.50000   0.00000  Uiso   1.00
C552   C     0.86485   0.02301   0.53346   0.00000  Uiso   1.00
C553   C     0.83620   0.29057   0.49978   0.00000  Uiso   1.00
C554   C     0.83047   0.04276   0.50022   0.00000  Uiso   1.00
C555   C     0.79891   0.14284   0.35523   0.00000  Uiso   1.00
C556   C     0.86775   0.19050   0.64477   0.00000  Uiso   1.00
C557   C     0.79844   0.14237   0.63907   0.00000  Uiso   1.00
C558   C     0.86822   0.19096   0.36093   0.00000  Uiso   1.00
C559   C     0.75838   0.03965   0.43304   0.00000  Uiso   1.00
C560   C     0.90829   0.29368   0.56696   0.00000  Uiso   1.00
C561   C     0.75960   0.11453   0.61251   0.00000  Uiso   1.00
C562   C     0.83507   0.24585   0.50000   0.00000  Uiso   1.00
C563   C     0.90707   0.21880   0.38749   0.00000  Uiso   1.00
C564   C     0.73491   0.16612   0.48829   0.00000  Uiso   1.00
C565   C     0.93175   0.16722   0.51171   0.00000  Uiso   1.00
C566   C     0.68003   0.16173   0.48233   0.00000  Uiso   1.00
C567   C     0.98664   0.17161   0.51767   0.00000  Uiso   1.00
C568   C     0.79800   0.01983   0.46655   0.00000  Uiso   1.00
C569   C     0.86867   0.31351   0.53345   0.00000  Uiso   1.00
C570   C     0.80182   0.31033   0.46654   0.00000  Uiso   1.00
Cu571  Cu    0.83333   0.16667   0.54689   0.00000  Uiso   1.00
Cu572  Cu    0.83333   0.16666   0.45311   0.00000  Uiso   1.00
H573   H     0.77660   0.29194   0.44163   0.00000  Uiso   1.00
H574   H     0.91806   0.26183   0.56253   0.00000  Uiso   1.00
H575   H     0.76118   0.10658   0.57667   0.00000  Uiso   1.00
H576   H     0.90548   0.22675   0.42333   0.00000  Uiso   1.00
H577   H     0.89006   0.04140   0.55837   0.00000  Uiso   1.00
H578   H     0.77194   0.12376   0.37210   0.00000  Uiso   1.00
H579   H     0.89473   0.20957   0.62790   0.00000  Uiso   1.00
H580   H     0.99771   0.16316   0.41136   0.00000  Uiso   1.00
H581   H     0.67063   0.11518   0.43509   0.00000  Uiso   1.00
H582   H     0.66896   0.17017   0.58864   0.00000  Uiso   1.00
H583   H     0.99603   0.21815   0.56491   0.00000  Uiso   1.00
H584   H     0.74861   0.07151   0.43746   0.00000  Uiso   1.00
N585   N     0.83335   0.16668   0.61736   0.00000  Uiso   1.00
N586   N     0.83332   0.16666   0.38264   0.00000  Uiso   1.00
N587   N     0.98888   0.14419   0.43916   0.00000  Uiso   1.00
N588   N     0.67779   0.18914   0.56084   0.00000  Uiso   1.00
O589   O     0.83333   0.10655   0.53958   0.00000  Uiso   1.00
O590   O     0.93107   0.31293   0.59982   0.00000  Uiso   1.00
O591   O     0.72418   0.09920   0.63117   0.00000  Uiso   1.00
O592   O     0.94248   0.23413   0.36883   0.00000  Uiso   1.00
O593   O     0.83334   0.22678   0.46042   0.00000  Uiso   1.00
O594   O     0.83333   0.10654   0.46039   0.00000  Uiso   1.00
O595   O     0.83334   0.22679   0.53961   0.00000  Uiso   1.00
O596   O     0.75828   0.16667   0.53046   0.00000  Uiso   1.00
O597   O     0.90839   0.16666   0.46954   0.00000  Uiso   1.00
O598   O     0.75828   0.16666   0.45127   0.00000  Uiso   1.00
O599   O     0.90839   0.16667   0.54873   0.00000  Uiso   1.00
O600   O     0.73558   0.02040   0.40019   0.00000  Uiso   1.00
C601   C     0.16493   0.42081   0.50000   0.00000  Uiso   1.00
C602   C     0.19818   0.35634   0.53346   0.00000  Uiso   1.00
C603   C     0.16953   0.62391   0.49978   0.00000  Uiso   1.00
C604   C     0.16380   0.37609   0.50022   0.00000  Uiso   1.00
C605   C     0.13225   0.47617   0.35523   0.00000  Uiso   1.00
C606   C     0.20109   0.52383   0.64477   0.00000  Uiso   1.00
C607   C     0.13178   0.47571   0.63907   0.00000  Uiso   1.00
C608   C     0.20156   0.52429   0.36093   0.00000  Uiso   1.00
C609   C     0.09171   0.37299   0.43304   0.00000  Uiso   1.00
C610   C     0.24162   0.62701   0.56696   0.00000  Uiso   1.00
C611   C     0.09293   0.44786   0.61251   0.00000  Uiso   1.00
C612   C     0.16841   0.57919   0.50000   0.00000  Uiso   1.00
C613   C     0.24040   0.55214   0.38749   0.00000  Uiso   1.00
C614   C     0.06825   0.49945   0.48829   0.00000  Uiso   1.00
C615   C     0.26509   0.50055   0.51171   0.00000  Uiso   1.00
C616   C     0.01336   0.49506   0.48233   0.00000  Uiso   1.00
C617   C     0.31997   0.50494   0.51767   0.00000  Uiso   1.00
C618   C     0.13133   0.35316   0.46655   0.00000  Uiso   1.00
C619   C     0.20200   0.64684   0.53345   0.00000  Uiso   1.00
C620   C     0.13515   0.64366   0.46654   0.00000  Uiso   1.00
Cu621  Cu    0.16667   0.50001   0.54689   0.00000  Uiso   1.00
Cu622  Cu    0.16667   0.49999   0.45311   0.00000  Uiso   1.00
H623   H     0.10993   0.62527   0.44163   0.00000  Uiso   1.00
H624   H     0.25139   0.59516   0.56253   0.00000  Uiso   1.00
H625   H     0.09452   0.43992   0.57667   0.00000  Uiso   1.00
H626   H     0.23882   0.56008   0.42333   0.00000  Uiso   1.00
H627   H     0.22340   0.37473   0.55837   0.00000  Uiso   1.00
H628   H     0.10527   0.45710   0.37210   0.00000  Uiso   1.00
H629   H     0.22806   0.54290   0.62790   0.00000  Uiso   1.00
H630   H     0.33104   0.49649   0.41136   0.00000  Uiso   1.00
H631   H     0.00397   0.44851   0.43509   0.00000  Uiso   1.00
H632   H     0.00229   0.50351   0.58864   0.00000  Uiso   1.00
H633   H     0.32937   0.55149   0.56491   0.00000  Uiso   1.00
H634   H     0.08194   0.40484   0.43746   0.00000  Uiso   1.00
N635   N     0.16668   0.50001   0.61736   0.00000  Uiso   1.00
N636   N     0.16665   0.49999   0.38264   0.00000  Uiso   1.00
N637   N     0.32221   0.47753   0.43916   0.00000  Uiso   1.00
N638   N     0.01112   0.52247   0.56084   0.00000  Uiso   1.00
O639   O     0.16666   0.43989   0.53958   0.00000  Uiso   1.00
O640   O     0.26441   0.64626   0.59982   0.00000  Uiso   1.00
O641   O     0.05752   0.43253   0.63117   0.00000  Uiso   1.00
O642   O     0.27582   0.56747   0.36883   0.00000  Uiso   1.00
O643   O     0.16667   0.56011   0.46042   0.00000  Uiso   1.00
O644   O     0.16666   0.43988   0.46039   0.00000  Uiso   1.00
O645   O     0.16667   0.56012   0.53961   0.00000  Uiso   1.00
O646   O     0.09161   0.50000   0.53046   0.00000  Uiso   1.00
O647   O     0.24172   0.50000   0.46954   0.00000  Uiso   1.00
O648   O     0.09161   0.49999   0.45127   0.00000  Uiso   1.00
O649   O     0.24172   0.50001   0.54873   0.00000  Uiso   1.00
O650   O     0.06891   0.35373   0.40019   0.00000  Uiso   1.00
C651   C     0.49826   0.42081   0.50000   0.00000  Uiso   1.00
C652   C     0.53151   0.35634   0.53346   0.00000  Uiso   1.00
C653   C     0.50287   0.62391   0.49978   0.00000  Uiso   1.00
C654   C     0.49713   0.37609   0.50022   0.00000  Uiso   1.00
C655   C     0.46558   0.47617   0.35523   0.00000  Uiso   1.00
C656   C     0.53442   0.52383   0.64477   0.00000  Uiso   1.00
C657   C     0.46511   0.47571   0.63907   0.00000  Uiso   1.00
C658   C     0.53489   0.52429   0.36093   0.00000  Uiso   1.00
C659   C     0.42504   0.37299   0.43304   0.00000  Uiso   1.00
C660   C     0.57495   0.62701   0.56696   0.00000  Uiso   1.00
C661   C     0.42626   0.44786   0.61251   0.00000  Uiso   1.00
C662   C     0.50174   0.57919   0.50000   0.00000  Uiso   1.00
C663   C     0.57374   0.55214   0.38749   0.00000  Uiso   1.00
C664   C     0.40158   0.49945   0.48829   0.00000  Uiso   1.00
C665   C     0.59842   0.50055   0.51171   0.00000  Uiso   1.00
C666   C     0.34670   0.49506   0.48233   0.00000  Uiso   1.00
C667   C     0.65330   0.50494   0.51767   0.00000  Uiso   1.00
C668   C     0.46466   0.35316   0.46655   0.00000  Uiso   1.00
C669   C     0.53533   0.64684   0.53345   0.00000  Uiso   1.00
C670   C     0.46849   0.64366   0.46654   0.00000  Uiso   1.00
Cu671  Cu    0.50000   0.50001   0.54689   0.00000  Uiso   1.00
Cu672  Cu    0.50000   0.49999   0.45311   0.00000  Uiso   1.00
H673   H     0.44327   0.62527   0.44163   0.00000  Uiso   1.00
H674   H     0.58473   0.59516   0.56253   0.00000  Uiso   1.00
H675   H     0.42785   0.43992   0.57667   0.00000  Uiso   1.00
H676   H     0.57215   0.56008   0.42333   0.00000  Uiso   1.00
H677   H     0.55673   0.37473   0.55837   0.00000  Uiso   1.00
H678   H     0.43860   0.45710   0.37210   0.00000  Uiso   1.00
H679   H     0.56140   0.54290   0.62790   0.00000  Uiso   1.00
H680   H     0.66437   0.49649   0.41136   0.00000  Uiso   1.00
H681   H     0.33730   0.44851   0.43509   0.00000  Uiso   1.00
H682   H     0.33563   0.50351   0.58864   0.00000  Uiso   1.00
H683   H     0.66270   0.55149   0.56491   0.00000  Uiso   1.00
H684   H     0.41528   0.40484   0.43746   0.00000  Uiso   1.00
N685   N     0.50001   0.50001   0.61736   0.00000  Uiso   1.00
N686   N     0.49999   0.49999   0.38264   0.00000  Uiso   1.00
N687   N     0.65555   0.47753   0.43916   0.00000  Uiso   1.00
N688   N     0.34445   0.52247   0.56084   0.00000  Uiso   1.00
O689   O     0.50000   0.43989   0.53958   0.00000  Uiso   1.00
O690   O     0.59774   0.64626   0.59982   0.00000  Uiso   1.00
O691   O     0.39085   0.43253   0.63117   0.00000  Uiso   1.00
O692   O     0.60915   0.56747   0.36883   0.00000  Uiso   1.00
O693   O     0.50000   0.56011   0.46042   0.00000  Uiso   1.00
O694   O     0.50000   0.43988   0.46039   0.00000  Uiso   1.00
O695   O     0.50000   0.56012   0.53961   0.00000  Uiso   1.00
O696   O     0.42495   0.50000   0.53046   0.00000  Uiso   1.00
O697   O     0.57505   0.50000   0.46954   0.00000  Uiso   1.00
O698   O     0.42494   0.49999   0.45127   0.00000  Uiso   1.00
O699   O     0.57506   0.50001   0.54873   0.00000  Uiso   1.00
O700   O     0.40224   0.35373   0.40019   0.00000  Uiso   1.00
C701   C     0.83159   0.42081   0.50000   0.00000  Uiso   1.00
C702   C     0.86485   0.35634   0.53346   0.00000  Uiso   1.00
C703   C     0.83620   0.62391   0.49978   0.00000  Uiso   1.00
C704   C     0.83047   0.37609   0.50022   0.00000  Uiso   1.00
C705   C     0.79891   0.47617   0.35523   0.00000  Uiso   1.00
C706   C     0.86775   0.52383   0.64477   0.00000  Uiso   1.00
C707   C     0.79844   0.47571   0.63907   0.00000  Uiso   1.00
C708   C     0.86822   0.52429   0.36093   0.00000  Uiso   1.00
C709   C     0.75838   0.37299   0.43304   0.00000  Uiso   1.00
C710   C     0.90829   0.62701   0.56696   0.00000  Uiso   1.00
C711   C     0.75960   0.44786   0.61251   0.00000  Uiso   1.00
C712   C     0.83507   0.57919   0.50000   0.00000  Uiso   1.00
C713   C     0.90707   0.55214   0.38749   0.00000  Uiso   1.00
C714   C     0.73491   0.49945   0.48829   0.00000  Uiso   1.00
C715   C     0.93175   0.50055   0.51171   0.00000  Uiso   1.00
C716   C     0.68003   0.49506   0.48233   0.00000  Uiso   1.00
C717   C     0.98664   0.50494   0.51767   0.00000  Uiso   1.00
C718   C     0.79800   0.35316   0.46655   0.00000  Uiso   1.00
C719   C     0.86867   0.64684   0.53345   0.00000  Uiso   1.00
C720   C     0.80182   0.64366   0.46654   0.00000  Uiso   1.00
Cu721  Cu    0.83333   0.50001   0.54689   0.00000  Uiso   1.00
Cu722  Cu    0.83333   0.49999   0.45311   0.00000  Uiso   1.00
H723   H     0.77660   0.62527   0.44163   0.00000  Uiso   1.00
H724   H     0.91806   0.59516   0.56253   0.00000  Uiso   1.00
H725   H     0.76118   0.43992   0.57667   0.00000  Uiso   1.00
H726   H     0.90548   0.56008   0.42333   0.00000  Uiso   1.00
H727   H     0.89006   0.37473   0.55837   0.00000  Uiso   1.00
H728   H     0.77194   0.45710   0.37210   0.00000  Uiso   1.00
H729   H     0.89473   0.54290   0.62790   0.00000  Uiso   1.00
H730   H     0.99771   0.49649   0.41136   0.00000  Uiso   1.00
H731   H     0.67063   0.44851   0.43509   0.00000  Uiso   1.00
H732   H     0.66896   0.50351   0.58864   0.00000  Uiso   1.00
H733   H     0.99603   0.55149   0.56491   0.00000  Uiso   1.00
H734   H     0.74861   0.40484   0.43746   0.00000  Uiso   1.00
N735   N     0.83335   0.50001   0.61736   0.00000  Uiso   1.00
N736   N     0.83332   0.49999   0.38264   0.00000  Uiso   1.00
N737   N     0.98888   0.47753   0.43916   0.00000  Uiso   1.00
N738   N     0.67779   0.52247   0.56084   0.00000  Uiso   1.00
O739   O     0.83333   0.43989   0.53958   0.00000  Uiso   1.00
O740   O     0.93107   0.64626   0.59982   0.00000  Uiso   1.00
O741   O     0.72418   0.43253   0.63117   0.00000  Uiso   1.00
O742   O     0.94248   0.56747   0.36883   0.00000  Uiso   1.00
O743   O     0.83334   0.56011   0.46042   0.00000  Uiso   1.00
O744   O     0.83333   0.43988   0.46039   0.00000  Uiso   1.00
O745   O     0.83334   0.56012   0.53961   0.00000  Uiso   1.00
O746   O     0.75828   0.50000   0.53046   0.00000  Uiso   1.00
O747   O     0.90839   0.50000   0.46954   0.00000  Uiso   1.00
O748   O     0.75828   0.49999   0.45127   0.00000  Uiso   1.00
O749   O     0.90839   0.50001   0.54873   0.00000  Uiso   1.00
O750   O     0.73558   0.35373   0.40019   0.00000  Uiso   1.00
C751   C     0.16493   0.75415   0.50000   0.00000  Uiso   1.00
C752   C     0.19818   0.68967   0.53346   0.00000  Uiso   1.00
C753   C     0.16953   0.95724   0.49978   0.00000  Uiso   1.00
C754   C     0.16380   0.70943   0.50022   0.00000  Uiso   1.00
C755   C     0.13225   0.80950   0.35523   0.00000  Uiso   1.00
C756   C     0.20109   0.85716   0.64477   0.00000  Uiso   1.00
C757   C     0.13178   0.80904   0.63907   0.00000  Uiso   1.00
C758   C     0.20156   0.85762   0.36093   0.00000  Uiso   1.00
C759   C     0.09171   0.70632   0.43304   0.00000  Uiso   1.00
C760   C     0.24162   0.96034   0.56696   0.00000  Uiso   1.00
C761   C     0.09293   0.78120   0.61251   0.00000  Uiso   1.00
C762   C     0.16841   0.91252   0.50000   0.00000  Uiso   1.00
C763   C     0.24040   0.88547   0.38749   0.00000  Uiso   1.00
C764   C     0.06825   0.83278   0.48829   0.00000  Uiso   1.00
C765   C     0.26509   0.83388   0.51171   0.00000  Uiso   1.00
C766   C     0.01336   0.82839   0.48233   0.00000  Uiso   1.00
C767   C     0.31997   0.83827   0.51767   0.00000  Uiso   1.00
C768   C     0.13133   0.68649   0.46655   0.00000  Uiso   1.00
C769   C     0.20200   0.98017   0.53345   0.00000  Uiso   1.00
C770   C     0.13515   0.97699   0.46654   0.00000  Uiso   1.00
Cu771  Cu    0.16667   0.83334   0.54689   0.00000  Uiso   1.00
Cu772  Cu    0.16667   0.83333   0.45311   0.00000  Uiso   1.00
H773   H     0.10993   0.95860   0.44163   0.00000  Uiso   1.00
H774   H     0.25139   0.92850   0.56253   0.00000  Uiso   1.00
H775   H     0.09452   0.77325   0.57667   0.00000  Uiso   1.00
H776   H     0.23882   0.89342   0.42333   0.00000  Uiso   1.00
H777   H     0.22340   0.70806   0.55837   0.00000  Uiso   1.00
H778   H     0.10527   0.79043   0.37210   0.00000  Uiso   1.00
H779   H     0.22806   0.87624   0.62790   0.00000  Uiso   1.00
H780   H     0.33104   0.82983   0.41136   0.00000  Uiso   1.00
H781   H     0.00397   0.78185   0.43509   0.00000  Uiso   1.00
H782   H     0.00229   0.83684   0.58864   0.00000  Uiso   1.00
H783   H     0.32937   0.88482   0.56491   0.00000  Uiso   1.00
H784   H     0.08194   0.73817   0.43746   0.00000  Uiso   1.00
N785   N     0.16668   0.83334   0.61736   0.00000  Uiso   1.00
N786   N     0.16665   0.83332   0.38264   0.00000  Uiso   1.00
N787   N     0.32221   0.81086   0.43916   0.00000  Uiso   1.00
N788   N     0.01112   0.85581   0.56084   0.00000  Uiso   1.00
O789   O     0.16666   0.77322   0.53958   0.00000  Uiso   1.00
O790   O     0.26441   0.97960   0.59982   0.00000  Uiso   1.00
O791   O     0.05752   0.76587   0.63117   0.00000  Uiso   1.00
O792   O     0.27582   0.90080   0.36883   0.00000  Uiso   1.00
O793   O     0.16667   0.89345   0.46042   0.00000  Uiso   1.00
O794   O     0.16666   0.77321   0.46039   0.00000  Uiso   1.00
O795   O     0.16667   0.89346   0.53961   0.00000  Uiso   1.00
O796   O     0.09161   0.83334   0.53046   0.00000  Uiso   1.00
O797   O     0.24172   0.83333   0.46954   0.00000  Uiso   1.00
O798   O     0.09161   0.83333   0.45127   0.00000  Uiso   1.00
O799   O     0.24172   0.83334   0.54873   0.00000  Uiso   1.00
O800   O     0.06891   0.68706   0.40019   0.00000  Uiso   1.00
C801   C     0.49826   0.75415   0.50000   0.00000  Uiso   1.00
C802   C     0.53151   0.68967   0.53346   0.00000  Uiso   1.00
C803   C     0.50287   0.95724   0.49978   0.00000  Uiso   1.00
C804   C     0.49713   0.70943   0.50022   0.00000  Uiso   1.00
C805   C     0.46558   0.80950   0.35523   0.00000  Uiso   1.00
C806   C     0.53442   0.85716   0.64477   0.00000  Uiso   1.00
C807   C     0.46511   0.80904   0.63907   0.00000  Uiso   1.00
C808   C     0.53489   0.85762   0.36093   0.00000  Uiso   1.00
C809   C     0.42504   0.70632   0.43304   0.00000  Uiso   1.00
C810   C     0.57495   0.96034   0.56696   0.00000  Uiso   1.00
C811   C     0.42626   0.78120   0.61251   0.00000  Uiso   1.00
C812   C     0.50174   0.91252   0.50000   0.00000  Uiso   1.00
C813   C     0.57374   0.88547   0.38749   0.00000  Uiso   1.00
C814   C     0.40158   0.83278   0.48829   0.00000  Uiso   1.00
C815   C     0.59842   0.83388   0.51171   0.00000  Uiso   1.00
C816   C     0.34670   0.82839   0.48233   0.00000  Uiso   1.00
C817   C     0.65330   0.83827   0.51767   0.00000  Uiso   1.00
C818   C     0.46466   0.68649   0.46655   0.00000  Uiso   1.00
C819   C     0.53533   0.98017   0.53345   0.00000  Uiso   1.00
C820   C     0.46849   0.97699   0.46654   0.00000  Uiso   1.00
Cu821  Cu    0.50000   0.83334   0.54689   0.00000  Uiso   1.00
Cu822  Cu    0.50000   0.83333   0.45311   0.00000  Uiso   1.00
H823   H     0.44327   0.95860   0.44163   0.00000  Uiso   1.00
H824   H     0.58473   0.92850   0.56253   0.00000  Uiso   1.00
H825   H     0.42785   0.77325   0.57667   0.00000  Uiso   1.00
H826   H     0.57215   0.89342   0.42333   0.00000  Uiso   1.00
H827   H     0.55673   0.70806   0.55837   0.00000  Uiso   1.00
H828   H     0.43860   0.79043   0.37210   0.00000  Uiso   1.00
H829   H     0.56140   0.87624   0.62790   0.00000  Uiso   1.00
H830   H     0.66437   0.82983   0.41136   0.00000  Uiso   1.00
H831   H     0.33730   0.78185   0.43509   0.00000  Uiso   1.00
H832   H     0.33563   0.83684   0.58864   0.00000  Uiso   1.00
H833   H     0.66270   0.88482   0.56491   0.00000  Uiso   1.00
H834   H     0.41528   0.73817   0.43746   0.00000  Uiso   1.00
N835   N     0.50001   0.83334   0.61736   0.00000  Uiso   1.00
N836   N     0.49999   0.83332   0.38264   0.00000  Uiso   1.00
N837   N     0.65555   0.81086   0.43916   0.00000  Uiso   1.00
N838   N     0.34445   0.85581   0.56084   0.00000  Uiso   1.00
O839   O     0.50000   0.77322   0.53958   0.00000  Uiso   1.00
O840   O     0.59774   0.97960   0.59982   0.00000  Uiso   1.00
O841   O     0.39085   0.76587   0.63117   0.00000  Uiso   1.00
O842   O     0.60915   0.90080   0.36883   0.00000  Uiso   1.00
O843   O     0.50000   0.89345   0.46042   0.00000  Uiso   1.00
O844   O     0.50000   0.77321   0.46039   0.00000  Uiso   1.00
O845   O     0.50000   0.89346   0.53961   0.00000  Uiso   1.00
O846   O     0.42495   0.83334   0.53046   0.00000  Uiso   1.00
O847   O     0.57505   0.83333   0.46954   0.00000  Uiso   1.00
O848   O     0.42494   0.83333   0.45127   0.00000  Uiso   1.00
O849   O     0.57506   0.83334   0.54873   0.00000  Uiso   1.00
O850   O     0.40224   0.68706   0.40019   0.00000  Uiso   1.00
C851   C     0.83159   0.75415   0.50000   0.00000  Uiso   1.00
C852   C     0.86485   0.68967   0.53346   0.00000  Uiso   1.00
C853   C     0.83620   0.95724   0.49978   0.00000  Uiso   1.00
C854   C     0.83047   0.70943   0.50022   0.00000  Uiso   1.00
C855   C     0.79891   0.80950   0.35523   0.00000  Uiso   1.00
C856   C     0.86775   0.85716   0.64477   0.00000  Uiso   1.00
C857   C     0.79844   0.80904   0.63907   0.00000  Uiso   1.00
C858   C     0.86822   0.85762   0.36093   0.00000  Uiso   1.00
C859   C     0.75838   0.70632   0.43304   0.00000  Uiso   1.00
C860   C     0.90829   0.96034   0.56696   0.00000  Uiso   1.00
C861   C     0.75960   0.78120   0.61251   0.00000  Uiso   1.00
C862   C     0.83507   0.91252   0.50000   0.00000  Uiso   1.00
C863   C     0.90707   0.88547   0.38749   0.00000  Uiso   1.00
C864   C     0.73491   0.83278   0.48829   0.00000  Uiso   1.00
C865   C     0.93175   0.83388   0.51171   0.00000  Uiso   1.00
C866   C     0.68003   0.82839   0.48233   0.00000  Uiso   1.00
C867   C     0.98664   0.83827   0.51767   0.00000  Uiso   1.00
C868   C     0.79800   0.68649   0.46655   0.00000  Uiso   1.00
C869   C     0.86867   0.98017   0.53345   0.00000  Uiso   1.00
C870   C     0.80182   0.97699   0.46654   0.00000  Uiso   1.00
Cu871  Cu    0.83333   0.83334   0.54689   0.00000  Uiso   1.00
Cu872  Cu    0.83333   0.83333   0.45311   0.00000  Uiso   1.00
H873   H     0.77660   0.95860   0.44163   0.00000  Uiso   1.00
H874   H     0.91806   0.92850   0.56253   0.00000  Uiso   1.00
H875   H     0.76118   0.77325   0.57667   0.00000  Uiso   1.00
H876   H     0.90548   0.89342   0.42333   0.00000  Uiso   1.00
H877   H     0.89006   0.70806   0.55837   0.00000  Uiso   1.00
H878   H     0.77194   0.79043   0.37210   0.00000  Uiso   1.00
H879   H     0.89473   0.87624   0.62790   0.00000  Uiso   1.00
H880   H     0.99771   0.82983   0.41136   0.00000  Uiso   1.00
H881   H     0.67063   0.78185   0.43509   0.00000  Uiso   1.00
H882   H     0.66896   0.83684   0.58864   0.00000  Uiso   1.00
H883   H     0.99603   0.88482   0.56491   0.00000  Uiso   1.00
H884   H     0.74861   0.73817   0.43746   0.00000  Uiso   1.00
N885   N     0.83335   0.83334   0.61736   0.00000  Uiso   1.00
N886   N     0.83332   0.83332   0.38264   0.00000  Uiso   1.00
N887   N     0.98888   0.81086   0.43916   0.00000  Uiso   1.00
N888   N     0.67779   0.85581   0.56084   0.00000  Uiso   1.00
O889   O     0.83333   0.77322   0.53958   0.00000  Uiso   1.00
O890   O     0.93107   0.97960   0.59982   0.00000  Uiso   1.00
O891   O     0.72418   0.76587   0.63117   0.00000  Uiso   1.00
O892   O     0.94248   0.90080   0.36883   0.00000  Uiso   1.00
O893   O     0.83334   0.89345   0.46042   0.00000  Uiso   1.00
O894   O     0.83333   0.77321   0.46039   0.00000  Uiso   1.00
O895   O     0.83334   0.89346   0.53961   0.00000  Uiso   1.00
O896   O     0.75828   0.83334   0.53046   0.00000  Uiso   1.00
O897   O     0.90839   0.83333   0.46954   0.00000  Uiso   1.00
O898   O     0.75828   0.83333   0.45127   0.00000  Uiso   1.00
O899   O     0.90839   0.83334   0.54873   0.00000  Uiso   1.00
O900   O     0.73558   0.68706   0.40019   0.00000  Uiso   1.00
C901   C     0.16493   0.08748   0.83333   0.00000  Uiso   1.00
C902   C     0.19818   0.02301   0.86679   0.00000  Uiso   1.00
C903   C     0.16953   0.29057   0.83311   0.00000  Uiso   1.00
C904   C     0.16380   0.04276   0.83355   0.00000  Uiso   1.00
C905   C     0.13225   0.14284   0.68857   0.00000  Uiso   1.00
C906   C     0.20109   0.19050   0.97810   0.00000  Uiso   1.00
C907   C     0.13178   0.14237   0.97241   0.00000  Uiso   1.00
C908   C     0.20156   0.19096   0.69426   0.00000  Uiso   1.00
C909   C     0.09171   0.03965   0.76637   0.00000  Uiso   1.00
C910   C     0.24162   0.29368   0.90030   0.00000  Uiso   1.00
C911   C     0.09293   0.11453   0.94584   0.00000  Uiso   1.00
C912   C     0.16841   0.24585   0.83334   0.00000  Uiso   1.00
C913   C     0.24040   0.21880   0.72082   0.00000  Uiso   1.00
C914   C     0.06825   0.16612   0.82162   0.00000  Uiso   1.00
C915   C     0.26509   0.16722   0.84505   0.00000  Uiso   1.00
C916   C     0.01336   0.16173   0.81567   0.00000  Uiso   1.00
C917   C     0.31997   0.17161   0.85100   0.00000  Uiso   1.00
C918   C     0.13133   0.01983   0.79988   0.00000  Uiso   1.00
C919   C     0.20200   0.31351   0.86678   0.00000  Uiso   1.00
C920   C     0.13515   0.31033   0.79987   0.00000  Uiso   1.00
Cu921  Cu    0.16667   0.16667   0.88022   0.00000  Uiso   1.00
Cu922  Cu    0.16667   0.16666   0.78645   0.00000  Uiso   1.00
H923   H     0.10993   0.29194   0.77496   0.00000  Uiso   1.00
H924   H     0.25139   0.26183   0.89587   0.00000  Uiso   1.00
H925   H     0.09452   0.10658   0.91001   0.00000  Uiso   1.00
H926   H     0.23882   0.22675   0.75666   0.00000  Uiso   1.00
H927   H     0.22340   0.04140   0.89170   0.00000  Uiso   1.00
H928   H     0.10527   0.12376   0.70544   0.00000  Uiso   1.00
H929   H     0.22806   0.20957   0.96123   0.00000  Uiso   1.00
H930   H     0.33104   0.16316   0.74470   0.00000  Uiso   1.00
H931   H     0.00397   0.11518   0.76843   0.00000  Uiso   1.00
H932   H     0.00229   0.17017   0.92197   0.00000  Uiso   1.00
H933   H     0.32937   0.21815   0.89824   0.00000  Uiso   1.00
H934   H     0.08194   0.07151   0.77080   0.00000  Uiso   1.00
N935   N     0.16668   0.16668   0.95069   0.00000  Uiso   1.00
N936   N     0.16665   0.16666   0.71597   0.00000  Uiso   1.00
N937   N     0.32221   0.14419   0.77250   0.00000  Uiso   1.00
N938   N     0.01112   0.18914   0.89417   0.00000  Uiso   1.00
O939   O     0.16666   0.10655   0.87291   0.00000  Uiso   1.00
O940   O     0.26441   0.31293   0.93316   0.00000  Uiso   1.00
O941   O     0.05752   0.09920   0.96450   0.00000  Uiso   1.00
O942   O     0.27582   0.23413   0.70217   0.00000  Uiso   1.00
O943   O     0.16667   0.22678   0.79375   0.00000  Uiso   1.00
O944   O     0.16666   0.10654   0.79372   0.00000  Uiso   1.00
O945   O     0.16667   0.22679   0.87294   0.00000  Uiso   1.00
O946   O     0.09161   0.16667   0.86379   0.00000  Uiso   1.00
O947   O     0.24172   0.16666   0.80288   0.00000  Uiso   1.00
O948   O     0.09161   0.16666   0.78460   0.00000  Uiso   1.00
O949   O     0.24172   0.16667   0.88207   0.00000  Uiso   1.00
O950   O     0.06891   0.02040   0.73352   0.00000  Uiso   1.00
C951   C     0.49826   0.08748   0.83333   0.00000  Uiso   1.00
C952   C     0.53151   0.02301   0.86679   0.00000  Uiso   1.00
C953   C     0.50287   0.29057   0.83311   0.00000  Uiso   1.00
C954   C     0.49713   0.04276   0.83355   0.00000  Uiso   1.00
C955   C     0.46558   0.14284   0.68857   0.00000  Uiso   1.00
C956   C     0.53442   0.19050   0.97810   0.00000  Uiso   1.00
C957   C     0.46511   0.14237   0.97241   0.00000  Uiso   1.00
C958   C     0.53489   0.19096   0.69426   0.00000  Uiso   1.00
C959   C     0.42504   0.03965   0.76637   0.00000  Uiso   1.00
C960   C     0.57495   0.29368   0.90030   0.00000  Uiso   1.00
C961   C     0.42626   0.11453   0.94584   0.00000  Uiso   1.00
C962   C     0.50174   0.24585   0.83334   0.00000  Uiso   1.00
C963   C     0.57374   0.21880   0.72082   0.00000  Uiso   1.00
C964   C     0.40158   0.16612   0.82162   0.00000  Uiso   1.00
C965   C     0.59842   0.16722   0.84505   0.00000  Uiso   1.00
C966   C     0.34670   0.16173   0.81567   0.00000  Uiso   1.00
C967   C     0.65330   0.17161   0.85100   0.00000  Uiso   1.00
C968   C     0.46466   0.01983   0.79988   0.00000  Uiso   1.00
C969   C     0.53533   0.31351   0.86678   0.00000  Uiso   1.00
C970   C     0.46849   0.31033   0.79987   0.00000  Uiso   1.00
Cu971  Cu    0.50000   0.16667   0.88022   0.00000  Uiso   1.00
Cu972  Cu    0.50000   0.16666   0.78645   0.00000  Uiso   1.00
H973   H     0.44327   0.29194   0.77496   0.00000  Uiso   1.00
H974   H     0.58473   0.26183   0.89587   0.00000  Uiso   1.00
H975   H     0.42785   0.10658   0.91001   0.00000  Uiso   1.00
H976   H     0.57215   0.22675   0.75666   0.00000  Uiso   1.00
H977   H     0.55673   0.04140   0.89170   0.00000  Uiso   1.00
H978   H     0.43860   0.12376   0.70544   0.00000  Uiso   1.00
H979   H     0.56140   0.20957   0.96123   0.00000  Uiso   1.00
H980   H     0.66437   0.16316   0.74470   0.00000  Uiso   1.00
H981   H     0.33730   0.11518   0.76843   0.00000  Uiso   1.00
H982   H     0.33563   0.17017   0.92197   0.00000  Uiso   1.00
H983   H     0.66270   0.21815   0.89824   0.00000  Uiso   1.00
H984   H     0.41528   0.07151   0.77080   0.00000  Uiso   1.00
N985   N     0.50001   0.16668   0.95069   0.00000  Uiso   1.00
N986   N     0.49999   0.16666   0.71597   0.00000  Uiso   1.00
N987   N     0.65555   0.14419   0.77250   0.00000  Uiso   1.00
N988   N     0.34445   0.18914   0.89417   0.00000  Uiso   1.00
O989   O     0.50000   0.10655   0.87291   0.00000  Uiso   1.00
O990   O     0.59774   0.31293   0.93316   0.00000  Uiso   1.00
O991   O     0.39085   0.09920   0.96450   0.00000  Uiso   1.00
O992   O     0.60915   0.23413   0.70217   0.00000  Uiso   1.00
O993   O     0.50000   0.22678   0.79375   0.00000  Uiso   1.00
O994   O     0.50000   0.10654   0.79372   0.00000  Uiso   1.00
O995   O     0.50000   0.22679   0.87294   0.00000  Uiso   1.00
O996   O     0.42495   0.16667   0.86379   0.00000  Uiso   1.00
O997   O     0.57505   0.16666   0.80288   0.00000  Uiso   1.00
O998   O     0.42494   0.16666   0.78460   0.00000  Uiso   1.00
O999   O     0.57506   0.16667   0.88207   0.00000  Uiso   1.00
O1000  O     0.40224   0.02040   0.73352   0.00000  Uiso   1.00
C1001  C     0.83159   0.08748   0.83333   0.00000  Uiso   1.00
C1002  C     0.86485   0.02301   0.86679   0.00000  Uiso   1.00
C1003  C     0.83620   0.29057   0.83311   0.00000  Uiso   1.00
C1004  C     0.83047   0.04276   0.83355   0.00000  Uiso   1.00
C1005  C     0.79891   0.14284   0.68857   0.00000  Uiso   1.00
C1006  C     0.86775   0.19050   0.97810   0.00000  Uiso   1.00
C1007  C     0.79844   0.14237   0.97241   0.00000  Uiso   1.00
C1008  C     0.86822   0.19096   0.69426   0.00000  Uiso   1.00
C1009  C     0.75838   0.03965   0.76637   0.00000  Uiso   1.00
C1010  C     0.90829   0.29368   0.90030   0.00000  Uiso   1.00
C1011  C     0.75960   0.11453   0.94584   0.00000  Uiso   1.00
C1012  C     0.83507   0.24585   0.83334   0.00000  Uiso   1.00
C1013  C     0.90707   0.21880   0.72082   0.00000  Uiso   1.00
C1014  C     0.73491   0.16612   0.82162   0.00000  Uiso   1.00
C1015  C     0.93175   0.16722   0.84505   0.00000  Uiso   1.00
C1016  C     0.68003   0.16173   0.81567   0.00000  Uiso   1.00
C1017  C     0.98664   0.17161   0.85100   0.00000  Uiso   1.00
C1018  C     0.79800   0.01983   0.79988   0.00000  Uiso   1.00
C1019  C     0.86867   0.31351   0.86678   0.00000  Uiso   1.00
C1020  C     0.80182   0.31033   0.79987   0.00000  Uiso   1.00
Cu1021 Cu    0.83333   0.16667   0.88022   0.00000  Uiso   1.00
Cu1022 Cu    0.83333   0.16666   0.78645   0.00000  Uiso   1.00
H1023  H     0.77660   0.29194   0.77496   0.00000  Uiso   1.00
H1024  H     0.91806   0.26183   0.89587   0.00000  Uiso   1.00
H1025  H     0.76118   0.10658   0.91001   0.00000  Uiso   1.00
H1026  H     0.90548   0.22675   0.75666   0.00000  Uiso   1.00
H1027  H     0.89006   0.04140   0.89170   0.00000  Uiso   1.00
H1028  H     0.77194   0.12376   0.70544   0.00000  Uiso   1.00
H1029  H     0.89473   0.20957   0.96123   0.00000  Uiso   1.00
H1030  H     0.99771   0.16316   0.74470   0.00000  Uiso   1.00
H1031  H     0.67063   0.11518   0.76843   0.00000  Uiso   1.00
H1032  H     0.66896   0.17017   0.92197   0.00000  Uiso   1.00
H1033  H     0.99603   0.21815   0.89824   0.00000  Uiso   1.00
H1034  H     0.74861   0.07151   0.77080   0.00000  Uiso   1.00
N1035  N     0.83335   0.16668   0.95069   0.00000  Uiso   1.00
N1036  N     0.83332   0.16666   0.71597   0.00000  Uiso   1.00
N1037  N     0.98888   0.14419   0.77250   0.00000  Uiso   1.00
N1038  N     0.67779   0.18914   0.89417   0.00000  Uiso   1.00
O1039  O     0.83333   0.10655   0.87291   0.00000  Uiso   1.00
O1040  O     0.93107   0.31293   0.93316   0.00000  Uiso   1.00
O1041  O     0.72418   0.09920   0.96450   0.00000  Uiso   1.00
O1042  O     0.94248   0.23413   0.70217   0.00000  Uiso   1.00
O1043  O     0.83334   0.22678   0.79375   0.00000  Uiso   1.00
O1044  O     0.83333   0.10654   0.79372   0.00000  Uiso   1.00
O1045  O     0.83334   0.22679   0.87294   0.00000  Uiso   1.00
O1046  O     0.75828   0.16667   0.86379   0.00000  Uiso   1.00
O1047  O     0.90839   0.16666   0.80288   0.00000  Uiso   1.00
O1048  O     0.75828   0.16666   0.78460   0.00000  Uiso   1.00
O1049  O     0.90839   0.16667   0.88207   0.00000  Uiso   1.00
O1050  O     0.73558   0.02040   0.73352   0.00000  Uiso   1.00
C1051  C     0.16493   0.42081   0.83333   0.00000  Uiso   1.00
C1052  C     0.19818   0.35634   0.86679   0.00000  Uiso   1.00
C1053  C     0.16953   0.62391   0.83311   0.00000  Uiso   1.00
C1054  C     0.16380   0.37609   0.83355   0.00000  Uiso   1.00
C1055  C     0.13225   0.47617   0.68857   0.00000  Uiso   1.00
C1056  C     0.20109   0.52383   0.97810   0.00000  Uiso   1.00
C1057  C     0.13178   0.47571   0.97241   0.00000  Uiso   1.00
C1058  C     0.20156   0.52429   0.69426   0.00000  Uiso   1.00
C1059  C     0.09171   0.37299   0.76637   0.00000  Uiso   1.00
C1060  C     0.24162   0.62701   0.90030   0.00000  Uiso   1.00
C1061  C     0.09293   0.44786   0.94584   0.00000  Uiso   1.00
C1062  C     0.16841   0.57919   0.83334   0.00000  Uiso   1.00
C1063  C     0.24040   0.55214   0.72082   0.00000  Uiso   1.00
C1064  C     0.06825   0.49945   0.82162   0.00000  Uiso   1.00
C1065  C     0.26509   0.50055   0.84505   0.00000  Uiso   1.00
C1066  C     0.01336   0.49506   0.81567   0.00000  Uiso   1.00
C1067  C     0.31997   0.50494   0.85100   0.00000  Uiso   1.00
C1068  C     0.13133   0.35316   0.79988   0.00000  Uiso   1.00
C1069  C     0.20200   0.64684   0.86678   0.00000  Uiso   1.00
C1070  C     0.13515   0.64366   0.79987   0.00000  Uiso   1.00
Cu1071 Cu    0.16667   0.50001   0.88022   0.00000  Uiso   1.00
Cu1072 Cu    0.16667   0.49999   0.78645   0.00000  Uiso   1.00
H1073  H     0.10993   0.62527   0.77496   0.00000  Uiso   1.00
H1074  H     0.25139   0.59516   0.89587   0.00000  Uiso   1.00
H1075  H     0.09452   0.43992   0.91001   0.00000  Uiso   1.00
H1076  H     0.23882   0.56008   0.75666   0.00000  Uiso   1.00
H1077  H     0.22340   0.37473   0.89170   0.00000  Uiso   1.00
H1078  H     0.10527   0.45710   0.70544   0.00000  Uiso   1.00
H1079  H     0.22806   0.54290   0.96123   0.00000  Uiso   1.00
H1080  H     0.33104   0.49649   0.74470   0.00000  Uiso   1.00
H1081  H     0.00397   0.44851   0.76843   0.00000  Uiso   1.00
H1082  H     0.00229   0.50351   0.92197   0.00000  Uiso   1.00
H1083  H     0.32937   0.55149   0.89824   0.00000  Uiso   1.00
H1084  H     0.08194   0.40484   0.77080   0.00000  Uiso   1.00
N1085  N     0.16668   0.50001   0.95069   0.00000  Uiso   1.00
N1086  N     0.16665   0.49999   0.71597   0.00000  Uiso   1.00
N1087  N     0.32221   0.47753   0.77250   0.00000  Uiso   1.00
N1088  N     0.01112   0.52247   0.89417   0.00000  Uiso   1.00
O1089  O     0.16666   0.43989   0.87291   0.00000  Uiso   1.00
O1090  O     0.26441   0.64626   0.93316   0.00000  Uiso   1.00
O1091  O     0.05752   0.43253   0.96450   0.00000  Uiso   1.00
O1092  O     0.27582   0.56747   0.70217   0.00000  Uiso   1.00
O1093  O     0.16667   0.56011   0.79375   0.00000  Uiso   1.00
O1094  O     0.16666   0.43988   0.79372   0.00000  Uiso   1.00
O1095  O     0.16667   0.56012   0.87294   0.00000  Uiso   1.00
O1096  O     0.09161   0.50000   0.86379   0.00000  Uiso   1.00
O1097  O     0.24172   0.50000   0.80288   0.00000  Uiso   1.00
O1098  O     0.09161   0.49999   0.78460   0.00000  Uiso   1.00
O1099  O     0.24172   0.50001   0.88207   0.00000  Uiso   1.00
O1100  O     0.06891   0.35373   0.73352   0.00000  Uiso   1.00
C1101  C     0.49826   0.42081   0.83333   0.00000  Uiso   1.00
C1102  C     0.53151   0.35634   0.86679   0.00000  Uiso   1.00
C1103  C     0.50287   0.62391   0.83311   0.00000  Uiso   1.00
C1104  C     0.49713   0.37609   0.83355   0.00000  Uiso   1.00
C1105  C     0.46558   0.47617   0.68857   0.00000  Uiso   1.00
C1106  C     0.53442   0.52383   0.97810   0.00000  Uiso   1.00
C1107  C     0.46511   0.47571   0.97241   0.00000  Uiso   1.00
C1108  C     0.53489   0.52429   0.69426   0.00000  Uiso   1.00
C1109  C     0.42504   0.37299   0.76637   0.00000  Uiso   1.00
C1110  C     0.57495   0.62701   0.90030   0.00000  Uiso   1.00
C1111  C     0.42626   0.44786   0.94584   0.00000  Uiso   1.00
C1112  C     0.50174   0.57919   0.83334   0.00000  Uiso   1.00
C1113  C     0.57374   0.55214   0.72082   0.00000  Uiso   1.00
C1114  C     0.40158   0.49945   0.82162   0.00000  Uiso   1.00
C1115  C     0.59842   0.50055   0.84505   0.00000  Uiso   1.00
C1116  C     0.34670   0.49506   0.81567   0.00000  Uiso   1.00
C1117  C     0.65330   0.50494   0.85100   0.00000  Uiso   1.00
C1118  C     0.46466   0.35316   0.79988   0.00000  Uiso   1.00
C1119  C     0.53533   0.64684   0.86678   0.00000  Uiso   1.00
C1120  C     0.46849   0.64366   0.79987   0.00000  Uiso   1.00
Cu1121 Cu    0.50000   0.50001   0.88022   0.00000  Uiso   1.00
Cu1122 Cu    0.50000   0.49999   0.78645   0.00000  Uiso   1.00
H1123  H     0.44327   0.62527   0.77496   0.00000  Uiso   1.00
H1124  H     0.58473   0.59516   0.89587   0.00000  Uiso   1.00
H1125  H     0.42785   0.43992   0.91001   0.00000  Uiso   1.00
H1126  H     0.57215   0.56008   0.75666   0.00000  Uiso   1.00
H1127  H     0.55673   0.37473   0.89170   0.00000  Uiso   1.00
H1128  H     0.43860   0.45710   0.70544   0.00000  Uiso   1.00
H1129  H     0.56140   0.54290   0.96123   0.00000  Uiso   1.00
H1130  H     0.66437   0.49649   0.74470   0.00000  Uiso   1.00
H1131  H     0.33730   0.44851   0.76843   0.00000  Uiso   1.00
H1132  H     0.33563   0.50351   0.92197   0.00000  Uiso   1.00
H1133  H     0.66270   0.55149   0.89824   0.00000  Uiso   1.00
H1134  H     0.41528   0.40484   0.77080   0.00000  Uiso   1.00
N1135  N     0.50001   0.50001   0.95069   0.00000  Uiso   1.00
N1136  N     0.49999   0.49999   0.71597   0.00000  Uiso   1.00
N1137  N     0.65555   0.47753   0.77250   0.00000  Uiso   1.00
N1138  N     0.34445   0.52247   0.89417   0.00000  Uiso   1.00
O1139  O     0.50000   0.43989   0.87291   0.00000  Uiso   1.00
O1140  O     0.59774   0.64626   0.93316   0.00000  Uiso   1.00
O1141  O     0.39085   0.43253   0.96450   0.00000  Uiso   1.00
O1142  O     0.60915   0.56747   0.70217   0.00000  Uiso   1.00
O1143  O     0.50000   0.56011   0.79375   0.00000  Uiso   1.00
O1144  O     0.50000   0.43988   0.79372   0.00000  Uiso   1.00
O1145  O     0.50000   0.56012   0.87294   0.00000  Uiso   1.00
O1146  O     0.42495   0.50000   0.86379   0.00000  Uiso   1.00
O1147  O     0.57505   0.50000   0.80288   0.00000  Uiso   1.00
O1148  O     0.42494   0.49999   0.78460   0.00000  Uiso   1.00
O1149  O     0.57506   0.50001   0.88207   0.00000  Uiso   1.00
O1150  O     0.40224   0.35373   0.73352   0.00000  Uiso   1.00
C1151  C     0.83159   0.42081   0.83333   0.00000  Uiso   1.00
C1152  C     0.86485   0.35634   0.86679   0.00000  Uiso   1.00
C1153  C     0.83620   0.62391   0.83311   0.00000  Uiso   1.00
C1154  C     0.83047   0.37609   0.83355   0.00000  Uiso   1.00
C1155  C     0.79891   0.47617   0.68857   0.00000  Uiso   1.00
C1156  C     0.86775   0.52383   0.97810   0.00000  Uiso   1.00
C1157  C     0.79844   0.47571   0.97241   0.00000  Uiso   1.00
C1158  C     0.86822   0.52429   0.69426   0.00000  Uiso   1.00
C1159  C     0.75838   0.37299   0.76637   0.00000  Uiso   1.00
C1160  C     0.90829   0.62701   0.90030   0.00000  Uiso   1.00
C1161  C     0.75960   0.44786   0.94584   0.00000  Uiso   1.00
C1162  C     0.83507   0.57919   0.83334   0.00000  Uiso   1.00
C1163  C     0.90707   0.55214   0.72082   0.00000  Uiso   1.00
C1164  C     0.73491   0.49945   0.82162   0.00000  Uiso   1.00
C1165  C     0.93175   0.50055   0.84505   0.00000  Uiso   1.00
C1166  C     0.68003   0.49506   0.81567   0.00000  Uiso   1.00
C1167  C     0.98664   0.50494   0.85100   0.00000  Uiso   1.00
C1168  C     0.79800   0.35316   0.79988   0.00000  Uiso   1.00
C1169  C     0.86867   0.64684   0.86678   0.00000  Uiso   1.00
C1170  C     0.80182   0.64366   0.79987   0.00000  Uiso   1.00
Cu1171 Cu    0.83333   0.50001   0.88022   0.00000  Uiso   1.00
Cu1172 Cu    0.83333   0.49999   0.78645   0.00000  Uiso   1.00
H1173  H     0.77660   0.62527   0.77496   0.00000  Uiso   1.00
H1174  H     0.91806   0.59516   0.89587   0.00000  Uiso   1.00
H1175  H     0.76118   0.43992   0.91001   0.00000  Uiso   1.00
H1176  H     0.90548   0.56008   0.75666   0.00000  Uiso   1.00
H1177  H     0.89006   0.37473   0.89170   0.00000  Uiso   1.00
H1178  H     0.77194   0.45710   0.70544   0.00000  Uiso   1.00
H1179  H     0.89473   0.54290   0.96123   0.00000  Uiso   1.00
H1180  H     0.99771   0.49649   0.74470   0.00000  Uiso   1.00
H1181  H     0.67063   0.44851   0.76843   0.00000  Uiso   1.00
H1182  H     0.66896   0.50351   0.92197   0.00000  Uiso   1.00
H1183  H     0.99603   0.55149   0.89824   0.00000  Uiso   1.00
H1184  H     0.74861   0.40484   0.77080   0.00000  Uiso   1.00
N1185  N     0.83335   0.50001   0.95069   0.00000  Uiso   1.00
N1186  N     0.83332   0.49999   0.71597   0.00000  Uiso   1.00
N1187  N     0.98888   0.47753   0.77250   0.00000  Uiso   1.00
N1188  N     0.67779   0.52247   0.89417   0.00000  Uiso   1.00
O1189  O     0.83333   0.43989   0.87291   0.00000  Uiso   1.00
O1190  O     0.93107   0.64626   0.93316   0.00000  Uiso   1.00
O1191  O     0.72418   0.43253   0.96450   0.00000  Uiso   1.00
O1192  O     0.94248   0.56747   0.70217   0.00000  Uiso   1.00
O1193  O     0.83334   0.56011   0.79375   0.00000  Uiso   1.00
O1194  O     0.83333   0.43988   0.79372   0.00000  Uiso   1.00
O1195  O     0.83334   0.56012   0.87294   0.00000  Uiso   1.00
O1196  O     0.75828   0.50000   0.86379   0.00000  Uiso   1.00
O1197  O     0.90839   0.50000   0.80288   0.00000  Uiso   1.00
O1198  O     0.75828   0.49999   0.78460   0.00000  Uiso   1.00
O1199  O     0.90839   0.50001   0.88207   0.00000  Uiso   1.00
O1200  O     0.73558   0.35373   0.73352   0.00000  Uiso   1.00
C1201  C     0.16493   0.75415   0.83333   0.00000  Uiso   1.00
C1202  C     0.19818   0.68967   0.86679   0.00000  Uiso   1.00
C1203  C     0.16953   0.95724   0.83311   0.00000  Uiso   1.00
C1204  C     0.16380   0.70943   0.83355   0.00000  Uiso   1.00
C1205  C     0.13225   0.80950   0.68857   0.00000  Uiso   1.00
C1206  C     0.20109   0.85716   0.97810   0.00000  Uiso   1.00
C1207  C     0.13178   0.80904   0.97241   0.00000  Uiso   1.00
C1208  C     0.20156   0.85762   0.69426   0.00000  Uiso   1.00
C1209  C     0.09171   0.70632   0.76637   0.00000  Uiso   1.00
C1210  C     0.24162   0.96034   0.90030   0.00000  Uiso   1.00
C1211  C     0.09293   0.78120   0.94584   0.00000  Uiso   1.00
C1212  C     0.16841   0.91252   0.83334   0.00000  Uiso   1.00
C1213  C     0.24040   0.88547   0.72082   0.00000  Uiso   1.00
C1214  C     0.06825   0.83278   0.82162   0.00000  Uiso   1.00
C1215  C     0.26509   0.83388   0.84505   0.00000  Uiso   1.00
C1216  C     0.01336   0.82839   0.81567   0.00000  Uiso   1.00
C1217  C     0.31997   0.83827   0.85100   0.00000  Uiso   1.00
C1218  C     0.13133   0.68649   0.79988   0.00000  Uiso   1.00
C1219  C     0.20200   0.98017   0.86678   0.00000  Uiso   1.00
C1220  C     0.13515   0.97699   0.79987   0.00000  Uiso   1.00
Cu1221 Cu    0.16667   0.83334   0.88022   0.00000  Uiso   1.00
Cu1222 Cu    0.16667   0.83333   0.78645   0.00000  Uiso   1.00
H1223  H     0.10993   0.95860   0.77496   0.00000  Uiso   1.00
H1224  H     0.25139   0.92850   0.89587   0.00000  Uiso   1.00
H1225  H     0.09452   0.77325   0.91001   0.00000  Uiso   1.00
H1226  H     0.23882   0.89342   0.75666   0.00000  Uiso   1.00
H1227  H     0.22340   0.70806   0.89170   0.00000  Uiso   1.00
H1228  H     0.10527   0.79043   0.70544   0.00000  Uiso   1.00
H1229  H     0.22806   0.87624   0.96123   0.00000  Uiso   1.00
H1230  H     0.33104   0.82983   0.74470   0.00000  Uiso   1.00
H1231  H     0.00397   0.78185   0.76843   0.00000  Uiso   1.00
H1232  H     0.00229   0.83684   0.92197   0.00000  Uiso   1.00
H1233  H     0.32937   0.88482   0.89824   0.00000  Uiso   1.00
H1234  H     0.08194   0.73817   0.77080   0.00000  Uiso   1.00
N1235  N     0.16668   0.83334   0.95069   0.00000  Uiso   1.00
N1236  N     0.16665   0.83332   0.71597   0.00000  Uiso   1.00
N1237  N     0.32221   0.81086   0.77250   0.00000  Uiso   1.00
N1238  N     0.01112   0.85581   0.89417   0.00000  Uiso   1.00
O1239  O     0.16666   0.77322   0.87291   0.00000  Uiso   1.00
O1240  O     0.26441   0.97960   0.93316   0.00000  Uiso   1.00
O1241  O     0.05752   0.76587   0.96450   0.00000  Uiso   1.00
O1242  O     0.27582   0.90080   0.70217   0.00000  Uiso   1.00
O1243  O     0.16667   0.89345   0.79375   0.00000  Uiso   1.00
O1244  O     0.16666   0.77321   0.79372   0.00000  Uiso   1.00
O1245  O     0.16667   0.89346   0.87294   0.00000  Uiso   1.00
O1246  O     0.09161   0.83334   0.86379   0.00000  Uiso   1.00
O1247  O     0.24172   0.83333   0.80288   0.00000  Uiso   1.00
O1248  O     0.09161   0.83333   0.78460   0.00000  Uiso   1.00
O1249  O     0.24172   0.83334   0.88207   0.00000  Uiso   1.00
O1250  O     0.06891   0.68706   0.73352   0.00000  Uiso   1.00
C1251  C     0.49826   0.75415   0.83333   0.00000  Uiso   1.00
C1252  C     0.53151   0.68967   0.86679   0.00000  Uiso   1.00
C1253  C     0.50287   0.95724   0.83311   0.00000  Uiso   1.00
C1254  C     0.49713   0.70943   0.83355   0.00000  Uiso   1.00
C1255  C     0.46558   0.80950   0.68857   0.00000  Uiso   1.00
C1256  C     0.53442   0.85716   0.97810   0.00000  Uiso   1.00
C1257  C     0.46511   0.80904   0.97241   0.00000  Uiso   1.00
C1258  C     0.53489   0.85762   0.69426   0.00000  Uiso   1.00
C1259  C     0.42504   0.70632   0.76637   0.00000  Uiso   1.00
C1260  C     0.57495   0.96034   0.90030   0.00000  Uiso   1.00
C1261  C     0.42626   0.78120   0.94584   0.00000  Uiso   1.00
C1262  C     0.50174   0.91252   0.83334   0.00000  Uiso   1.00
C1263  C     0.57374   0.88547   0.72082   0.00000  Uiso   1.00
C1264  C     0.40158   0.83278   0.82162   0.00000  Uiso   1.00
C1265  C     0.59842   0.83388   0.84505   0.00000  Uiso   1.00
C1266  C     0.34670   0.82839   0.81567   0.00000  Uiso   1.00
C1267  C     0.65330   0.83827   0.85100   0.00000  Uiso   1.00
C1268  C     0.46466   0.68649   0.79988   0.00000  Uiso   1.00
C1269  C     0.53533   0.98017   0.86678   0.00000  Uiso   1.00
C1270  C     0.46849   0.97699   0.79987   0.00000  Uiso   1.00
Cu1271 Cu    0.50000   0.83334   0.88022   0.00000  Uiso   1.00
Cu1272 Cu    0.50000   0.83333   0.78645   0.00000  Uiso   1.00
H1273  H     0.44327   0.95860   0.77496   0.00000  Uiso   1.00
H1274  H     0.58473   0.92850   0.89587   0.00000  Uiso   1.00
H1275  H     0.42785   0.77325   0.91001   0.00000  Uiso   1.00
H1276  H     0.57215   0.89342   0.75666   0.00000  Uiso   1.00
H1277  H     0.55673   0.70806   0.89170   0.00000  Uiso   1.00
H1278  H     0.43860   0.79043   0.70544   0.00000  Uiso   1.00
H1279  H     0.56140   0.87624   0.96123   0.00000  Uiso   1.00
H1280  H     0.66437   0.82983   0.74470   0.00000  Uiso   1.00
H1281  H     0.33730   0.78185   0.76843   0.00000  Uiso   1.00
H1282  H     0.33563   0.83684   0.92197   0.00000  Uiso   1.00
H1283  H     0.66270   0.88482   0.89824   0.00000  Uiso   1.00
H1284  H     0.41528   0.73817   0.77080   0.00000  Uiso   1.00
N1285  N     0.50001   0.83334   0.95069   0.00000  Uiso   1.00
N1286  N     0.49999   0.83332   0.71597   0.00000  Uiso   1.00
N1287  N     0.65555   0.81086   0.77250   0.00000  Uiso   1.00
N1288  N     0.34445   0.85581   0.89417   0.00000  Uiso   1.00
O1289  O     0.50000   0.77322   0.87291   0.00000  Uiso   1.00
O1290  O     0.59774   0.97960   0.93316   0.00000  Uiso   1.00
O1291  O     0.39085   0.76587   0.96450   0.00000  Uiso   1.00
O1292  O     0.60915   0.90080   0.70217   0.00000  Uiso   1.00
O1293  O     0.50000   0.89345   0.79375   0.00000  Uiso   1.00
O1294  O     0.50000   0.77321   0.79372   0.00000  Uiso   1.00
O1295  O     0.50000   0.89346   0.87294   0.00000  Uiso   1.00
O1296  O     0.42495   0.83334   0.86379   0.00000  Uiso   1.00
O1297  O     0.57505   0.83333   0.80288   0.00000  Uiso   1.00
O1298  O     0.42494   0.83333   0.78460   0.00000  Uiso   1.00
O1299  O     0.57506   0.83334   0.88207   0.00000  Uiso   1.00
O1300  O     0.40224   0.68706   0.73352   0.00000  Uiso   1.00
C1301  C     0.83159   0.75415   0.83333   0.00000  Uiso   1.00
C1302  C     0.86485   0.68967   0.86679   0.00000  Uiso   1.00
C1303  C     0.83620   0.95724   0.83311   0.00000  Uiso   1.00
C1304  C     0.83047   0.70943   0.83355   0.00000  Uiso   1.00
C1305  C     0.79891   0.80950   0.68857   0.00000  Uiso   1.00
C1306  C     0.86775   0.85716   0.97810   0.00000  Uiso   1.00
C1307  C     0.79844   0.80904   0.97241   0.00000  Uiso   1.00
C1308  C     0.86822   0.85762   0.69426   0.00000  Uiso   1.00
C1309  C     0.75838   0.70632   0.76637   0.00000  Uiso   1.00
C1310  C     0.90829   0.96034   0.90030   0.00000  Uiso   1.00
C1311  C     0.75960   0.78120   0.94584   0.00000  Uiso   1.00
C1312  C     0.83507   0.91252   0.83334   0.00000  Uiso   1.00
C1313  C     0.90707   0.88547   0.72082   0.00000  Uiso   1.00
C1314  C     0.73491   0.83278   0.82162   0.00000  Uiso   1.00
C1315  C     0.93175   0.83388   0.84505   0.00000  Uiso   1.00
C1316  C     0.68003   0.82839   0.81567   0.00000  Uiso   1.00
C1317  C     0.98664   0.83827   0.85100   0.00000  Uiso   1.00
C1318  C     0.79800   0.68649   0.79988   0.00000  Uiso   1.00
C1319  C     0.86867   0.98017   0.86678   0.00000  Uiso   1.00
C1320  C     0.80182   0.97699   0.79987   0.00000  Uiso   1.00
Cu1321 Cu    0.83333   0.83334   0.88022   0.00000  Uiso   1.00
Cu1322 Cu    0.83333   0.83333   0.78645   0.00000  Uiso   1.00
H1323  H     0.77660   0.95860   0.77496   0.00000  Uiso   1.00
H1324  H     0.91806   0.92850   0.89587   0.00000  Uiso   1.00
H1325  H     0.76118   0.77325   0.91001   0.00000  Uiso   1.00
H1326  H     0.90548   0.89342   0.75666   0.00000  Uiso   1.00
H1327  H     0.89006   0.70806   0.89170   0.00000  Uiso   1.00
H1328  H     0.77194   0.79043   0.70544   0.00000  Uiso   1.00
H1329  H     0.89473   0.87624   0.96123   0.00000  Uiso   1.00
H1330  H     0.99771   0.82983   0.74470   0.00000  Uiso   1.00
H1331  H     0.67063   0.78185   0.76843   0.00000  Uiso   1.00
H1332  H     0.66896   0.83684   0.92197   0.00000  Uiso   1.00
H1333  H     0.99603   0.88482   0.89824   0.00000  Uiso   1.00
H1334  H     0.74861   0.73817   0.77080   0.00000  Uiso   1.00
N1335  N     0.83335   0.83334   0.95069   0.00000  Uiso   1.00
N1336  N     0.83332   0.83332   0.71597   0.00000  Uiso   1.00
N1337  N     0.98888   0.81086   0.77250   0.00000  Uiso   1.00
N1338  N     0.67779   0.85581   0.89417   0.00000  Uiso   1.00
O1339  O     0.83333   0.77322   0.87291   0.00000  Uiso   1.00
O1340  O     0.93107   0.97960   0.93316   0.00000  Uiso   1.00
O1341  O     0.72418   0.76587   0.96450   0.00000  Uiso   1.00
O1342  O     0.94248   0.90080   0.70217   0.00000  Uiso   1.00
O1343  O     0.83334   0.89345   0.79375   0.00000  Uiso   1.00
O1344  O     0.83333   0.77321   0.79372   0.00000  Uiso   1.00
O1345  O     0.83334   0.89346   0.87294   0.00000  Uiso   1.00
O1346  O     0.75828   0.83334   0.86379   0.00000  Uiso   1.00
O1347  O     0.90839   0.83333   0.80288   0.00000  Uiso   1.00
O1348  O     0.75828   0.83333   0.78460   0.00000  Uiso   1.00
O1349  O     0.90839   0.83334   0.88207   0.00000  Uiso   1.00
O1350  O     0.73558   0.68706   0.73352   0.00000  Uiso   1.00
loop_
_geom_bond_atom_site_label_1
_geom_bond_atom_site_label_2
_geom_bond_distance
_geom_bond_site_symmetry_2
_ccdc_geom_bond_type
C1     O44     1.293   .     A
C1     C4      1.446   .     S
C1     O39     1.296   .     A
C2     H27     1.085   .     S
C2     C4      1.398   .     A
C2     C319    1.393   1_545 S
C3     C19     1.412   .     A
C3     C20     1.398   .     A
C3     C12     1.446   .     S
C4     C18     1.412   .     A
C5     H28     1.082   .     S
C5     N36     1.353   .     A
C5     C907    1.421   1_554 S
C6     H29     1.082   .     S
C6     N35     1.353   .     A
C6     C458    1.421   .     S
C7     C11     1.486   .     S
C7     N35     1.392   .     A
C7     C455    1.421   .     S
C8     C13     1.486   .     S
C8     N36     1.392   .     A
C8     C906    1.421   1_554 S
C9     H34     1.083   .     S
C9     C18     1.488   .     S
C9     O50     1.221   .     D
C10    C19     1.488   .     S
C10    O40     1.221   .     D
C10    H24     1.083   .     S
C11    O41     1.222   .     D
C11    H25     1.071   .     S
C12    O43     1.296   .     A
C12    O45     1.293   .     A
C13    O42     1.222   .     D
C13    H26     1.071   .     S
C14    O46     1.291   .     A
C14    C16     1.440   .     S
C14    O48     1.294   .     A
C15    O47     1.291   .     A
C15    O49     1.294   .     A
C15    C17     1.440   .     S
C16    C117    1.353   1_455 S
C16    N137    1.440   1_455 S
C17    C66     1.353   .     S
C17    N88     1.440   .     S
C18    C320    1.393   1_545 S
C19    C152    1.393   .     S
C20    H23     1.085   .     S
C20    C168    1.393   .     S
Cu21   N35     2.026   .     S
Cu21   O39     1.959   .     S
Cu21   O49     1.975   .     S
Cu21   Cu22    2.695   .     S
Cu21   O45     1.953   .     S
Cu21   O46     1.979   .     S
Cu22   O48     1.975   .     S
Cu22   N36     2.026   .     S
Cu22   O47     1.979   .     S
Cu22   O44     1.953   .     S
Cu22   O43     1.959   .     S
H30    N37     1.045   .     S
H31    N137    1.045   1_455 S
H32    N38     1.045   .     S
H33    N88     1.045   .     S
N37    H81     1.045   .     S
N37    C66     1.440   .     S
N38    H133    1.045   1_455 S
N38    C117    1.440   1_455 S
C51    O94     1.293   .     A
C51    C54     1.446   .     S
C51    O89     1.296   .     A
C52    H77     1.085   .     S
C52    C54     1.398   .     A
C52    C369    1.393   1_545 S
C53    C69     1.412   .     A
C53    C70     1.398   .     A
C53    C62     1.446   .     S
C54    C68     1.412   .     A
C55    H78     1.082   .     S
C55    N86     1.353   .     A
C55    C957    1.421   1_554 S
C56    H79     1.082   .     S
C56    N85     1.353   .     A
C56    C508    1.421   .     S
C57    C61     1.486   .     S
C57    N85     1.392   .     A
C57    C505    1.421   .     S
C58    C63     1.486   .     S
C58    N86     1.392   .     A
C58    C956    1.421   1_554 S
C59    H84     1.083   .     S
C59    C68     1.488   .     S
C59    O100    1.221   .     D
C60    C69     1.488   .     S
C60    O90     1.221   .     D
C60    H74     1.083   .     S
C61    O91     1.222   .     D
C61    H75     1.071   .     S
C62    O93     1.296   .     A
C62    O95     1.293   .     A
C63    O92     1.222   .     D
C63    H76     1.071   .     S
C64    O96     1.291   .     A
C64    C66     1.440   .     S
C64    O98     1.294   .     A
C65    O97     1.291   .     A
C65    O99     1.294   .     A
C65    C67     1.440   .     S
C67    C116    1.353   .     S
C67    N138    1.440   .     S
C68    C370    1.393   1_545 S
C69    C202    1.393   .     S
C70    H73     1.085   .     S
C70    C218    1.393   .     S
Cu71   N85     2.026   .     S
Cu71   O89     1.959   .     S
Cu71   O99     1.975   .     S
Cu71   Cu72    2.695   .     S
Cu71   O95     1.953   .     S
Cu71   O96     1.979   .     S
Cu72   O98     1.975   .     S
Cu72   N86     2.026   .     S
Cu72   O97     1.979   .     S
Cu72   O94     1.953   .     S
Cu72   O93     1.959   .     S
H80    N87     1.045   .     S
H82    N88     1.045   .     S
H83    N138    1.045   .     S
N87    H131    1.045   .     S
N87    C116    1.440   .     S
C101   O144    1.293   .     A
C101   C104    1.446   .     S
C101   O139    1.296   .     A
C102   H127    1.085   .     S
C102   C104    1.398   .     A
C102   C419    1.393   1_545 S
C103   C119    1.412   .     A
C103   C120    1.398   .     A
C103   C112    1.446   .     S
C104   C118    1.412   .     A
C105   H128    1.082   .     S
C105   N136    1.353   .     A
C105   C1007   1.421   1_554 S
C106   H129    1.082   .     S
C106   N135    1.353   .     A
C106   C558    1.421   .     S
C107   C111    1.486   .     S
C107   N135    1.392   .     A
C107   C555    1.421   .     S
C108   C113    1.486   .     S
C108   N136    1.392   .     A
C108   C1006   1.421   1_554 S
C109   H134    1.083   .     S
C109   C118    1.488   .     S
C109   O150    1.221   .     D
C110   C119    1.488   .     S
C110   O140    1.221   .     D
C110   H124    1.083   .     S
C111   O141    1.222   .     D
C111   H125    1.071   .     S
C112   O143    1.296   .     A
C112   O145    1.293   .     A
C113   O142    1.222   .     D
C113   H126    1.071   .     S
C114   O146    1.291   .     A
C114   C116    1.440   .     S
C114   O148    1.294   .     A
C115   O147    1.291   .     A
C115   O149    1.294   .     A
C115   C117    1.440   .     S
C117   C16     1.353   1_655 S
C117   N38     1.440   1_655 S
C118   C420    1.393   1_545 S
C119   C252    1.393   .     S
C120   H123    1.085   .     S
C120   C268    1.393   .     S
Cu121  N135    2.026   .     S
Cu121  O139    1.959   .     S
Cu121  O149    1.975   .     S
Cu121  Cu122   2.695   .     S
Cu121  O145    1.953   .     S
Cu121  O146    1.979   .     S
Cu122  O148    1.975   .     S
Cu122  N136    2.026   .     S
Cu122  O147    1.979   .     S
Cu122  O144    1.953   .     S
Cu122  O143    1.959   .     S
H130   N137    1.045   .     S
H132   N138    1.045   .     S
H133   N38     1.045   1_655 S
N137   H31     1.045   1_655 S
N137   C16     1.440   1_655 S
C151   O194    1.293   .     A
C151   C154    1.446   .     S
C151   O189    1.296   .     A
C152   H177    1.085   .     S
C152   C154    1.398   .     A
C153   C169    1.412   .     A
C153   C170    1.398   .     A
C153   C162    1.446   .     S
C154   C168    1.412   .     A
C155   H178    1.082   .     S
C155   N186    1.353   .     A
C155   C1057   1.421   1_554 S
C156   H179    1.082   .     S
C156   N185    1.353   .     A
C156   C608    1.421   .     S
C157   C161    1.486   .     S
C157   N185    1.392   .     A
C157   C605    1.421   .     S
C158   C163    1.486   .     S
C158   N186    1.392   .     A
C158   C1056   1.421   1_554 S
C159   H184    1.083   .     S
C159   C168    1.488   .     S
C159   O200    1.221   .     D
C160   C169    1.488   .     S
C160   O190    1.221   .     D
C160   H174    1.083   .     S
C161   O191    1.222   .     D
C161   H175    1.071   .     S
C162   O193    1.296   .     A
C162   O195    1.293   .     A
C163   O192    1.222   .     D
C163   H176    1.071   .     S
C164   O196    1.291   .     A
C164   C166    1.440   .     S
C164   O198    1.294   .     A
C165   O197    1.291   .     A
C165   O199    1.294   .     A
C165   C167    1.440   .     S
C166   C267    1.353   1_455 S
C166   N287    1.440   1_455 S
C167   C216    1.353   .     S
C167   N238    1.440   .     S
C169   C302    1.393   .     S
C170   H173    1.085   .     S
C170   C318    1.393   .     S
Cu171  N185    2.026   .     S
Cu171  O189    1.959   .     S
Cu171  O199    1.975   .     S
Cu171  Cu172   2.695   .     S
Cu171  O195    1.953   .     S
Cu171  O196    1.979   .     S
Cu172  O198    1.975   .     S
Cu172  N186    2.026   .     S
Cu172  O197    1.979   .     S
Cu172  O194    1.953   .     S
Cu172  O193    1.959   .     S
H180   N187    1.045   .     S
H181   N287    1.045   1_455 S
H182   N188    1.045   .     S
H183   N238    1.045   .     S
N187   H231    1.045   .     S
N187   C216    1.440   .     S
N188   H283    1.045   1_455 S
N188   C267    1.440   1_455 S
C201   O244    1.293   .     A
C201   C204    1.446   .     S
C201   O239    1.296   .     A
C202   H227    1.085   .     S
C202   C204    1.398   .     A
C203   C219    1.412   .     A
C203   C220    1.398   .     A
C203   C212    1.446   .     S
C204   C218    1.412   .     A
C205   H228    1.082   .     S
C205   N236    1.353   .     A
C205   C1107   1.421   1_554 S
C206   H229    1.082   .     S
C206   N235    1.353   .     A
C206   C658    1.421   .     S
C207   C211    1.486   .     S
C207   N235    1.392   .     A
C207   C655    1.421   .     S
C208   C213    1.486   .     S
C208   N236    1.392   .     A
C208   C1106   1.421   1_554 S
C209   H234    1.083   .     S
C209   C218    1.488   .     S
C209   O250    1.221   .     D
C210   C219    1.488   .     S
C210   O240    1.221   .     D
C210   H224    1.083   .     S
C211   O241    1.222   .     D
C211   H225    1.071   .     S
C212   O243    1.296   .     A
C212   O245    1.293   .     A
C213   O242    1.222   .     D
C213   H226    1.071   .     S
C214   O246    1.291   .     A
C214   C216    1.440   .     S
C214   O248    1.294   .     A
C215   O247    1.291   .     A
C215   O249    1.294   .     A
C215   C217    1.440   .     S
C217   C266    1.353   .     S
C217   N288    1.440   .     S
C219   C352    1.393   .     S
C220   H223    1.085   .     S
C220   C368    1.393   .     S
Cu221  N235    2.026   .     S
Cu221  O239    1.959   .     S
Cu221  O249    1.975   .     S
Cu221  Cu222   2.695   .     S
Cu221  O245    1.953   .     S
Cu221  O246    1.979   .     S
Cu222  O248    1.975   .     S
Cu222  N236    2.026   .     S
Cu222  O247    1.979   .     S
Cu222  O244    1.953   .     S
Cu222  O243    1.959   .     S
H230   N237    1.045   .     S
H232   N238    1.045   .     S
H233   N288    1.045   .     S
N237   H281    1.045   .     S
N237   C266    1.440   .     S
C251   O294    1.293   .     A
C251   C254    1.446   .     S
C251   O289    1.296   .     A
C252   H277    1.085   .     S
C252   C254    1.398   .     A
C253   C269    1.412   .     A
C253   C270    1.398   .     A
C253   C262    1.446   .     S
C254   C268    1.412   .     A
C255   H278    1.082   .     S
C255   N286    1.353   .     A
C255   C1157   1.421   1_554 S
C256   H279    1.082   .     S
C256   N285    1.353   .     A
C256   C708    1.421   .     S
C257   C261    1.486   .     S
C257   N285    1.392   .     A
C257   C705    1.421   .     S
C258   C263    1.486   .     S
C258   N286    1.392   .     A
C258   C1156   1.421   1_554 S
C259   H284    1.083   .     S
C259   C268    1.488   .     S
C259   O300    1.221   .     D
C260   C269    1.488   .     S
C260   O290    1.221   .     D
C260   H274    1.083   .     S
C261   O291    1.222   .     D
C261   H275    1.071   .     S
C262   O293    1.296   .     A
C262   O295    1.293   .     A
C263   O292    1.222   .     D
C263   H276    1.071   .     S
C264   O296    1.291   .     A
C264   C266    1.440   .     S
C264   O298    1.294   .     A
C265   O297    1.291   .     A
C265   O299    1.294   .     A
C265   C267    1.440   .     S
C267   C166    1.353   1_655 S
C267   N188    1.440   1_655 S
C269   C402    1.393   .     S
C270   H273    1.085   .     S
C270   C418    1.393   .     S
Cu271  N285    2.026   .     S
Cu271  O289    1.959   .     S
Cu271  O299    1.975   .     S
Cu271  Cu272   2.695   .     S
Cu271  O295    1.953   .     S
Cu271  O296    1.979   .     S
Cu272  O298    1.975   .     S
Cu272  N286    2.026   .     S
Cu272  O297    1.979   .     S
Cu272  O294    1.953   .     S
Cu272  O293    1.959   .     S
H280   N287    1.045   .     S
H282   N288    1.045   .     S
H283   N188    1.045   1_655 S
N287   H181    1.045   1_655 S
N287   C166    1.440   1_655 S
C301   O344    1.293   .     A
C301   C304    1.446   .     S
C301   O339    1.296   .     A
C302   H327    1.085   .     S
C302   C304    1.398   .     A
C303   C319    1.412   .     A
C303   C320    1.398   .     A
C303   C312    1.446   .     S
C304   C318    1.412   .     A
C305   H328    1.082   .     S
C305   N336    1.353   .     A
C305   C1207   1.421   1_554 S
C306   H329    1.082   .     S
C306   N335    1.353   .     A
C306   C758    1.421   .     S
C307   C311    1.486   .     S
C307   N335    1.392   .     A
C307   C755    1.421   .     S
C308   C313    1.486   .     S
C308   N336    1.392   .     A
C308   C1206   1.421   1_554 S
C309   H334    1.083   .     S
C309   C318    1.488   .     S
C309   O350    1.221   .     D
C310   C319    1.488   .     S
C310   O340    1.221   .     D
C310   H324    1.083   .     S
C311   O341    1.222   .     D
C311   H325    1.071   .     S
C312   O343    1.296   .     A
C312   O345    1.293   .     A
C313   O342    1.222   .     D
C313   H326    1.071   .     S
C314   O346    1.291   .     A
C314   C316    1.440   .     S
C314   O348    1.294   .     A
C315   O347    1.291   .     A
C315   O349    1.294   .     A
C315   C317    1.440   .     S
C316   C417    1.353   1_455 S
C316   N437    1.440   1_455 S
C317   C366    1.353   .     S
C317   N388    1.440   .     S
C319   C2      1.393   1_565 S
C320   H323    1.085   .     S
C320   C18     1.393   1_565 S
Cu321  N335    2.026   .     S
Cu321  O339    1.959   .     S
Cu321  O349    1.975   .     S
Cu321  Cu322   2.695   .     S
Cu321  O345    1.953   .     S
Cu321  O346    1.979   .     S
Cu322  O348    1.975   .     S
Cu322  N336    2.026   .     S
Cu322  O347    1.979   .     S
Cu322  O344    1.953   .     S
Cu322  O343    1.959   .     S
H330   N337    1.045   .     S
H331   N437    1.045   1_455 S
H332   N338    1.045   .     S
H333   N388    1.045   .     S
N337   H381    1.045   .     S
N337   C366    1.440   .     S
N338   H433    1.045   1_455 S
N338   C417    1.440   1_455 S
C351   O394    1.293   .     A
C351   C354    1.446   .     S
C351   O389    1.296   .     A
C352   H377    1.085   .     S
C352   C354    1.398   .     A
C353   C369    1.412   .     A
C353   C370    1.398   .     A
C353   C362    1.446   .     S
C354   C368    1.412   .     A
C355   H378    1.082   .     S
C355   N386    1.353   .     A
C355   C1257   1.421   1_554 S
C356   H379    1.082   .     S
C356   N385    1.353   .     A
C356   C808    1.421   .     S
C357   C361    1.486   .     S
C357   N385    1.392   .     A
C357   C805    1.421   .     S
C358   C363    1.486   .     S
C358   N386    1.392   .     A
C358   C1256   1.421   1_554 S
C359   H384    1.083   .     S
C359   C368    1.488   .     S
C359   O400    1.221   .     D
C360   C369    1.488   .     S
C360   O390    1.221   .     D
C360   H374    1.083   .     S
C361   O391    1.222   .     D
C361   H375    1.071   .     S
C362   O393    1.296   .     A
C362   O395    1.293   .     A
C363   O392    1.222   .     D
C363   H376    1.071   .     S
C364   O396    1.291   .     A
C364   C366    1.440   .     S
C364   O398    1.294   .     A
C365   O397    1.291   .     A
C365   O399    1.294   .     A
C365   C367    1.440   .     S
C367   C416    1.353   .     S
C367   N438    1.440   .     S
C369   C52     1.393   1_565 S
C370   H373    1.085   .     S
C370   C68     1.393   1_565 S
Cu371  N385    2.026   .     S
Cu371  O389    1.959   .     S
Cu371  O399    1.975   .     S
Cu371  Cu372   2.695   .     S
Cu371  O395    1.953   .     S
Cu371  O396    1.979   .     S
Cu372  O398    1.975   .     S
Cu372  N386    2.026   .     S
Cu372  O397    1.979   .     S
Cu372  O394    1.953   .     S
Cu372  O393    1.959   .     S
H380   N387    1.045   .     S
H382   N388    1.045   .     S
H383   N438    1.045   .     S
N387   H431    1.045   .     S
N387   C416    1.440   .     S
C401   O444    1.293   .     A
C401   C404    1.446   .     S
C401   O439    1.296   .     A
C402   H427    1.085   .     S
C402   C404    1.398   .     A
C403   C419    1.412   .     A
C403   C420    1.398   .     A
C403   C412    1.446   .     S
C404   C418    1.412   .     A
C405   H428    1.082   .     S
C405   N436    1.353   .     A
C405   C1307   1.421   1_554 S
C406   H429    1.082   .     S
C406   N435    1.353   .     A
C406   C858    1.421   .     S
C407   C411    1.486   .     S
C407   N435    1.392   .     A
C407   C855    1.421   .     S
C408   C413    1.486   .     S
C408   N436    1.392   .     A
C408   C1306   1.421   1_554 S
C409   H434    1.083   .     S
C409   C418    1.488   .     S
C409   O450    1.221   .     D
C410   C419    1.488   .     S
C410   O440    1.221   .     D
C410   H424    1.083   .     S
C411   O441    1.222   .     D
C411   H425    1.071   .     S
C412   O443    1.296   .     A
C412   O445    1.293   .     A
C413   O442    1.222   .     D
C413   H426    1.071   .     S
C414   O446    1.291   .     A
C414   C416    1.440   .     S
C414   O448    1.294   .     A
C415   O447    1.291   .     A
C415   O449    1.294   .     A
C415   C417    1.440   .     S
C417   C316    1.353   1_655 S
C417   N338    1.440   1_655 S
C419   C102    1.393   1_565 S
C420   H423    1.085   .     S
C420   C118    1.393   1_565 S
Cu421  N435    2.026   .     S
Cu421  O439    1.959   .     S
Cu421  O449    1.975   .     S
Cu421  Cu422   2.695   .     S
Cu421  O445    1.953   .     S
Cu421  O446    1.979   .     S
Cu422  O448    1.975   .     S
Cu422  N436    2.026   .     S
Cu422  O447    1.979   .     S
Cu422  O444    1.953   .     S
Cu422  O443    1.959   .     S
H430   N437    1.045   .     S
H432   N438    1.045   .     S
H433   N338    1.045   1_655 S
N437   H331    1.045   1_655 S
N437   C316    1.440   1_655 S
C451   O494    1.293   .     A
C451   C454    1.446   .     S
C451   O489    1.296   .     A
C452   H477    1.085   .     S
C452   C454    1.398   .     A
C452   C769    1.393   1_545 S
C453   C469    1.412   .     A
C453   C470    1.398   .     A
C453   C462    1.446   .     S
C454   C468    1.412   .     A
C455   H478    1.082   .     S
C455   N486    1.353   .     A
C456   H479    1.082   .     S
C456   N485    1.353   .     A
C456   C908    1.421   .     S
C457   C461    1.486   .     S
C457   N485    1.392   .     A
C457   C905    1.421   .     S
C458   C463    1.486   .     S
C458   N486    1.392   .     A
C459   H484    1.083   .     S
C459   C468    1.488   .     S
C459   O500    1.221   .     D
C460   C469    1.488   .     S
C460   O490    1.221   .     D
C460   H474    1.083   .     S
C461   O491    1.222   .     D
C461   H475    1.071   .     S
C462   O493    1.296   .     A
C462   O495    1.293   .     A
C463   O492    1.222   .     D
C463   H476    1.071   .     S
C464   O496    1.291   .     A
C464   C466    1.440   .     S
C464   O498    1.294   .     A
C465   O497    1.291   .     A
C465   O499    1.294   .     A
C465   C467    1.440   .     S
C466   C567    1.353   1_455 S
C466   N587    1.440   1_455 S
C467   C516    1.353   .     S
C467   N538    1.440   .     S
C468   C770    1.393   1_545 S
C469   C602    1.393   .     S
C470   H473    1.085   .     S
C470   C618    1.393   .     S
Cu471  N485    2.026   .     S
Cu471  O489    1.959   .     S
Cu471  O499    1.975   .     S
Cu471  Cu472   2.695   .     S
Cu471  O495    1.953   .     S
Cu471  O496    1.979   .     S
Cu472  O498    1.975   .     S
Cu472  N486    2.026   .     S
Cu472  O497    1.979   .     S
Cu472  O494    1.953   .     S
Cu472  O493    1.959   .     S
H480   N487    1.045   .     S
H481   N587    1.045   1_455 S
H482   N488    1.045   .     S
H483   N538    1.045   .     S
N487   H531    1.045   .     S
N487   C516    1.440   .     S
N488   H583    1.045   1_455 S
N488   C567    1.440   1_455 S
C501   O544    1.293   .     A
C501   C504    1.446   .     S
C501   O539    1.296   .     A
C502   H527    1.085   .     S
C502   C504    1.398   .     A
C502   C819    1.393   1_545 S
C503   C519    1.412   .     A
C503   C520    1.398   .     A
C503   C512    1.446   .     S
C504   C518    1.412   .     A
C505   H528    1.082   .     S
C505   N536    1.353   .     A
C506   H529    1.082   .     S
C506   N535    1.353   .     A
C506   C958    1.421   .     S
C507   C511    1.486   .     S
C507   N535    1.392   .     A
C507   C955    1.421   .     S
C508   C513    1.486   .     S
C508   N536    1.392   .     A
C509   H534    1.083   .     S
C509   C518    1.488   .     S
C509   O550    1.221   .     D
C510   C519    1.488   .     S
C510   O540    1.221   .     D
C510   H524    1.083   .     S
C511   O541    1.222   .     D
C511   H525    1.071   .     S
C512   O543    1.296   .     A
C512   O545    1.293   .     A
C513   O542    1.222   .     D
C513   H526    1.071   .     S
C514   O546    1.291   .     A
C514   C516    1.440   .     S
C514   O548    1.294   .     A
C515   O547    1.291   .     A
C515   O549    1.294   .     A
C515   C517    1.440   .     S
C517   C566    1.353   .     S
C517   N588    1.440   .     S
C518   C820    1.393   1_545 S
C519   C652    1.393   .     S
C520   H523    1.085   .     S
C520   C668    1.393   .     S
Cu521  N535    2.026   .     S
Cu521  O539    1.959   .     S
Cu521  O549    1.975   .     S
Cu521  Cu522   2.695   .     S
Cu521  O545    1.953   .     S
Cu521  O546    1.979   .     S
Cu522  O548    1.975   .     S
Cu522  N536    2.026   .     S
Cu522  O547    1.979   .     S
Cu522  O544    1.953   .     S
Cu522  O543    1.959   .     S
H530   N537    1.045   .     S
H532   N538    1.045   .     S
H533   N588    1.045   .     S
N537   H581    1.045   .     S
N537   C566    1.440   .     S
C551   O594    1.293   .     A
C551   C554    1.446   .     S
C551   O589    1.296   .     A
C552   H577    1.085   .     S
C552   C554    1.398   .     A
C552   C869    1.393   1_545 S
C553   C569    1.412   .     A
C553   C570    1.398   .     A
C553   C562    1.446   .     S
C554   C568    1.412   .     A
C555   H578    1.082   .     S
C555   N586    1.353   .     A
C556   H579    1.082   .     S
C556   N585    1.353   .     A
C556   C1008   1.421   .     S
C557   C561    1.486   .     S
C557   N585    1.392   .     A
C557   C1005   1.421   .     S
C558   C563    1.486   .     S
C558   N586    1.392   .     A
C559   H584    1.083   .     S
C559   C568    1.488   .     S
C559   O600    1.221   .     D
C560   C569    1.488   .     S
C560   O590    1.221   .     D
C560   H574    1.083   .     S
C561   O591    1.222   .     D
C561   H575    1.071   .     S
C562   O593    1.296   .     A
C562   O595    1.293   .     A
C563   O592    1.222   .     D
C563   H576    1.071   .     S
C564   O596    1.291   .     A
C564   C566    1.440   .     S
C564   O598    1.294   .     A
C565   O597    1.291   .     A
C565   O599    1.294   .     A
C565   C567    1.440   .     S
C567   C466    1.353   1_655 S
C567   N488    1.440   1_655 S
C568   C870    1.393   1_545 S
C569   C702    1.393   .     S
C570   H573    1.085   .     S
C570   C718    1.393   .     S
Cu571  N585    2.026   .     S
Cu571  O589    1.959   .     S
Cu571  O599    1.975   .     S
Cu571  Cu572   2.695   .     S
Cu571  O595    1.953   .     S
Cu571  O596    1.979   .     S
Cu572  O598    1.975   .     S
Cu572  N586    2.026   .     S
Cu572  O597    1.979   .     S
Cu572  O594    1.953   .     S
Cu572  O593    1.959   .     S
H580   N587    1.045   .     S
H582   N588    1.045   .     S
H583   N488    1.045   1_655 S
N587   H481    1.045   1_655 S
N587   C466    1.440   1_655 S
C601   O644    1.293   .     A
C601   C604    1.446   .     S
C601   O639    1.296   .     A
C602   H627    1.085   .     S
C602   C604    1.398   .     A
C603   C619    1.412   .     A
C603   C620    1.398   .     A
C603   C612    1.446   .     S
C604   C618    1.412   .     A
C605   H628    1.082   .     S
C605   N636    1.353   .     A
C606   H629    1.082   .     S
C606   N635    1.353   .     A
C606   C1058   1.421   .     S
C607   C611    1.486   .     S
C607   N635    1.392   .     A
C607   C1055   1.421   .     S
C608   C613    1.486   .     S
C608   N636    1.392   .     A
C609   H634    1.083   .     S
C609   C618    1.488   .     S
C609   O650    1.221   .     D
C610   C619    1.488   .     S
C610   O640    1.221   .     D
C610   H624    1.083   .     S
C611   O641    1.222   .     D
C611   H625    1.071   .     S
C612   O643    1.296   .     A
C612   O645    1.293   .     A
C613   O642    1.222   .     D
C613   H626    1.071   .     S
C614   O646    1.291   .     A
C614   C616    1.440   .     S
C614   O648    1.294   .     A
C615   O647    1.291   .     A
C615   O649    1.294   .     A
C615   C617    1.440   .     S
C616   C717    1.353   1_455 S
C616   N737    1.440   1_455 S
C617   C666    1.353   .     S
C617   N688    1.440   .     S
C619   C752    1.393   .     S
C620   H623    1.085   .     S
C620   C768    1.393   .     S
Cu621  N635    2.026   .     S
Cu621  O639    1.959   .     S
Cu621  O649    1.975   .     S
Cu621  Cu622   2.695   .     S
Cu621  O645    1.953   .     S
Cu621  O646    1.979   .     S
Cu622  O648    1.975   .     S
Cu622  N636    2.026   .     S
Cu622  O647    1.979   .     S
Cu622  O644    1.953   .     S
Cu622  O643    1.959   .     S
H630   N637    1.045   .     S
H631   N737    1.045   1_455 S
H632   N638    1.045   .     S
H633   N688    1.045   .     S
N637   H681    1.045   .     S
N637   C666    1.440   .     S
N638   H733    1.045   1_455 S
N638   C717    1.440   1_455 S
C651   O694    1.293   .     A
C651   C654    1.446   .     S
C651   O689    1.296   .     A
C652   H677    1.085   .     S
C652   C654    1.398   .     A
C653   C669    1.412   .     A
C653   C670    1.398   .     A
C653   C662    1.446   .     S
C654   C668    1.412   .     A
C655   H678    1.082   .     S
C655   N686    1.353   .     A
C656   H679    1.082   .     S
C656   N685    1.353   .     A
C656   C1108   1.421   .     S
C657   C661    1.486   .     S
C657   N685    1.392   .     A
C657   C1105   1.421   .     S
C658   C663    1.486   .     S
C658   N686    1.392   .     A
C659   H684    1.083   .     S
C659   C668    1.488   .     S
C659   O700    1.221   .     D
C660   C669    1.488   .     S
C660   O690    1.221   .     D
C660   H674    1.083   .     S
C661   O691    1.222   .     D
C661   H675    1.071   .     S
C662   O693    1.296   .     A
C662   O695    1.293   .     A
C663   O692    1.222   .     D
C663   H676    1.071   .     S
C664   O696    1.291   .     A
C664   C666    1.440   .     S
C664   O698    1.294   .     A
C665   O697    1.291   .     A
C665   O699    1.294   .     A
C665   C667    1.440   .     S
C667   C716    1.353   .     S
C667   N738    1.440   .     S
C669   C802    1.393   .     S
C670   H673    1.085   .     S
C670   C818    1.393   .     S
Cu671  N685    2.026   .     S
Cu671  O689    1.959   .     S
Cu671  O699    1.975   .     S
Cu671  Cu672   2.695   .     S
Cu671  O695    1.953   .     S
Cu671  O696    1.979   .     S
Cu672  O698    1.975   .     S
Cu672  N686    2.026   .     S
Cu672  O697    1.979   .     S
Cu672  O694    1.953   .     S
Cu672  O693    1.959   .     S
H680   N687    1.045   .     S
H682   N688    1.045   .     S
H683   N738    1.045   .     S
N687   H731    1.045   .     S
N687   C716    1.440   .     S
C701   O744    1.293   .     A
C701   C704    1.446   .     S
C701   O739    1.296   .     A
C702   H727    1.085   .     S
C702   C704    1.398   .     A
C703   C719    1.412   .     A
C703   C720    1.398   .     A
C703   C712    1.446   .     S
C704   C718    1.412   .     A
C705   H728    1.082   .     S
C705   N736    1.353   .     A
C706   H729    1.082   .     S
C706   N735    1.353   .     A
C706   C1158   1.421   .     S
C707   C711    1.486   .     S
C707   N735    1.392   .     A
C707   C1155   1.421   .     S
C708   C713    1.486   .     S
C708   N736    1.392   .     A
C709   H734    1.083   .     S
C709   C718    1.488   .     S
C709   O750    1.221   .     D
C710   C719    1.488   .     S
C710   O740    1.221   .     D
C710   H724    1.083   .     S
C711   O741    1.222   .     D
C711   H725    1.071   .     S
C712   O743    1.296   .     A
C712   O745    1.293   .     A
C713   O742    1.222   .     D
C713   H726    1.071   .     S
C714   O746    1.291   .     A
C714   C716    1.440   .     S
C714   O748    1.294   .     A
C715   O747    1.291   .     A
C715   O749    1.294   .     A
C715   C717    1.440   .     S
C717   C616    1.353   1_655 S
C717   N638    1.440   1_655 S
C719   C852    1.393   .     S
C720   H723    1.085   .     S
C720   C868    1.393   .     S
Cu721  N735    2.026   .     S
Cu721  O739    1.959   .     S
Cu721  O749    1.975   .     S
Cu721  Cu722   2.695   .     S
Cu721  O745    1.953   .     S
Cu721  O746    1.979   .     S
Cu722  O748    1.975   .     S
Cu722  N736    2.026   .     S
Cu722  O747    1.979   .     S
Cu722  O744    1.953   .     S
Cu722  O743    1.959   .     S
H730   N737    1.045   .     S
H732   N738    1.045   .     S
H733   N638    1.045   1_655 S
N737   H631    1.045   1_655 S
N737   C616    1.440   1_655 S
C751   O794    1.293   .     A
C751   C754    1.446   .     S
C751   O789    1.296   .     A
C752   H777    1.085   .     S
C752   C754    1.398   .     A
C753   C769    1.412   .     A
C753   C770    1.398   .     A
C753   C762    1.446   .     S
C754   C768    1.412   .     A
C755   H778    1.082   .     S
C755   N786    1.353   .     A
C756   H779    1.082   .     S
C756   N785    1.353   .     A
C756   C1208   1.421   .     S
C757   C761    1.486   .     S
C757   N785    1.392   .     A
C757   C1205   1.421   .     S
C758   C763    1.486   .     S
C758   N786    1.392   .     A
C759   H784    1.083   .     S
C759   C768    1.488   .     S
C759   O800    1.221   .     D
C760   C769    1.488   .     S
C760   O790    1.221   .     D
C760   H774    1.083   .     S
C761   O791    1.222   .     D
C761   H775    1.071   .     S
C762   O793    1.296   .     A
C762   O795    1.293   .     A
C763   O792    1.222   .     D
C763   H776    1.071   .     S
C764   O796    1.291   .     A
C764   C766    1.440   .     S
C764   O798    1.294   .     A
C765   O797    1.291   .     A
C765   O799    1.294   .     A
C765   C767    1.440   .     S
C766   C867    1.353   1_455 S
C766   N887    1.440   1_455 S
C767   C816    1.353   .     S
C767   N838    1.440   .     S
C769   C452    1.393   1_565 S
C770   H773    1.085   .     S
C770   C468    1.393   1_565 S
Cu771  N785    2.026   .     S
Cu771  O789    1.959   .     S
Cu771  O799    1.975   .     S
Cu771  Cu772   2.695   .     S
Cu771  O795    1.953   .     S
Cu771  O796    1.979   .     S
Cu772  O798    1.975   .     S
Cu772  N786    2.026   .     S
Cu772  O797    1.979   .     S
Cu772  O794    1.953   .     S
Cu772  O793    1.959   .     S
H780   N787    1.045   .     S
H781   N887    1.045   1_455 S
H782   N788    1.045   .     S
H783   N838    1.045   .     S
N787   H831    1.045   .     S
N787   C816    1.440   .     S
N788   H883    1.045   1_455 S
N788   C867    1.440   1_455 S
C801   O844    1.293   .     A
C801   C804    1.446   .     S
C801   O839    1.296   .     A
C802   H827    1.085   .     S
C802   C804    1.398   .     A
C803   C819    1.412   .     A
C803   C820    1.398   .     A
C803   C812    1.446   .     S
C804   C818    1.412   .     A
C805   H828    1.082   .     S
C805   N836    1.353   .     A
C806   H829    1.082   .     S
C806   N835    1.353   .     A
C806   C1258   1.421   .     S
C807   C811    1.486   .     S
C807   N835    1.392   .     A
C807   C1255   1.421   .     S
C808   C813    1.486   .     S
C808   N836    1.392   .     A
C809   H834    1.083   .     S
C809   C818    1.488   .     S
C809   O850    1.221   .     D
C810   C819    1.488   .     S
C810   O840    1.221   .     D
C810   H824    1.083   .     S
C811   O841    1.222   .     D
C811   H825    1.071   .     S
C812   O843    1.296   .     A
C812   O845    1.293   .     A
C813   O842    1.222   .     D
C813   H826    1.071   .     S
C814   O846    1.291   .     A
C814   C816    1.440   .     S
C814   O848    1.294   .     A
C815   O847    1.291   .     A
C815   O849    1.294   .     A
C815   C817    1.440   .     S
C817   C866    1.353   .     S
C817   N888    1.440   .     S
C819   C502    1.393   1_565 S
C820   H823    1.085   .     S
C820   C518    1.393   1_565 S
Cu821  N835    2.026   .     S
Cu821  O839    1.959   .     S
Cu821  O849    1.975   .     S
Cu821  Cu822   2.695   .     S
Cu821  O845    1.953   .     S
Cu821  O846    1.979   .     S
Cu822  O848    1.975   .     S
Cu822  N836    2.026   .     S
Cu822  O847    1.979   .     S
Cu822  O844    1.953   .     S
Cu822  O843    1.959   .     S
H830   N837    1.045   .     S
H832   N838    1.045   .     S
H833   N888    1.045   .     S
N837   H881    1.045   .     S
N837   C866    1.440   .     S
C851   O894    1.293   .     A
C851   C854    1.446   .     S
C851   O889    1.296   .     A
C852   H877    1.085   .     S
C852   C854    1.398   .     A
C853   C869    1.412   .     A
C853   C870    1.398   .     A
C853   C862    1.446   .     S
C854   C868    1.412   .     A
C855   H878    1.082   .     S
C855   N886    1.353   .     A
C856   H879    1.082   .     S
C856   N885    1.353   .     A
C856   C1308   1.421   .     S
C857   C861    1.486   .     S
C857   N885    1.392   .     A
C857   C1305   1.421   .     S
C858   C863    1.486   .     S
C858   N886    1.392   .     A
C859   H884    1.083   .     S
C859   C868    1.488   .     S
C859   O900    1.221   .     D
C860   C869    1.488   .     S
C860   O890    1.221   .     D
C860   H874    1.083   .     S
C861   O891    1.222   .     D
C861   H875    1.071   .     S
C862   O893    1.296   .     A
C862   O895    1.293   .     A
C863   O892    1.222   .     D
C863   H876    1.071   .     S
C864   O896    1.291   .     A
C864   C866    1.440   .     S
C864   O898    1.294   .     A
C865   O897    1.291   .     A
C865   O899    1.294   .     A
C865   C867    1.440   .     S
C867   C766    1.353   1_655 S
C867   N788    1.440   1_655 S
C869   C552    1.393   1_565 S
C870   H873    1.085   .     S
C870   C568    1.393   1_565 S
Cu871  N885    2.026   .     S
Cu871  O889    1.959   .     S
Cu871  O899    1.975   .     S
Cu871  Cu872   2.695   .     S
Cu871  O895    1.953   .     S
Cu871  O896    1.979   .     S
Cu872  O898    1.975   .     S
Cu872  N886    2.026   .     S
Cu872  O897    1.979   .     S
Cu872  O894    1.953   .     S
Cu872  O893    1.959   .     S
H880   N887    1.045   .     S
H882   N888    1.045   .     S
H883   N788    1.045   1_655 S
N887   H781    1.045   1_655 S
N887   C766    1.440   1_655 S
C901   O944    1.293   .     A
C901   C904    1.446   .     S
C901   O939    1.296   .     A
C902   H927    1.085   .     S
C902   C904    1.398   .     A
C902   C1219   1.393   1_545 S
C903   C919    1.412   .     A
C903   C920    1.398   .     A
C903   C912    1.446   .     S
C904   C918    1.412   .     A
C905   H928    1.082   .     S
C905   N936    1.353   .     A
C906   H929    1.082   .     S
C906   N935    1.353   .     A
C906   C8      1.421   1_556 S
C907   C911    1.486   .     S
C907   N935    1.392   .     A
C907   C5      1.421   1_556 S
C908   C913    1.486   .     S
C908   N936    1.392   .     A
C909   H934    1.083   .     S
C909   C918    1.488   .     S
C909   O950    1.221   .     D
C910   C919    1.488   .     S
C910   O940    1.221   .     D
C910   H924    1.083   .     S
C911   O941    1.222   .     D
C911   H925    1.071   .     S
C912   O943    1.296   .     A
C912   O945    1.293   .     A
C913   O942    1.222   .     D
C913   H926    1.071   .     S
C914   O946    1.291   .     A
C914   C916    1.440   .     S
C914   O948    1.294   .     A
C915   O947    1.291   .     A
C915   O949    1.294   .     A
C915   C917    1.440   .     S
C916   C1017   1.353   1_455 S
C916   N1037   1.440   1_455 S
C917   C966    1.353   .     S
C917   N988    1.440   .     S
C918   C1220   1.393   1_545 S
C919   C1052   1.393   .     S
C920   H923    1.085   .     S
C920   C1068   1.393   .     S
Cu921  N935    2.026   .     S
Cu921  O939    1.959   .     S
Cu921  O949    1.975   .     S
Cu921  Cu922   2.695   .     S
Cu921  O945    1.953   .     S
Cu921  O946    1.979   .     S
Cu922  O948    1.975   .     S
Cu922  N936    2.026   .     S
Cu922  O947    1.979   .     S
Cu922  O944    1.953   .     S
Cu922  O943    1.959   .     S
H930   N937    1.045   .     S
H931   N1037   1.045   1_455 S
H932   N938    1.045   .     S
H933   N988    1.045   .     S
N937   H981    1.045   .     S
N937   C966    1.440   .     S
N938   H1033   1.045   1_455 S
N938   C1017   1.440   1_455 S
C951   O994    1.293   .     A
C951   C954    1.446   .     S
C951   O989    1.296   .     A
C952   H977    1.085   .     S
C952   C954    1.398   .     A
C952   C1269   1.393   1_545 S
C953   C969    1.412   .     A
C953   C970    1.398   .     A
C953   C962    1.446   .     S
C954   C968    1.412   .     A
C955   H978    1.082   .     S
C955   N986    1.353   .     A
C956   H979    1.082   .     S
C956   N985    1.353   .     A
C956   C58     1.421   1_556 S
C957   C961    1.486   .     S
C957   N985    1.392   .     A
C957   C55     1.421   1_556 S
C958   C963    1.486   .     S
C958   N986    1.392   .     A
C959   H984    1.083   .     S
C959   C968    1.488   .     S
C959   O1000   1.221   .     D
C960   C969    1.488   .     S
C960   O990    1.221   .     D
C960   H974    1.083   .     S
C961   O991    1.222   .     D
C961   H975    1.071   .     S
C962   O993    1.296   .     A
C962   O995    1.293   .     A
C963   O992    1.222   .     D
C963   H976    1.071   .     S
C964   O996    1.291   .     A
C964   C966    1.440   .     S
C964   O998    1.294   .     A
C965   O997    1.291   .     A
C965   O999    1.294   .     A
C965   C967    1.440   .     S
C967   C1016   1.353   .     S
C967   N1038   1.440   .     S
C968   C1270   1.393   1_545 S
C969   C1102   1.393   .     S
C970   H973    1.085   .     S
C970   C1118   1.393   .     S
Cu971  N985    2.026   .     S
Cu971  O989    1.959   .     S
Cu971  O999    1.975   .     S
Cu971  Cu972   2.695   .     S
Cu971  O995    1.953   .     S
Cu971  O996    1.979   .     S
Cu972  O998    1.975   .     S
Cu972  N986    2.026   .     S
Cu972  O997    1.979   .     S
Cu972  O994    1.953   .     S
Cu972  O993    1.959   .     S
H980   N987    1.045   .     S
H982   N988    1.045   .     S
H983   N1038   1.045   .     S
N987   H1031   1.045   .     S
N987   C1016   1.440   .     S
C1001  O1044   1.293   .     A
C1001  C1004   1.446   .     S
C1001  O1039   1.296   .     A
C1002  H1027   1.085   .     S
C1002  C1004   1.398   .     A
C1002  C1319   1.393   1_545 S
C1003  C1019   1.412   .     A
C1003  C1020   1.398   .     A
C1003  C1012   1.446   .     S
C1004  C1018   1.412   .     A
C1005  H1028   1.082   .     S
C1005  N1036   1.353   .     A
C1006  H1029   1.082   .     S
C1006  N1035   1.353   .     A
C1006  C108    1.421   1_556 S
C1007  C1011   1.486   .     S
C1007  N1035   1.392   .     A
C1007  C105    1.421   1_556 S
C1008  C1013   1.486   .     S
C1008  N1036   1.392   .     A
C1009  H1034   1.083   .     S
C1009  C1018   1.488   .     S
C1009  O1050   1.221   .     D
C1010  C1019   1.488   .     S
C1010  O1040   1.221   .     D
C1010  H1024   1.083   .     S
C1011  O1041   1.222   .     D
C1011  H1025   1.071   .     S
C1012  O1043   1.296   .     A
C1012  O1045   1.293   .     A
C1013  O1042   1.222   .     D
C1013  H1026   1.071   .     S
C1014  O1046   1.291   .     A
C1014  C1016   1.440   .     S
C1014  O1048   1.294   .     A
C1015  O1047   1.291   .     A
C1015  O1049   1.294   .     A
C1015  C1017   1.440   .     S
C1017  C916    1.353   1_655 S
C1017  N938    1.440   1_655 S
C1018  C1320   1.393   1_545 S
C1019  C1152   1.393   .     S
C1020  H1023   1.085   .     S
C1020  C1168   1.393   .     S
Cu1021 N1035   2.026   .     S
Cu1021 O1039   1.959   .     S
Cu1021 O1049   1.975   .     S
Cu1021 Cu1022  2.695   .     S
Cu1021 O1045   1.953   .     S
Cu1021 O1046   1.979   .     S
Cu1022 O1048   1.975   .     S
Cu1022 N1036   2.026   .     S
Cu1022 O1047   1.979   .     S
Cu1022 O1044   1.953   .     S
Cu1022 O1043   1.959   .     S
H1030  N1037   1.045   .     S
H1032  N1038   1.045   .     S
H1033  N938    1.045   1_655 S
N1037  H931    1.045   1_655 S
N1037  C916    1.440   1_655 S
C1051  O1094   1.293   .     A
C1051  C1054   1.446   .     S
C1051  O1089   1.296   .     A
C1052  H1077   1.085   .     S
C1052  C1054   1.398   .     A
C1053  C1069   1.412   .     A
C1053  C1070   1.398   .     A
C1053  C1062   1.446   .     S
C1054  C1068   1.412   .     A
C1055  H1078   1.082   .     S
C1055  N1086   1.353   .     A
C1056  H1079   1.082   .     S
C1056  N1085   1.353   .     A
C1056  C158    1.421   1_556 S
C1057  C1061   1.486   .     S
C1057  N1085   1.392   .     A
C1057  C155    1.421   1_556 S
C1058  C1063   1.486   .     S
C1058  N1086   1.392   .     A
C1059  H1084   1.083   .     S
C1059  C1068   1.488   .     S
C1059  O1100   1.221   .     D
C1060  C1069   1.488   .     S
C1060  O1090   1.221   .     D
C1060  H1074   1.083   .     S
C1061  O1091   1.222   .     D
C1061  H1075   1.071   .     S
C1062  O1093   1.296   .     A
C1062  O1095   1.293   .     A
C1063  O1092   1.222   .     D
C1063  H1076   1.071   .     S
C1064  O1096   1.291   .     A
C1064  C1066   1.440   .     S
C1064  O1098   1.294   .     A
C1065  O1097   1.291   .     A
C1065  O1099   1.294   .     A
C1065  C1067   1.440   .     S
C1066  C1167   1.353   1_455 S
C1066  N1187   1.440   1_455 S
C1067  C1116   1.353   .     S
C1067  N1138   1.440   .     S
C1069  C1202   1.393   .     S
C1070  H1073   1.085   .     S
C1070  C1218   1.393   .     S
Cu1071 N1085   2.026   .     S
Cu1071 O1089   1.959   .     S
Cu1071 O1099   1.975   .     S
Cu1071 Cu1072  2.695   .     S
Cu1071 O1095   1.953   .     S
Cu1071 O1096   1.979   .     S
Cu1072 O1098   1.975   .     S
Cu1072 N1086   2.026   .     S
Cu1072 O1097   1.979   .     S
Cu1072 O1094   1.953   .     S
Cu1072 O1093   1.959   .     S
H1080  N1087   1.045   .     S
H1081  N1187   1.045   1_455 S
H1082  N1088   1.045   .     S
H1083  N1138   1.045   .     S
N1087  H1131   1.045   .     S
N1087  C1116   1.440   .     S
N1088  H1183   1.045   1_455 S
N1088  C1167   1.440   1_455 S
C1101  O1144   1.293   .     A
C1101  C1104   1.446   .     S
C1101  O1139   1.296   .     A
C1102  H1127   1.085   .     S
C1102  C1104   1.398   .     A
C1103  C1119   1.412   .     A
C1103  C1120   1.398   .     A
C1103  C1112   1.446   .     S
C1104  C1118   1.412   .     A
C1105  H1128   1.082   .     S
C1105  N1136   1.353   .     A
C1106  H1129   1.082   .     S
C1106  N1135   1.353   .     A
C1106  C208    1.421   1_556 S
C1107  C1111   1.486   .     S
C1107  N1135   1.392   .     A
C1107  C205    1.421   1_556 S
C1108  C1113   1.486   .     S
C1108  N1136   1.392   .     A
C1109  H1134   1.083   .     S
C1109  C1118   1.488   .     S
C1109  O1150   1.221   .     D
C1110  C1119   1.488   .     S
C1110  O1140   1.221   .     D
C1110  H1124   1.083   .     S
C1111  O1141   1.222   .     D
C1111  H1125   1.071   .     S
C1112  O1143   1.296   .     A
C1112  O1145   1.293   .     A
C1113  O1142   1.222   .     D
C1113  H1126   1.071   .     S
C1114  O1146   1.291   .     A
C1114  C1116   1.440   .     S
C1114  O1148   1.294   .     A
C1115  O1147   1.291   .     A
C1115  O1149   1.294   .     A
C1115  C1117   1.440   .     S
C1117  C1166   1.353   .     S
C1117  N1188   1.440   .     S
C1119  C1252   1.393   .     S
C1120  H1123   1.085   .     S
C1120  C1268   1.393   .     S
Cu1121 N1135   2.026   .     S
Cu1121 O1139   1.959   .     S
Cu1121 O1149   1.975   .     S
Cu1121 Cu1122  2.695   .     S
Cu1121 O1145   1.953   .     S
Cu1121 O1146   1.979   .     S
Cu1122 O1148   1.975   .     S
Cu1122 N1136   2.026   .     S
Cu1122 O1147   1.979   .     S
Cu1122 O1144   1.953   .     S
Cu1122 O1143   1.959   .     S
H1130  N1137   1.045   .     S
H1132  N1138   1.045   .     S
H1133  N1188   1.045   .     S
N1137  H1181   1.045   .     S
N1137  C1166   1.440   .     S
C1151  O1194   1.293   .     A
C1151  C1154   1.446   .     S
C1151  O1189   1.296   .     A
C1152  H1177   1.085   .     S
C1152  C1154   1.398   .     A
C1153  C1169   1.412   .     A
C1153  C1170   1.398   .     A
C1153  C1162   1.446   .     S
C1154  C1168   1.412   .     A
C1155  H1178   1.082   .     S
C1155  N1186   1.353   .     A
C1156  H1179   1.082   .     S
C1156  N1185   1.353   .     A
C1156  C258    1.421   1_556 S
C1157  C1161   1.486   .     S
C1157  N1185   1.392   .     A
C1157  C255    1.421   1_556 S
C1158  C1163   1.486   .     S
C1158  N1186   1.392   .     A
C1159  H1184   1.083   .     S
C1159  C1168   1.488   .     S
C1159  O1200   1.221   .     D
C1160  C1169   1.488   .     S
C1160  O1190   1.221   .     D
C1160  H1174   1.083   .     S
C1161  O1191   1.222   .     D
C1161  H1175   1.071   .     S
C1162  O1193   1.296   .     A
C1162  O1195   1.293   .     A
C1163  O1192   1.222   .     D
C1163  H1176   1.071   .     S
C1164  O1196   1.291   .     A
C1164  C1166   1.440   .     S
C1164  O1198   1.294   .     A
C1165  O1197   1.291   .     A
C1165  O1199   1.294   .     A
C1165  C1167   1.440   .     S
C1167  C1066   1.353   1_655 S
C1167  N1088   1.440   1_655 S
C1169  C1302   1.393   .     S
C1170  H1173   1.085   .     S
C1170  C1318   1.393   .     S
Cu1171 N1185   2.026   .     S
Cu1171 O1189   1.959   .     S
Cu1171 O1199   1.975   .     S
Cu1171 Cu1172  2.695   .     S
Cu1171 O1195   1.953   .     S
Cu1171 O1196   1.979   .     S
Cu1172 O1198   1.975   .     S
Cu1172 N1186   2.026   .     S
Cu1172 O1197   1.979   .     S
Cu1172 O1194   1.953   .     S
Cu1172 O1193   1.959   .     S
H1180  N1187   1.045   .     S
H1182  N1188   1.045   .     S
H1183  N1088   1.045   1_655 S
N1187  H1081   1.045   1_655 S
N1187  C1066   1.440   1_655 S
C1201  O1244   1.293   .     A
C1201  C1204   1.446   .     S
C1201  O1239   1.296   .     A
C1202  H1227   1.085   .     S
C1202  C1204   1.398   .     A
C1203  C1219   1.412   .     A
C1203  C1220   1.398   .     A
C1203  C1212   1.446   .     S
C1204  C1218   1.412   .     A
C1205  H1228   1.082   .     S
C1205  N1236   1.353   .     A
C1206  H1229   1.082   .     S
C1206  N1235   1.353   .     A
C1206  C308    1.421   1_556 S
C1207  C1211   1.486   .     S
C1207  N1235   1.392   .     A
C1207  C305    1.421   1_556 S
C1208  C1213   1.486   .     S
C1208  N1236   1.392   .     A
C1209  H1234   1.083   .     S
C1209  C1218   1.488   .     S
C1209  O1250   1.221   .     D
C1210  C1219   1.488   .     S
C1210  O1240   1.221   .     D
C1210  H1224   1.083   .     S
C1211  O1241   1.222   .     D
C1211  H1225   1.071   .     S
C1212  O1243   1.296   .     A
C1212  O1245   1.293   .     A
C1213  O1242   1.222   .     D
C1213  H1226   1.071   .     S
C1214  O1246   1.291   .     A
C1214  C1216   1.440   .     S
C1214  O1248   1.294   .     A
C1215  O1247   1.291   .     A
C1215  O1249   1.294   .     A
C1215  C1217   1.440   .     S
C1216  C1317   1.353   1_455 S
C1216  N1337   1.440   1_455 S
C1217  C1266   1.353   .     S
C1217  N1288   1.440   .     S
C1219  C902    1.393   1_565 S
C1220  H1223   1.085   .     S
C1220  C918    1.393   1_565 S
Cu1221 N1235   2.026   .     S
Cu1221 O1239   1.959   .     S
Cu1221 O1249   1.975   .     S
Cu1221 Cu1222  2.695   .     S
Cu1221 O1245   1.953   .     S
Cu1221 O1246   1.979   .     S
Cu1222 O1248   1.975   .     S
Cu1222 N1236   2.026   .     S
Cu1222 O1247   1.979   .     S
Cu1222 O1244   1.953   .     S
Cu1222 O1243   1.959   .     S
H1230  N1237   1.045   .     S
H1231  N1337   1.045   1_455 S
H1232  N1238   1.045   .     S
H1233  N1288   1.045   .     S
N1237  H1281   1.045   .     S
N1237  C1266   1.440   .     S
N1238  H1333   1.045   1_455 S
N1238  C1317   1.440   1_455 S
C1251  O1294   1.293   .     A
C1251  C1254   1.446   .     S
C1251  O1289   1.296   .     A
C1252  H1277   1.085   .     S
C1252  C1254   1.398   .     A
C1253  C1269   1.412   .     A
C1253  C1270   1.398   .     A
C1253  C1262   1.446   .     S
C1254  C1268   1.412   .     A
C1255  H1278   1.082   .     S
C1255  N1286   1.353   .     A
C1256  H1279   1.082   .     S
C1256  N1285   1.353   .     A
C1256  C358    1.421   1_556 S
C1257  C1261   1.486   .     S
C1257  N1285   1.392   .     A
C1257  C355    1.421   1_556 S
C1258  C1263   1.486   .     S
C1258  N1286   1.392   .     A
C1259  H1284   1.083   .     S
C1259  C1268   1.488   .     S
C1259  O1300   1.221   .     D
C1260  C1269   1.488   .     S
C1260  O1290   1.221   .     D
C1260  H1274   1.083   .     S
C1261  O1291   1.222   .     D
C1261  H1275   1.071   .     S
C1262  O1293   1.296   .     A
C1262  O1295   1.293   .     A
C1263  O1292   1.222   .     D
C1263  H1276   1.071   .     S
C1264  O1296   1.291   .     A
C1264  C1266   1.440   .     S
C1264  O1298   1.294   .     A
C1265  O1297   1.291   .     A
C1265  O1299   1.294   .     A
C1265  C1267   1.440   .     S
C1267  C1316   1.353   .     S
C1267  N1338   1.440   .     S
C1269  C952    1.393   1_565 S
C1270  H1273   1.085   .     S
C1270  C968    1.393   1_565 S
Cu1271 N1285   2.026   .     S
Cu1271 O1289   1.959   .     S
Cu1271 O1299   1.975   .     S
Cu1271 Cu1272  2.695   .     S
Cu1271 O1295   1.953   .     S
Cu1271 O1296   1.979   .     S
Cu1272 O1298   1.975   .     S
Cu1272 N1286   2.026   .     S
Cu1272 O1297   1.979   .     S
Cu1272 O1294   1.953   .     S
Cu1272 O1293   1.959   .     S
H1280  N1287   1.045   .     S
H1282  N1288   1.045   .     S
H1283  N1338   1.045   .     S
N1287  H1331   1.045   .     S
N1287  C1316   1.440   .     S
C1301  O1344   1.293   .     A
C1301  C1304   1.446   .     S
C1301  O1339   1.296   .     A
C1302  H1327   1.085   .     S
C1302  C1304   1.398   .     A
C1303  C1319   1.412   .     A
C1303  C1320   1.398   .     A
C1303  C1312   1.446   .     S
C1304  C1318   1.412   .     A
C1305  H1328   1.082   .     S
C1305  N1336   1.353   .     A
C1306  H1329   1.082   .     S
C1306  N1335   1.353   .     A
C1306  C408    1.421   1_556 S
C1307  C1311   1.486   .     S
C1307  N1335   1.392   .     A
C1307  C405    1.421   1_556 S
C1308  C1313   1.486   .     S
C1308  N1336   1.392   .     A
C1309  H1334   1.083   .     S
C1309  C1318   1.488   .     S
C1309  O1350   1.221   .     D
C1310  C1319   1.488   .     S
C1310  O1340   1.221   .     D
C1310  H1324   1.083   .     S
C1311  O1341   1.222   .     D
C1311  H1325   1.071   .     S
C1312  O1343   1.296   .     A
C1312  O1345   1.293   .     A
C1313  O1342   1.222   .     D
C1313  H1326   1.071   .     S
C1314  O1346   1.291   .     A
C1314  C1316   1.440   .     S
C1314  O1348   1.294   .     A
C1315  O1347   1.291   .     A
C1315  O1349   1.294   .     A
C1315  C1317   1.440   .     S
C1317  C1216   1.353   1_655 S
C1317  N1238   1.440   1_655 S
C1319  C1002   1.393   1_565 S
C1320  H1323   1.085   .     S
C1320  C1018   1.393   1_565 S
Cu1321 N1335   2.026   .     S
Cu1321 O1339   1.959   .     S
Cu1321 O1349   1.975   .     S
Cu1321 Cu1322  2.695   .     S
Cu1321 O1345   1.953   .     S
Cu1321 O1346   1.979   .     S
Cu1322 O1348   1.975   .     S
Cu1322 N1336   2.026   .     S
Cu1322 O1347   1.979   .     S
Cu1322 O1344   1.953   .     S
Cu1322 O1343   1.959   .     S
H1330  N1337   1.045   .     S
H1332  N1338   1.045   .     S
H1333  N1238   1.045   1_655 S
N1337  H1231   1.045   1_655 S
N1337  C1216   1.440   1_655 S
