data_str_m2_o1_o18_pcu_sym.1
_audit_creation_date              2020-01-03
_audit_creation_method            'Materials Studio'
_symmetry_space_group_name_H-M    'P1'
_symmetry_Int_Tables_number       1
_symmetry_cell_setting            triclinic
loop_
_symmetry_equiv_pos_as_xyz
  x,y,z
_cell_length_a                    28.7659
_cell_length_b                    32.3665
_cell_length_c                    30.7617
_cell_angle_alpha                 88.0572
_cell_angle_beta                  74.8179
_cell_angle_gamma                 89.1061
loop_
_atom_site_label
_atom_site_type_symbol
_atom_site_fract_x
_atom_site_fract_y
_atom_site_fract_z
_atom_site_U_iso_or_equiv
_atom_site_adp_type
_atom_site_occupancy
C1     C     0.33318   0.08747   0.25151   0.00000  Uiso   1.00
C2     C     0.03964   0.02258   0.22510   0.00000  Uiso   1.00
C3     C     0.33327   0.29058   0.24716   0.00000  Uiso   1.00
C4     C     0.00006   0.04275   0.25282   0.00000  Uiso   1.00
C5     C     0.18466   0.14080   0.27826   0.00000  Uiso   1.00
C6     C     0.14866   0.19255   0.22176   0.00000  Uiso   1.00
C7     C     0.13529   0.14048   0.27869   0.00000  Uiso   1.00
C8     C     0.19802   0.19290   0.22137   0.00000  Uiso   1.00
C9     C     0.30620   0.16638   0.33618   0.00000  Uiso   1.00
C10    C     0.02712   0.16727   0.16386   0.00000  Uiso   1.00
C11    C     0.29117   0.16506   0.38574   0.00000  Uiso   1.00
C12    C     0.00015   0.24586   0.24848   0.00000  Uiso   1.00
C13    C     0.04229   0.17170   0.11450   0.00000  Uiso   1.00
C14    C     0.30746   0.15061   0.45787   0.00000  Uiso   1.00
C15    C     0.02881   0.19735   0.04421   0.00000  Uiso   1.00
C16    C     0.32374   0.15528   0.41121   0.00000  Uiso   1.00
C17    C     0.01149   0.18852   0.09017   0.00000  Uiso   1.00
C18    C     0.24263   0.17189   0.40759   0.00000  Uiso   1.00
C19    C     0.09017   0.16288   0.09228   0.00000  Uiso   1.00
C20    C     0.22543   0.16913   0.45485   0.00000  Uiso   1.00
C21    C     0.10952   0.17364   0.04640   0.00000  Uiso   1.00
C22    C     0.25846   0.15671   0.48003   0.00000  Uiso   1.00
C23    C     0.19351   0.15600   0.04836   0.00000  Uiso   1.00
C24    C     0.07762   0.19043   0.02198   0.00000  Uiso   1.00
C25    C     0.17613   0.17695   0.47735   0.00000  Uiso   1.00
C26    C     0.15948   0.16840   0.02444   0.00000  Uiso   1.00
C27    C     0.10519   0.10999   0.31197   0.00000  Uiso   1.00
C28    C     0.22803   0.22356   0.18827   0.00000  Uiso   1.00
C29    C     0.14334   0.19409   0.45434   0.00000  Uiso   1.00
C30    C     0.24230   0.15010   0.02674   0.00000  Uiso   1.00
C31    C     0.09473   0.20077   0.47605   0.00000  Uiso   1.00
C32    C     0.29358   0.01996   0.27877   0.00000  Uiso   1.00
C33    C     0.03974   0.31337   0.22120   0.00000  Uiso   1.00
C34    C     0.29369   0.31075   0.27487   0.00000  Uiso   1.00
Cu35   Cu    0.04689   0.16667   0.25000   0.00000  Uiso   1.00
Cu36   Cu    0.28645   0.16666   0.25000   0.00000  Uiso   1.00
H37    H     0.11146   0.14754   0.11204   0.00000  Uiso   1.00
H38    H     0.06980   0.04018   0.20474   0.00000  Uiso   1.00
H39    H     0.19801   0.12017   0.30078   0.00000  Uiso   1.00
H40    H     0.13530   0.21320   0.19926   0.00000  Uiso   1.00
H41    H     0.25767   0.13331   0.08305   0.00000  Uiso   1.00
H42    H     0.08062   0.22246   0.42077   0.00000  Uiso   1.00
H43    H     0.26481   0.06415   0.31861   0.00000  Uiso   1.00
H44    H     0.06849   0.26917   0.18135   0.00000  Uiso   1.00
H45    H     0.06695   0.10992   0.31338   0.00000  Uiso   1.00
H46    H     0.11916   0.07824   0.30368   0.00000  Uiso   1.00
H47    H     0.10803   0.11659   0.34638   0.00000  Uiso   1.00
H48    H     0.21853   0.17781   0.38662   0.00000  Uiso   1.00
H49    H     0.26632   0.22344   0.18666   0.00000  Uiso   1.00
H50    H     0.22491   0.21731   0.15387   0.00000  Uiso   1.00
H51    H     0.21418   0.25527   0.19694   0.00000  Uiso   1.00
H52    H     0.30770   0.19573   0.10676   0.00000  Uiso   1.00
H53    H     0.02812   0.14989   0.39503   0.00000  Uiso   1.00
H54    H     0.00009   0.14171   0.47645   0.00000  Uiso   1.00
H55    H     0.00395   0.21049   0.02639   0.00000  Uiso   1.00
H56    H     0.18371   0.15167   0.08440   0.00000  Uiso   1.00
H57    H     0.15478   0.20430   0.41958   0.00000  Uiso   1.00
H58    H     0.26353   0.29315   0.29524   0.00000  Uiso   1.00
N59    N     0.11736   0.16668   0.24999   0.00000  Uiso   1.00
N60    N     0.21597   0.16666   0.25001   0.00000  Uiso   1.00
O61    O     0.03958   0.10655   0.25000   0.00000  Uiso   1.00
O62    O     0.06338   0.21778   0.45294   0.00000  Uiso   1.00
O63    O     0.25481   0.03758   0.30900   0.00000  Uiso   1.00
O64    O     0.07851   0.29574   0.19095   0.00000  Uiso   1.00
O65    O     0.29375   0.22678   0.25000   0.00000  Uiso   1.00
O66    O     0.29372   0.10654   0.25000   0.00000  Uiso   1.00
O67    O     0.03961   0.22679   0.24999   0.00000  Uiso   1.00
O68    O     0.01852   0.16668   0.31491   0.00000  Uiso   1.00
O69    O     0.31481   0.16666   0.18508   0.00000  Uiso   1.00
O70    O     0.27267   0.16667   0.31492   0.00000  Uiso   1.00
O71    O     0.06067   0.16667   0.18508   0.00000  Uiso   1.00
O72    O     0.27463   0.13691   0.05067   0.00000  Uiso   1.00
C73    C     0.66652   0.08747   0.25151   0.00000  Uiso   1.00
C74    C     0.37298   0.02258   0.22510   0.00000  Uiso   1.00
C75    C     0.66660   0.29058   0.24716   0.00000  Uiso   1.00
C76    C     0.33339   0.04275   0.25282   0.00000  Uiso   1.00
C77    C     0.51800   0.14080   0.27826   0.00000  Uiso   1.00
C78    C     0.48199   0.19255   0.22176   0.00000  Uiso   1.00
C79    C     0.46862   0.14048   0.27869   0.00000  Uiso   1.00
C80    C     0.53135   0.19290   0.22137   0.00000  Uiso   1.00
C81    C     0.63953   0.16638   0.33618   0.00000  Uiso   1.00
C82    C     0.36046   0.16727   0.16386   0.00000  Uiso   1.00
C83    C     0.62450   0.16506   0.38574   0.00000  Uiso   1.00
C84    C     0.33349   0.24586   0.24848   0.00000  Uiso   1.00
C85    C     0.37562   0.17170   0.11450   0.00000  Uiso   1.00
C86    C     0.64080   0.15061   0.45787   0.00000  Uiso   1.00
C87    C     0.36215   0.19735   0.04421   0.00000  Uiso   1.00
C88    C     0.65708   0.15528   0.41121   0.00000  Uiso   1.00
C89    C     0.34483   0.18852   0.09017   0.00000  Uiso   1.00
C90    C     0.57596   0.17189   0.40759   0.00000  Uiso   1.00
C91    C     0.42351   0.16288   0.09228   0.00000  Uiso   1.00
C92    C     0.55876   0.16913   0.45485   0.00000  Uiso   1.00
C93    C     0.44286   0.17364   0.04640   0.00000  Uiso   1.00
C94    C     0.59180   0.15671   0.48003   0.00000  Uiso   1.00
C95    C     0.52684   0.15600   0.04836   0.00000  Uiso   1.00
C96    C     0.41095   0.19043   0.02198   0.00000  Uiso   1.00
C97    C     0.50947   0.17695   0.47735   0.00000  Uiso   1.00
C98    C     0.49282   0.16840   0.02444   0.00000  Uiso   1.00
C99    C     0.43852   0.10999   0.31197   0.00000  Uiso   1.00
C100   C     0.56137   0.22356   0.18827   0.00000  Uiso   1.00
C101   C     0.47668   0.19409   0.45434   0.00000  Uiso   1.00
C102   C     0.57564   0.15010   0.02674   0.00000  Uiso   1.00
C103   C     0.42806   0.20077   0.47605   0.00000  Uiso   1.00
C104   C     0.62692   0.01996   0.27877   0.00000  Uiso   1.00
C105   C     0.37308   0.31337   0.22120   0.00000  Uiso   1.00
C106   C     0.62702   0.31075   0.27487   0.00000  Uiso   1.00
Cu107  Cu    0.38022   0.16667   0.25000   0.00000  Uiso   1.00
Cu108  Cu    0.61978   0.16666   0.25000   0.00000  Uiso   1.00
H109   H     0.44479   0.14754   0.11204   0.00000  Uiso   1.00
H110   H     0.40314   0.04018   0.20474   0.00000  Uiso   1.00
H111   H     0.53134   0.12017   0.30078   0.00000  Uiso   1.00
H112   H     0.46864   0.21320   0.19926   0.00000  Uiso   1.00
H113   H     0.59100   0.13331   0.08305   0.00000  Uiso   1.00
H114   H     0.41395   0.22246   0.42077   0.00000  Uiso   1.00
H115   H     0.59814   0.06415   0.31861   0.00000  Uiso   1.00
H116   H     0.40183   0.26917   0.18135   0.00000  Uiso   1.00
H117   H     0.40029   0.10992   0.31338   0.00000  Uiso   1.00
H118   H     0.45249   0.07824   0.30368   0.00000  Uiso   1.00
H119   H     0.44137   0.11659   0.34638   0.00000  Uiso   1.00
H120   H     0.55186   0.17781   0.38662   0.00000  Uiso   1.00
H121   H     0.59965   0.22344   0.18666   0.00000  Uiso   1.00
H122   H     0.55825   0.21731   0.15387   0.00000  Uiso   1.00
H123   H     0.54751   0.25527   0.19694   0.00000  Uiso   1.00
H124   H     0.64104   0.19573   0.10676   0.00000  Uiso   1.00
H125   H     0.36146   0.14989   0.39503   0.00000  Uiso   1.00
H126   H     0.33342   0.14171   0.47645   0.00000  Uiso   1.00
H127   H     0.33728   0.21049   0.02639   0.00000  Uiso   1.00
H128   H     0.51704   0.15167   0.08440   0.00000  Uiso   1.00
H129   H     0.48812   0.20430   0.41958   0.00000  Uiso   1.00
H130   H     0.59686   0.29315   0.29524   0.00000  Uiso   1.00
N131   N     0.45069   0.16668   0.24999   0.00000  Uiso   1.00
N132   N     0.54931   0.16666   0.25001   0.00000  Uiso   1.00
O133   O     0.37291   0.10655   0.25000   0.00000  Uiso   1.00
O134   O     0.39671   0.21778   0.45294   0.00000  Uiso   1.00
O135   O     0.58814   0.03758   0.30900   0.00000  Uiso   1.00
O136   O     0.41184   0.29574   0.19095   0.00000  Uiso   1.00
O137   O     0.62709   0.22678   0.25000   0.00000  Uiso   1.00
O138   O     0.62706   0.10654   0.25000   0.00000  Uiso   1.00
O139   O     0.37294   0.22679   0.24999   0.00000  Uiso   1.00
O140   O     0.35186   0.16668   0.31491   0.00000  Uiso   1.00
O141   O     0.64814   0.16666   0.18508   0.00000  Uiso   1.00
O142   O     0.60600   0.16667   0.31492   0.00000  Uiso   1.00
O143   O     0.39400   0.16667   0.18508   0.00000  Uiso   1.00
O144   O     0.60796   0.13691   0.05067   0.00000  Uiso   1.00
C145   C     0.99985   0.08747   0.25151   0.00000  Uiso   1.00
C146   C     0.70631   0.02258   0.22510   0.00000  Uiso   1.00
C147   C     0.99994   0.29058   0.24716   0.00000  Uiso   1.00
C148   C     0.66673   0.04275   0.25282   0.00000  Uiso   1.00
C149   C     0.85133   0.14080   0.27826   0.00000  Uiso   1.00
C150   C     0.81532   0.19255   0.22176   0.00000  Uiso   1.00
C151   C     0.80196   0.14048   0.27869   0.00000  Uiso   1.00
C152   C     0.86468   0.19290   0.22137   0.00000  Uiso   1.00
C153   C     0.97286   0.16638   0.33618   0.00000  Uiso   1.00
C154   C     0.69379   0.16727   0.16386   0.00000  Uiso   1.00
C155   C     0.95784   0.16506   0.38574   0.00000  Uiso   1.00
C156   C     0.66682   0.24586   0.24848   0.00000  Uiso   1.00
C157   C     0.70895   0.17170   0.11450   0.00000  Uiso   1.00
C158   C     0.97413   0.15061   0.45787   0.00000  Uiso   1.00
C159   C     0.69548   0.19735   0.04421   0.00000  Uiso   1.00
C160   C     0.99041   0.15528   0.41121   0.00000  Uiso   1.00
C161   C     0.67816   0.18852   0.09017   0.00000  Uiso   1.00
C162   C     0.90929   0.17189   0.40759   0.00000  Uiso   1.00
C163   C     0.75684   0.16288   0.09228   0.00000  Uiso   1.00
C164   C     0.89210   0.16913   0.45485   0.00000  Uiso   1.00
C165   C     0.77619   0.17364   0.04640   0.00000  Uiso   1.00
C166   C     0.92513   0.15671   0.48003   0.00000  Uiso   1.00
C167   C     0.86018   0.15600   0.04836   0.00000  Uiso   1.00
C168   C     0.74428   0.19043   0.02198   0.00000  Uiso   1.00
C169   C     0.84280   0.17695   0.47735   0.00000  Uiso   1.00
C170   C     0.82615   0.16840   0.02444   0.00000  Uiso   1.00
C171   C     0.77185   0.10999   0.31197   0.00000  Uiso   1.00
C172   C     0.89470   0.22356   0.18827   0.00000  Uiso   1.00
C173   C     0.81001   0.19409   0.45434   0.00000  Uiso   1.00
C174   C     0.90897   0.15010   0.02674   0.00000  Uiso   1.00
C175   C     0.76139   0.20077   0.47605   0.00000  Uiso   1.00
C176   C     0.96025   0.01996   0.27877   0.00000  Uiso   1.00
C177   C     0.70641   0.31337   0.22120   0.00000  Uiso   1.00
C178   C     0.96035   0.31075   0.27487   0.00000  Uiso   1.00
Cu179  Cu    0.71355   0.16667   0.25000   0.00000  Uiso   1.00
Cu180  Cu    0.95311   0.16666   0.25000   0.00000  Uiso   1.00
H181   H     0.77813   0.14754   0.11204   0.00000  Uiso   1.00
H182   H     0.73647   0.04018   0.20474   0.00000  Uiso   1.00
H183   H     0.86467   0.12017   0.30078   0.00000  Uiso   1.00
H184   H     0.80197   0.21320   0.19926   0.00000  Uiso   1.00
H185   H     0.92433   0.13331   0.08305   0.00000  Uiso   1.00
H186   H     0.74728   0.22246   0.42077   0.00000  Uiso   1.00
H187   H     0.93148   0.06415   0.31861   0.00000  Uiso   1.00
H188   H     0.73516   0.26917   0.18135   0.00000  Uiso   1.00
H189   H     0.73362   0.10992   0.31338   0.00000  Uiso   1.00
H190   H     0.78583   0.07824   0.30368   0.00000  Uiso   1.00
H191   H     0.77470   0.11659   0.34638   0.00000  Uiso   1.00
H192   H     0.88519   0.17781   0.38662   0.00000  Uiso   1.00
H193   H     0.93298   0.22344   0.18666   0.00000  Uiso   1.00
H194   H     0.89158   0.21731   0.15387   0.00000  Uiso   1.00
H195   H     0.88085   0.25527   0.19694   0.00000  Uiso   1.00
H196   H     0.97437   0.19573   0.10676   0.00000  Uiso   1.00
H197   H     0.69479   0.14989   0.39503   0.00000  Uiso   1.00
H198   H     0.66675   0.14171   0.47645   0.00000  Uiso   1.00
H199   H     0.67062   0.21049   0.02639   0.00000  Uiso   1.00
H200   H     0.85037   0.15167   0.08440   0.00000  Uiso   1.00
H201   H     0.82145   0.20430   0.41958   0.00000  Uiso   1.00
H202   H     0.93019   0.29315   0.29524   0.00000  Uiso   1.00
N203   N     0.78403   0.16668   0.24999   0.00000  Uiso   1.00
N204   N     0.88264   0.16666   0.25001   0.00000  Uiso   1.00
O205   O     0.70625   0.10655   0.25000   0.00000  Uiso   1.00
O206   O     0.73005   0.21778   0.45294   0.00000  Uiso   1.00
O207   O     0.92147   0.03758   0.30900   0.00000  Uiso   1.00
O208   O     0.74517   0.29574   0.19095   0.00000  Uiso   1.00
O209   O     0.96042   0.22678   0.25000   0.00000  Uiso   1.00
O210   O     0.96039   0.10654   0.25000   0.00000  Uiso   1.00
O211   O     0.70628   0.22679   0.24999   0.00000  Uiso   1.00
O212   O     0.68519   0.16668   0.31491   0.00000  Uiso   1.00
O213   O     0.98148   0.16666   0.18508   0.00000  Uiso   1.00
O214   O     0.93933   0.16667   0.31492   0.00000  Uiso   1.00
O215   O     0.72733   0.16667   0.18508   0.00000  Uiso   1.00
O216   O     0.94129   0.13691   0.05067   0.00000  Uiso   1.00
C217   C     0.33318   0.42080   0.25151   0.00000  Uiso   1.00
C218   C     0.03964   0.35591   0.22510   0.00000  Uiso   1.00
C219   C     0.33327   0.62392   0.24716   0.00000  Uiso   1.00
C220   C     0.00006   0.37608   0.25282   0.00000  Uiso   1.00
C221   C     0.18466   0.47413   0.27826   0.00000  Uiso   1.00
C222   C     0.14866   0.52588   0.22176   0.00000  Uiso   1.00
C223   C     0.13529   0.47381   0.27869   0.00000  Uiso   1.00
C224   C     0.19802   0.52623   0.22137   0.00000  Uiso   1.00
C225   C     0.30620   0.49971   0.33618   0.00000  Uiso   1.00
C226   C     0.02712   0.50060   0.16386   0.00000  Uiso   1.00
C227   C     0.29117   0.49840   0.38574   0.00000  Uiso   1.00
C228   C     0.00015   0.57920   0.24848   0.00000  Uiso   1.00
C229   C     0.04229   0.50503   0.11450   0.00000  Uiso   1.00
C230   C     0.30746   0.48394   0.45787   0.00000  Uiso   1.00
C231   C     0.02881   0.53068   0.04421   0.00000  Uiso   1.00
C232   C     0.32374   0.48861   0.41121   0.00000  Uiso   1.00
C233   C     0.01149   0.52185   0.09017   0.00000  Uiso   1.00
C234   C     0.24263   0.50522   0.40759   0.00000  Uiso   1.00
C235   C     0.09017   0.49621   0.09228   0.00000  Uiso   1.00
C236   C     0.22543   0.50246   0.45485   0.00000  Uiso   1.00
C237   C     0.10952   0.50697   0.04640   0.00000  Uiso   1.00
C238   C     0.25846   0.49004   0.48003   0.00000  Uiso   1.00
C239   C     0.19351   0.48934   0.04836   0.00000  Uiso   1.00
C240   C     0.07762   0.52376   0.02198   0.00000  Uiso   1.00
C241   C     0.17613   0.51028   0.47735   0.00000  Uiso   1.00
C242   C     0.15948   0.50173   0.02444   0.00000  Uiso   1.00
C243   C     0.10519   0.44332   0.31197   0.00000  Uiso   1.00
C244   C     0.22803   0.55689   0.18827   0.00000  Uiso   1.00
C245   C     0.14334   0.52742   0.45434   0.00000  Uiso   1.00
C246   C     0.24230   0.48344   0.02674   0.00000  Uiso   1.00
C247   C     0.09473   0.53411   0.47605   0.00000  Uiso   1.00
C248   C     0.29358   0.35329   0.27877   0.00000  Uiso   1.00
C249   C     0.03974   0.64670   0.22120   0.00000  Uiso   1.00
C250   C     0.29369   0.64408   0.27487   0.00000  Uiso   1.00
Cu251  Cu    0.04689   0.50001   0.25000   0.00000  Uiso   1.00
Cu252  Cu    0.28645   0.49999   0.25000   0.00000  Uiso   1.00
H253   H     0.11146   0.48088   0.11204   0.00000  Uiso   1.00
H254   H     0.06980   0.37351   0.20474   0.00000  Uiso   1.00
H255   H     0.19801   0.45350   0.30078   0.00000  Uiso   1.00
H256   H     0.13530   0.54653   0.19926   0.00000  Uiso   1.00
H257   H     0.25767   0.46664   0.08305   0.00000  Uiso   1.00
H258   H     0.08062   0.55580   0.42077   0.00000  Uiso   1.00
H259   H     0.26481   0.39749   0.31861   0.00000  Uiso   1.00
H260   H     0.06849   0.60251   0.18135   0.00000  Uiso   1.00
H261   H     0.06695   0.44326   0.31338   0.00000  Uiso   1.00
H262   H     0.11916   0.41157   0.30368   0.00000  Uiso   1.00
H263   H     0.10803   0.44992   0.34638   0.00000  Uiso   1.00
H264   H     0.21853   0.51114   0.38662   0.00000  Uiso   1.00
H265   H     0.26632   0.55677   0.18666   0.00000  Uiso   1.00
H266   H     0.22491   0.55064   0.15387   0.00000  Uiso   1.00
H267   H     0.21418   0.58861   0.19694   0.00000  Uiso   1.00
H268   H     0.30770   0.52907   0.10676   0.00000  Uiso   1.00
H269   H     0.02812   0.48322   0.39503   0.00000  Uiso   1.00
H270   H     0.00009   0.47504   0.47645   0.00000  Uiso   1.00
H271   H     0.00395   0.54383   0.02639   0.00000  Uiso   1.00
H272   H     0.18371   0.48500   0.08440   0.00000  Uiso   1.00
H273   H     0.15478   0.53763   0.41958   0.00000  Uiso   1.00
H274   H     0.26353   0.62648   0.29524   0.00000  Uiso   1.00
N275   N     0.11736   0.50001   0.24999   0.00000  Uiso   1.00
N276   N     0.21597   0.49999   0.25001   0.00000  Uiso   1.00
O277   O     0.03958   0.43989   0.25000   0.00000  Uiso   1.00
O278   O     0.06338   0.55112   0.45294   0.00000  Uiso   1.00
O279   O     0.25481   0.37091   0.30900   0.00000  Uiso   1.00
O280   O     0.07851   0.62908   0.19095   0.00000  Uiso   1.00
O281   O     0.29375   0.56011   0.25000   0.00000  Uiso   1.00
O282   O     0.29372   0.43988   0.25000   0.00000  Uiso   1.00
O283   O     0.03961   0.56012   0.24999   0.00000  Uiso   1.00
O284   O     0.01852   0.50001   0.31491   0.00000  Uiso   1.00
O285   O     0.31481   0.49999   0.18508   0.00000  Uiso   1.00
O286   O     0.27267   0.50000   0.31492   0.00000  Uiso   1.00
O287   O     0.06067   0.50000   0.18508   0.00000  Uiso   1.00
O288   O     0.27463   0.47024   0.05067   0.00000  Uiso   1.00
C289   C     0.66652   0.42080   0.25151   0.00000  Uiso   1.00
C290   C     0.37298   0.35591   0.22510   0.00000  Uiso   1.00
C291   C     0.66660   0.62392   0.24716   0.00000  Uiso   1.00
C292   C     0.33339   0.37608   0.25282   0.00000  Uiso   1.00
C293   C     0.51800   0.47413   0.27826   0.00000  Uiso   1.00
C294   C     0.48199   0.52588   0.22176   0.00000  Uiso   1.00
C295   C     0.46862   0.47381   0.27869   0.00000  Uiso   1.00
C296   C     0.53135   0.52623   0.22137   0.00000  Uiso   1.00
C297   C     0.63953   0.49971   0.33618   0.00000  Uiso   1.00
C298   C     0.36046   0.50060   0.16386   0.00000  Uiso   1.00
C299   C     0.62450   0.49840   0.38574   0.00000  Uiso   1.00
C300   C     0.33349   0.57920   0.24848   0.00000  Uiso   1.00
C301   C     0.37562   0.50503   0.11450   0.00000  Uiso   1.00
C302   C     0.64080   0.48394   0.45787   0.00000  Uiso   1.00
C303   C     0.36215   0.53068   0.04421   0.00000  Uiso   1.00
C304   C     0.65708   0.48861   0.41121   0.00000  Uiso   1.00
C305   C     0.34483   0.52185   0.09017   0.00000  Uiso   1.00
C306   C     0.57596   0.50522   0.40759   0.00000  Uiso   1.00
C307   C     0.42351   0.49621   0.09228   0.00000  Uiso   1.00
C308   C     0.55876   0.50246   0.45485   0.00000  Uiso   1.00
C309   C     0.44286   0.50697   0.04640   0.00000  Uiso   1.00
C310   C     0.59180   0.49004   0.48003   0.00000  Uiso   1.00
C311   C     0.52684   0.48934   0.04836   0.00000  Uiso   1.00
C312   C     0.41095   0.52376   0.02198   0.00000  Uiso   1.00
C313   C     0.50947   0.51028   0.47735   0.00000  Uiso   1.00
C314   C     0.49282   0.50173   0.02444   0.00000  Uiso   1.00
C315   C     0.43852   0.44332   0.31197   0.00000  Uiso   1.00
C316   C     0.56137   0.55689   0.18827   0.00000  Uiso   1.00
C317   C     0.47668   0.52742   0.45434   0.00000  Uiso   1.00
C318   C     0.57564   0.48344   0.02674   0.00000  Uiso   1.00
C319   C     0.42806   0.53411   0.47605   0.00000  Uiso   1.00
C320   C     0.62692   0.35329   0.27877   0.00000  Uiso   1.00
C321   C     0.37308   0.64670   0.22120   0.00000  Uiso   1.00
C322   C     0.62702   0.64408   0.27487   0.00000  Uiso   1.00
Cu323  Cu    0.38022   0.50001   0.25000   0.00000  Uiso   1.00
Cu324  Cu    0.61978   0.49999   0.25000   0.00000  Uiso   1.00
H325   H     0.44479   0.48088   0.11204   0.00000  Uiso   1.00
H326   H     0.40314   0.37351   0.20474   0.00000  Uiso   1.00
H327   H     0.53134   0.45350   0.30078   0.00000  Uiso   1.00
H328   H     0.46864   0.54653   0.19926   0.00000  Uiso   1.00
H329   H     0.59100   0.46664   0.08305   0.00000  Uiso   1.00
H330   H     0.41395   0.55580   0.42077   0.00000  Uiso   1.00
H331   H     0.59814   0.39749   0.31861   0.00000  Uiso   1.00
H332   H     0.40183   0.60251   0.18135   0.00000  Uiso   1.00
H333   H     0.40029   0.44326   0.31338   0.00000  Uiso   1.00
H334   H     0.45249   0.41157   0.30368   0.00000  Uiso   1.00
H335   H     0.44137   0.44992   0.34638   0.00000  Uiso   1.00
H336   H     0.55186   0.51114   0.38662   0.00000  Uiso   1.00
H337   H     0.59965   0.55677   0.18666   0.00000  Uiso   1.00
H338   H     0.55825   0.55064   0.15387   0.00000  Uiso   1.00
H339   H     0.54751   0.58861   0.19694   0.00000  Uiso   1.00
H340   H     0.64104   0.52907   0.10676   0.00000  Uiso   1.00
H341   H     0.36146   0.48322   0.39503   0.00000  Uiso   1.00
H342   H     0.33342   0.47504   0.47645   0.00000  Uiso   1.00
H343   H     0.33728   0.54383   0.02639   0.00000  Uiso   1.00
H344   H     0.51704   0.48500   0.08440   0.00000  Uiso   1.00
H345   H     0.48812   0.53763   0.41958   0.00000  Uiso   1.00
H346   H     0.59686   0.62648   0.29524   0.00000  Uiso   1.00
N347   N     0.45069   0.50001   0.24999   0.00000  Uiso   1.00
N348   N     0.54931   0.49999   0.25001   0.00000  Uiso   1.00
O349   O     0.37291   0.43989   0.25000   0.00000  Uiso   1.00
O350   O     0.39671   0.55112   0.45294   0.00000  Uiso   1.00
O351   O     0.58814   0.37091   0.30900   0.00000  Uiso   1.00
O352   O     0.41184   0.62908   0.19095   0.00000  Uiso   1.00
O353   O     0.62709   0.56011   0.25000   0.00000  Uiso   1.00
O354   O     0.62706   0.43988   0.25000   0.00000  Uiso   1.00
O355   O     0.37294   0.56012   0.24999   0.00000  Uiso   1.00
O356   O     0.35186   0.50001   0.31491   0.00000  Uiso   1.00
O357   O     0.64814   0.49999   0.18508   0.00000  Uiso   1.00
O358   O     0.60600   0.50000   0.31492   0.00000  Uiso   1.00
O359   O     0.39400   0.50000   0.18508   0.00000  Uiso   1.00
O360   O     0.60796   0.47024   0.05067   0.00000  Uiso   1.00
C361   C     0.99985   0.42080   0.25151   0.00000  Uiso   1.00
C362   C     0.70631   0.35591   0.22510   0.00000  Uiso   1.00
C363   C     0.99994   0.62392   0.24716   0.00000  Uiso   1.00
C364   C     0.66673   0.37608   0.25282   0.00000  Uiso   1.00
C365   C     0.85133   0.47413   0.27826   0.00000  Uiso   1.00
C366   C     0.81532   0.52588   0.22176   0.00000  Uiso   1.00
C367   C     0.80196   0.47381   0.27869   0.00000  Uiso   1.00
C368   C     0.86468   0.52623   0.22137   0.00000  Uiso   1.00
C369   C     0.97286   0.49971   0.33618   0.00000  Uiso   1.00
C370   C     0.69379   0.50060   0.16386   0.00000  Uiso   1.00
C371   C     0.95784   0.49840   0.38574   0.00000  Uiso   1.00
C372   C     0.66682   0.57920   0.24848   0.00000  Uiso   1.00
C373   C     0.70895   0.50503   0.11450   0.00000  Uiso   1.00
C374   C     0.97413   0.48394   0.45787   0.00000  Uiso   1.00
C375   C     0.69548   0.53068   0.04421   0.00000  Uiso   1.00
C376   C     0.99041   0.48861   0.41121   0.00000  Uiso   1.00
C377   C     0.67816   0.52185   0.09017   0.00000  Uiso   1.00
C378   C     0.90929   0.50522   0.40759   0.00000  Uiso   1.00
C379   C     0.75684   0.49621   0.09228   0.00000  Uiso   1.00
C380   C     0.89210   0.50246   0.45485   0.00000  Uiso   1.00
C381   C     0.77619   0.50697   0.04640   0.00000  Uiso   1.00
C382   C     0.92513   0.49004   0.48003   0.00000  Uiso   1.00
C383   C     0.86018   0.48934   0.04836   0.00000  Uiso   1.00
C384   C     0.74428   0.52376   0.02198   0.00000  Uiso   1.00
C385   C     0.84280   0.51028   0.47735   0.00000  Uiso   1.00
C386   C     0.82615   0.50173   0.02444   0.00000  Uiso   1.00
C387   C     0.77185   0.44332   0.31197   0.00000  Uiso   1.00
C388   C     0.89470   0.55689   0.18827   0.00000  Uiso   1.00
C389   C     0.81001   0.52742   0.45434   0.00000  Uiso   1.00
C390   C     0.90897   0.48344   0.02674   0.00000  Uiso   1.00
C391   C     0.76139   0.53411   0.47605   0.00000  Uiso   1.00
C392   C     0.96025   0.35329   0.27877   0.00000  Uiso   1.00
C393   C     0.70641   0.64670   0.22120   0.00000  Uiso   1.00
C394   C     0.96035   0.64408   0.27487   0.00000  Uiso   1.00
Cu395  Cu    0.71355   0.50001   0.25000   0.00000  Uiso   1.00
Cu396  Cu    0.95311   0.49999   0.25000   0.00000  Uiso   1.00
H397   H     0.77813   0.48088   0.11204   0.00000  Uiso   1.00
H398   H     0.73647   0.37351   0.20474   0.00000  Uiso   1.00
H399   H     0.86467   0.45350   0.30078   0.00000  Uiso   1.00
H400   H     0.80197   0.54653   0.19926   0.00000  Uiso   1.00
H401   H     0.92433   0.46664   0.08305   0.00000  Uiso   1.00
H402   H     0.74728   0.55580   0.42077   0.00000  Uiso   1.00
H403   H     0.93148   0.39749   0.31861   0.00000  Uiso   1.00
H404   H     0.73516   0.60251   0.18135   0.00000  Uiso   1.00
H405   H     0.73362   0.44326   0.31338   0.00000  Uiso   1.00
H406   H     0.78583   0.41157   0.30368   0.00000  Uiso   1.00
H407   H     0.77470   0.44992   0.34638   0.00000  Uiso   1.00
H408   H     0.88519   0.51114   0.38662   0.00000  Uiso   1.00
H409   H     0.93298   0.55677   0.18666   0.00000  Uiso   1.00
H410   H     0.89158   0.55064   0.15387   0.00000  Uiso   1.00
H411   H     0.88085   0.58861   0.19694   0.00000  Uiso   1.00
H412   H     0.97437   0.52907   0.10676   0.00000  Uiso   1.00
H413   H     0.69479   0.48322   0.39503   0.00000  Uiso   1.00
H414   H     0.66675   0.47504   0.47645   0.00000  Uiso   1.00
H415   H     0.67062   0.54383   0.02639   0.00000  Uiso   1.00
H416   H     0.85037   0.48500   0.08440   0.00000  Uiso   1.00
H417   H     0.82145   0.53763   0.41958   0.00000  Uiso   1.00
H418   H     0.93019   0.62648   0.29524   0.00000  Uiso   1.00
N419   N     0.78403   0.50001   0.24999   0.00000  Uiso   1.00
N420   N     0.88264   0.49999   0.25001   0.00000  Uiso   1.00
O421   O     0.70625   0.43989   0.25000   0.00000  Uiso   1.00
O422   O     0.73005   0.55112   0.45294   0.00000  Uiso   1.00
O423   O     0.92147   0.37091   0.30900   0.00000  Uiso   1.00
O424   O     0.74517   0.62908   0.19095   0.00000  Uiso   1.00
O425   O     0.96042   0.56011   0.25000   0.00000  Uiso   1.00
O426   O     0.96039   0.43988   0.25000   0.00000  Uiso   1.00
O427   O     0.70628   0.56012   0.24999   0.00000  Uiso   1.00
O428   O     0.68519   0.50001   0.31491   0.00000  Uiso   1.00
O429   O     0.98148   0.49999   0.18508   0.00000  Uiso   1.00
O430   O     0.93933   0.50000   0.31492   0.00000  Uiso   1.00
O431   O     0.72733   0.50000   0.18508   0.00000  Uiso   1.00
O432   O     0.94129   0.47024   0.05067   0.00000  Uiso   1.00
C433   C     0.33318   0.75413   0.25151   0.00000  Uiso   1.00
C434   C     0.03964   0.68925   0.22510   0.00000  Uiso   1.00
C435   C     0.33327   0.95725   0.24716   0.00000  Uiso   1.00
C436   C     0.00006   0.70941   0.25282   0.00000  Uiso   1.00
C437   C     0.18466   0.80747   0.27826   0.00000  Uiso   1.00
C438   C     0.14866   0.85921   0.22176   0.00000  Uiso   1.00
C439   C     0.13529   0.80714   0.27869   0.00000  Uiso   1.00
C440   C     0.19802   0.85957   0.22137   0.00000  Uiso   1.00
C441   C     0.30620   0.83305   0.33618   0.00000  Uiso   1.00
C442   C     0.02712   0.83394   0.16386   0.00000  Uiso   1.00
C443   C     0.29117   0.83173   0.38574   0.00000  Uiso   1.00
C444   C     0.00015   0.91253   0.24848   0.00000  Uiso   1.00
C445   C     0.04229   0.83837   0.11450   0.00000  Uiso   1.00
C446   C     0.30746   0.81728   0.45787   0.00000  Uiso   1.00
C447   C     0.02881   0.86401   0.04421   0.00000  Uiso   1.00
C448   C     0.32374   0.82194   0.41121   0.00000  Uiso   1.00
C449   C     0.01149   0.85518   0.09017   0.00000  Uiso   1.00
C450   C     0.24263   0.83856   0.40759   0.00000  Uiso   1.00
C451   C     0.09017   0.82954   0.09228   0.00000  Uiso   1.00
C452   C     0.22543   0.83580   0.45485   0.00000  Uiso   1.00
C453   C     0.10952   0.84030   0.04640   0.00000  Uiso   1.00
C454   C     0.25846   0.82337   0.48003   0.00000  Uiso   1.00
C455   C     0.19351   0.82267   0.04836   0.00000  Uiso   1.00
C456   C     0.07762   0.85710   0.02198   0.00000  Uiso   1.00
C457   C     0.17613   0.84361   0.47735   0.00000  Uiso   1.00
C458   C     0.15948   0.83507   0.02444   0.00000  Uiso   1.00
C459   C     0.10519   0.77666   0.31197   0.00000  Uiso   1.00
C460   C     0.22803   0.89022   0.18827   0.00000  Uiso   1.00
C461   C     0.14334   0.86075   0.45434   0.00000  Uiso   1.00
C462   C     0.24230   0.81677   0.02674   0.00000  Uiso   1.00
C463   C     0.09473   0.86744   0.47605   0.00000  Uiso   1.00
C464   C     0.29358   0.68662   0.27877   0.00000  Uiso   1.00
C465   C     0.03974   0.98004   0.22120   0.00000  Uiso   1.00
C466   C     0.29369   0.97742   0.27487   0.00000  Uiso   1.00
Cu467  Cu    0.04689   0.83334   0.25000   0.00000  Uiso   1.00
Cu468  Cu    0.28645   0.83333   0.25000   0.00000  Uiso   1.00
H469   H     0.11146   0.81421   0.11204   0.00000  Uiso   1.00
H470   H     0.06980   0.70684   0.20474   0.00000  Uiso   1.00
H471   H     0.19801   0.78683   0.30078   0.00000  Uiso   1.00
H472   H     0.13530   0.87987   0.19926   0.00000  Uiso   1.00
H473   H     0.25767   0.79997   0.08305   0.00000  Uiso   1.00
H474   H     0.08062   0.88913   0.42077   0.00000  Uiso   1.00
H475   H     0.26481   0.73082   0.31861   0.00000  Uiso   1.00
H476   H     0.06849   0.93584   0.18135   0.00000  Uiso   1.00
H477   H     0.06695   0.77659   0.31338   0.00000  Uiso   1.00
H478   H     0.11916   0.74491   0.30368   0.00000  Uiso   1.00
H479   H     0.10803   0.78325   0.34638   0.00000  Uiso   1.00
H480   H     0.21853   0.84447   0.38662   0.00000  Uiso   1.00
H481   H     0.26632   0.89010   0.18666   0.00000  Uiso   1.00
H482   H     0.22491   0.88397   0.15387   0.00000  Uiso   1.00
H483   H     0.21418   0.92194   0.19694   0.00000  Uiso   1.00
H484   H     0.30770   0.86240   0.10676   0.00000  Uiso   1.00
H485   H     0.02812   0.81655   0.39503   0.00000  Uiso   1.00
H486   H     0.00009   0.80838   0.47645   0.00000  Uiso   1.00
H487   H     0.00395   0.87716   0.02639   0.00000  Uiso   1.00
H488   H     0.18371   0.81833   0.08440   0.00000  Uiso   1.00
H489   H     0.15478   0.87097   0.41958   0.00000  Uiso   1.00
H490   H     0.26353   0.95982   0.29524   0.00000  Uiso   1.00
N491   N     0.11736   0.83334   0.24999   0.00000  Uiso   1.00
N492   N     0.21597   0.83332   0.25001   0.00000  Uiso   1.00
O493   O     0.03958   0.77322   0.25000   0.00000  Uiso   1.00
O494   O     0.06338   0.88445   0.45294   0.00000  Uiso   1.00
O495   O     0.25481   0.70425   0.30900   0.00000  Uiso   1.00
O496   O     0.07851   0.96241   0.19095   0.00000  Uiso   1.00
O497   O     0.29375   0.89345   0.25000   0.00000  Uiso   1.00
O498   O     0.29372   0.77321   0.25000   0.00000  Uiso   1.00
O499   O     0.03961   0.89346   0.24999   0.00000  Uiso   1.00
O500   O     0.01852   0.83334   0.31491   0.00000  Uiso   1.00
O501   O     0.31481   0.83332   0.18508   0.00000  Uiso   1.00
O502   O     0.27267   0.83333   0.31492   0.00000  Uiso   1.00
O503   O     0.06067   0.83333   0.18508   0.00000  Uiso   1.00
O504   O     0.27463   0.80358   0.05067   0.00000  Uiso   1.00
C505   C     0.66652   0.75413   0.25151   0.00000  Uiso   1.00
C506   C     0.37298   0.68925   0.22510   0.00000  Uiso   1.00
C507   C     0.66660   0.95725   0.24716   0.00000  Uiso   1.00
C508   C     0.33339   0.70941   0.25282   0.00000  Uiso   1.00
C509   C     0.51800   0.80747   0.27826   0.00000  Uiso   1.00
C510   C     0.48199   0.85921   0.22176   0.00000  Uiso   1.00
C511   C     0.46862   0.80714   0.27869   0.00000  Uiso   1.00
C512   C     0.53135   0.85957   0.22137   0.00000  Uiso   1.00
C513   C     0.63953   0.83305   0.33618   0.00000  Uiso   1.00
C514   C     0.36046   0.83394   0.16386   0.00000  Uiso   1.00
C515   C     0.62450   0.83173   0.38574   0.00000  Uiso   1.00
C516   C     0.33349   0.91253   0.24848   0.00000  Uiso   1.00
C517   C     0.37562   0.83837   0.11450   0.00000  Uiso   1.00
C518   C     0.64080   0.81728   0.45787   0.00000  Uiso   1.00
C519   C     0.36215   0.86401   0.04421   0.00000  Uiso   1.00
C520   C     0.65708   0.82194   0.41121   0.00000  Uiso   1.00
C521   C     0.34483   0.85518   0.09017   0.00000  Uiso   1.00
C522   C     0.57596   0.83856   0.40759   0.00000  Uiso   1.00
C523   C     0.42351   0.82954   0.09228   0.00000  Uiso   1.00
C524   C     0.55876   0.83580   0.45485   0.00000  Uiso   1.00
C525   C     0.44286   0.84030   0.04640   0.00000  Uiso   1.00
C526   C     0.59180   0.82337   0.48003   0.00000  Uiso   1.00
C527   C     0.52684   0.82267   0.04836   0.00000  Uiso   1.00
C528   C     0.41095   0.85710   0.02198   0.00000  Uiso   1.00
C529   C     0.50947   0.84361   0.47735   0.00000  Uiso   1.00
C530   C     0.49282   0.83507   0.02444   0.00000  Uiso   1.00
C531   C     0.43852   0.77666   0.31197   0.00000  Uiso   1.00
C532   C     0.56137   0.89022   0.18827   0.00000  Uiso   1.00
C533   C     0.47668   0.86075   0.45434   0.00000  Uiso   1.00
C534   C     0.57564   0.81677   0.02674   0.00000  Uiso   1.00
C535   C     0.42806   0.86744   0.47605   0.00000  Uiso   1.00
C536   C     0.62692   0.68662   0.27877   0.00000  Uiso   1.00
C537   C     0.37308   0.98004   0.22120   0.00000  Uiso   1.00
C538   C     0.62702   0.97742   0.27487   0.00000  Uiso   1.00
Cu539  Cu    0.38022   0.83334   0.25000   0.00000  Uiso   1.00
Cu540  Cu    0.61978   0.83333   0.25000   0.00000  Uiso   1.00
H541   H     0.44479   0.81421   0.11204   0.00000  Uiso   1.00
H542   H     0.40314   0.70684   0.20474   0.00000  Uiso   1.00
H543   H     0.53134   0.78683   0.30078   0.00000  Uiso   1.00
H544   H     0.46864   0.87987   0.19926   0.00000  Uiso   1.00
H545   H     0.59100   0.79997   0.08305   0.00000  Uiso   1.00
H546   H     0.41395   0.88913   0.42077   0.00000  Uiso   1.00
H547   H     0.59814   0.73082   0.31861   0.00000  Uiso   1.00
H548   H     0.40183   0.93584   0.18135   0.00000  Uiso   1.00
H549   H     0.40029   0.77659   0.31338   0.00000  Uiso   1.00
H550   H     0.45249   0.74491   0.30368   0.00000  Uiso   1.00
H551   H     0.44137   0.78325   0.34638   0.00000  Uiso   1.00
H552   H     0.55186   0.84447   0.38662   0.00000  Uiso   1.00
H553   H     0.59965   0.89010   0.18666   0.00000  Uiso   1.00
H554   H     0.55825   0.88397   0.15387   0.00000  Uiso   1.00
H555   H     0.54751   0.92194   0.19694   0.00000  Uiso   1.00
H556   H     0.64104   0.86240   0.10676   0.00000  Uiso   1.00
H557   H     0.36146   0.81655   0.39503   0.00000  Uiso   1.00
H558   H     0.33342   0.80838   0.47645   0.00000  Uiso   1.00
H559   H     0.33728   0.87716   0.02639   0.00000  Uiso   1.00
H560   H     0.51704   0.81833   0.08440   0.00000  Uiso   1.00
H561   H     0.48812   0.87097   0.41958   0.00000  Uiso   1.00
H562   H     0.59686   0.95982   0.29524   0.00000  Uiso   1.00
N563   N     0.45069   0.83334   0.24999   0.00000  Uiso   1.00
N564   N     0.54931   0.83332   0.25001   0.00000  Uiso   1.00
O565   O     0.37291   0.77322   0.25000   0.00000  Uiso   1.00
O566   O     0.39671   0.88445   0.45294   0.00000  Uiso   1.00
O567   O     0.58814   0.70425   0.30900   0.00000  Uiso   1.00
O568   O     0.41184   0.96241   0.19095   0.00000  Uiso   1.00
O569   O     0.62709   0.89345   0.25000   0.00000  Uiso   1.00
O570   O     0.62706   0.77321   0.25000   0.00000  Uiso   1.00
O571   O     0.37294   0.89346   0.24999   0.00000  Uiso   1.00
O572   O     0.35186   0.83334   0.31491   0.00000  Uiso   1.00
O573   O     0.64814   0.83332   0.18508   0.00000  Uiso   1.00
O574   O     0.60600   0.83333   0.31492   0.00000  Uiso   1.00
O575   O     0.39400   0.83333   0.18508   0.00000  Uiso   1.00
O576   O     0.60796   0.80358   0.05067   0.00000  Uiso   1.00
C577   C     0.99985   0.75413   0.25151   0.00000  Uiso   1.00
C578   C     0.70631   0.68925   0.22510   0.00000  Uiso   1.00
C579   C     0.99994   0.95725   0.24716   0.00000  Uiso   1.00
C580   C     0.66673   0.70941   0.25282   0.00000  Uiso   1.00
C581   C     0.85133   0.80747   0.27826   0.00000  Uiso   1.00
C582   C     0.81532   0.85921   0.22176   0.00000  Uiso   1.00
C583   C     0.80196   0.80714   0.27869   0.00000  Uiso   1.00
C584   C     0.86468   0.85957   0.22137   0.00000  Uiso   1.00
C585   C     0.97286   0.83305   0.33618   0.00000  Uiso   1.00
C586   C     0.69379   0.83394   0.16386   0.00000  Uiso   1.00
C587   C     0.95784   0.83173   0.38574   0.00000  Uiso   1.00
C588   C     0.66682   0.91253   0.24848   0.00000  Uiso   1.00
C589   C     0.70895   0.83837   0.11450   0.00000  Uiso   1.00
C590   C     0.97413   0.81728   0.45787   0.00000  Uiso   1.00
C591   C     0.69548   0.86401   0.04421   0.00000  Uiso   1.00
C592   C     0.99041   0.82194   0.41121   0.00000  Uiso   1.00
C593   C     0.67816   0.85518   0.09017   0.00000  Uiso   1.00
C594   C     0.90929   0.83856   0.40759   0.00000  Uiso   1.00
C595   C     0.75684   0.82954   0.09228   0.00000  Uiso   1.00
C596   C     0.89210   0.83580   0.45485   0.00000  Uiso   1.00
C597   C     0.77619   0.84030   0.04640   0.00000  Uiso   1.00
C598   C     0.92513   0.82337   0.48003   0.00000  Uiso   1.00
C599   C     0.86018   0.82267   0.04836   0.00000  Uiso   1.00
C600   C     0.74428   0.85710   0.02198   0.00000  Uiso   1.00
C601   C     0.84280   0.84361   0.47735   0.00000  Uiso   1.00
C602   C     0.82615   0.83507   0.02444   0.00000  Uiso   1.00
C603   C     0.77185   0.77666   0.31197   0.00000  Uiso   1.00
C604   C     0.89470   0.89022   0.18827   0.00000  Uiso   1.00
C605   C     0.81001   0.86075   0.45434   0.00000  Uiso   1.00
C606   C     0.90897   0.81677   0.02674   0.00000  Uiso   1.00
C607   C     0.76139   0.86744   0.47605   0.00000  Uiso   1.00
C608   C     0.96025   0.68662   0.27877   0.00000  Uiso   1.00
C609   C     0.70641   0.98004   0.22120   0.00000  Uiso   1.00
C610   C     0.96035   0.97742   0.27487   0.00000  Uiso   1.00
Cu611  Cu    0.71355   0.83334   0.25000   0.00000  Uiso   1.00
Cu612  Cu    0.95311   0.83333   0.25000   0.00000  Uiso   1.00
H613   H     0.77813   0.81421   0.11204   0.00000  Uiso   1.00
H614   H     0.73647   0.70684   0.20474   0.00000  Uiso   1.00
H615   H     0.86467   0.78683   0.30078   0.00000  Uiso   1.00
H616   H     0.80197   0.87987   0.19926   0.00000  Uiso   1.00
H617   H     0.92433   0.79997   0.08305   0.00000  Uiso   1.00
H618   H     0.74728   0.88913   0.42077   0.00000  Uiso   1.00
H619   H     0.93148   0.73082   0.31861   0.00000  Uiso   1.00
H620   H     0.73516   0.93584   0.18135   0.00000  Uiso   1.00
H621   H     0.73362   0.77659   0.31338   0.00000  Uiso   1.00
H622   H     0.78583   0.74491   0.30368   0.00000  Uiso   1.00
H623   H     0.77470   0.78325   0.34638   0.00000  Uiso   1.00
H624   H     0.88519   0.84447   0.38662   0.00000  Uiso   1.00
H625   H     0.93298   0.89010   0.18666   0.00000  Uiso   1.00
H626   H     0.89158   0.88397   0.15387   0.00000  Uiso   1.00
H627   H     0.88085   0.92194   0.19694   0.00000  Uiso   1.00
H628   H     0.97437   0.86240   0.10676   0.00000  Uiso   1.00
H629   H     0.69479   0.81655   0.39503   0.00000  Uiso   1.00
H630   H     0.66675   0.80838   0.47645   0.00000  Uiso   1.00
H631   H     0.67062   0.87716   0.02639   0.00000  Uiso   1.00
H632   H     0.85037   0.81833   0.08440   0.00000  Uiso   1.00
H633   H     0.82145   0.87097   0.41958   0.00000  Uiso   1.00
H634   H     0.93019   0.95982   0.29524   0.00000  Uiso   1.00
N635   N     0.78403   0.83334   0.24999   0.00000  Uiso   1.00
N636   N     0.88264   0.83332   0.25001   0.00000  Uiso   1.00
O637   O     0.70625   0.77322   0.25000   0.00000  Uiso   1.00
O638   O     0.73005   0.88445   0.45294   0.00000  Uiso   1.00
O639   O     0.92147   0.70425   0.30900   0.00000  Uiso   1.00
O640   O     0.74517   0.96241   0.19095   0.00000  Uiso   1.00
O641   O     0.96042   0.89345   0.25000   0.00000  Uiso   1.00
O642   O     0.96039   0.77321   0.25000   0.00000  Uiso   1.00
O643   O     0.70628   0.89346   0.24999   0.00000  Uiso   1.00
O644   O     0.68519   0.83334   0.31491   0.00000  Uiso   1.00
O645   O     0.98148   0.83332   0.18508   0.00000  Uiso   1.00
O646   O     0.93933   0.83333   0.31492   0.00000  Uiso   1.00
O647   O     0.72733   0.83333   0.18508   0.00000  Uiso   1.00
O648   O     0.94129   0.80358   0.05067   0.00000  Uiso   1.00
C649   C     0.33318   0.08747   0.75151   0.00000  Uiso   1.00
C650   C     0.03964   0.02258   0.72510   0.00000  Uiso   1.00
C651   C     0.33327   0.29058   0.74716   0.00000  Uiso   1.00
C652   C     0.00006   0.04275   0.75282   0.00000  Uiso   1.00
C653   C     0.18466   0.14080   0.77826   0.00000  Uiso   1.00
C654   C     0.14866   0.19255   0.72176   0.00000  Uiso   1.00
C655   C     0.13529   0.14048   0.77869   0.00000  Uiso   1.00
C656   C     0.19802   0.19290   0.72137   0.00000  Uiso   1.00
C657   C     0.30620   0.16638   0.83618   0.00000  Uiso   1.00
C658   C     0.02712   0.16727   0.66386   0.00000  Uiso   1.00
C659   C     0.29117   0.16506   0.88574   0.00000  Uiso   1.00
C660   C     0.00015   0.24586   0.74848   0.00000  Uiso   1.00
C661   C     0.04229   0.17170   0.61450   0.00000  Uiso   1.00
C662   C     0.30746   0.15061   0.95787   0.00000  Uiso   1.00
C663   C     0.02881   0.19735   0.54421   0.00000  Uiso   1.00
C664   C     0.32374   0.15528   0.91121   0.00000  Uiso   1.00
C665   C     0.01149   0.18852   0.59017   0.00000  Uiso   1.00
C666   C     0.24263   0.17189   0.90759   0.00000  Uiso   1.00
C667   C     0.09017   0.16288   0.59228   0.00000  Uiso   1.00
C668   C     0.22543   0.16913   0.95485   0.00000  Uiso   1.00
C669   C     0.10952   0.17364   0.54640   0.00000  Uiso   1.00
C670   C     0.25846   0.15671   0.98003   0.00000  Uiso   1.00
C671   C     0.19351   0.15600   0.54836   0.00000  Uiso   1.00
C672   C     0.07762   0.19043   0.52198   0.00000  Uiso   1.00
C673   C     0.17613   0.17695   0.97735   0.00000  Uiso   1.00
C674   C     0.15948   0.16840   0.52444   0.00000  Uiso   1.00
C675   C     0.10519   0.10999   0.81197   0.00000  Uiso   1.00
C676   C     0.22803   0.22356   0.68827   0.00000  Uiso   1.00
C677   C     0.14334   0.19409   0.95434   0.00000  Uiso   1.00
C678   C     0.24230   0.15010   0.52674   0.00000  Uiso   1.00
C679   C     0.09473   0.20077   0.97605   0.00000  Uiso   1.00
C680   C     0.29358   0.01996   0.77877   0.00000  Uiso   1.00
C681   C     0.03974   0.31337   0.72120   0.00000  Uiso   1.00
C682   C     0.29369   0.31075   0.77487   0.00000  Uiso   1.00
Cu683  Cu    0.04689   0.16667   0.75000   0.00000  Uiso   1.00
Cu684  Cu    0.28645   0.16666   0.75000   0.00000  Uiso   1.00
H685   H     0.11146   0.14754   0.61204   0.00000  Uiso   1.00
H686   H     0.06980   0.04018   0.70474   0.00000  Uiso   1.00
H687   H     0.19801   0.12017   0.80078   0.00000  Uiso   1.00
H688   H     0.13530   0.21320   0.69926   0.00000  Uiso   1.00
H689   H     0.25767   0.13331   0.58305   0.00000  Uiso   1.00
H690   H     0.08062   0.22246   0.92077   0.00000  Uiso   1.00
H691   H     0.26481   0.06415   0.81861   0.00000  Uiso   1.00
H692   H     0.06849   0.26917   0.68135   0.00000  Uiso   1.00
H693   H     0.06695   0.10992   0.81338   0.00000  Uiso   1.00
H694   H     0.11916   0.07824   0.80368   0.00000  Uiso   1.00
H695   H     0.10803   0.11659   0.84638   0.00000  Uiso   1.00
H696   H     0.21853   0.17781   0.88662   0.00000  Uiso   1.00
H697   H     0.26632   0.22344   0.68666   0.00000  Uiso   1.00
H698   H     0.22491   0.21731   0.65387   0.00000  Uiso   1.00
H699   H     0.21418   0.25527   0.69694   0.00000  Uiso   1.00
H700   H     0.30770   0.19573   0.60676   0.00000  Uiso   1.00
H701   H     0.02812   0.14989   0.89503   0.00000  Uiso   1.00
H702   H     0.00009   0.14171   0.97645   0.00000  Uiso   1.00
H703   H     0.00395   0.21049   0.52639   0.00000  Uiso   1.00
H704   H     0.18371   0.15167   0.58440   0.00000  Uiso   1.00
H705   H     0.15478   0.20430   0.91958   0.00000  Uiso   1.00
H706   H     0.26353   0.29315   0.79524   0.00000  Uiso   1.00
N707   N     0.11736   0.16668   0.74999   0.00000  Uiso   1.00
N708   N     0.21597   0.16666   0.75001   0.00000  Uiso   1.00
O709   O     0.03958   0.10655   0.75000   0.00000  Uiso   1.00
O710   O     0.06338   0.21778   0.95294   0.00000  Uiso   1.00
O711   O     0.25481   0.03758   0.80900   0.00000  Uiso   1.00
O712   O     0.07851   0.29574   0.69095   0.00000  Uiso   1.00
O713   O     0.29375   0.22678   0.75000   0.00000  Uiso   1.00
O714   O     0.29372   0.10654   0.75000   0.00000  Uiso   1.00
O715   O     0.03961   0.22679   0.74999   0.00000  Uiso   1.00
O716   O     0.01852   0.16668   0.81491   0.00000  Uiso   1.00
O717   O     0.31481   0.16666   0.68508   0.00000  Uiso   1.00
O718   O     0.27267   0.16667   0.81492   0.00000  Uiso   1.00
O719   O     0.06067   0.16667   0.68508   0.00000  Uiso   1.00
O720   O     0.27463   0.13691   0.55067   0.00000  Uiso   1.00
C721   C     0.66652   0.08747   0.75151   0.00000  Uiso   1.00
C722   C     0.37298   0.02258   0.72510   0.00000  Uiso   1.00
C723   C     0.66660   0.29058   0.74716   0.00000  Uiso   1.00
C724   C     0.33339   0.04275   0.75282   0.00000  Uiso   1.00
C725   C     0.51800   0.14080   0.77826   0.00000  Uiso   1.00
C726   C     0.48199   0.19255   0.72176   0.00000  Uiso   1.00
C727   C     0.46862   0.14048   0.77869   0.00000  Uiso   1.00
C728   C     0.53135   0.19290   0.72137   0.00000  Uiso   1.00
C729   C     0.63953   0.16638   0.83618   0.00000  Uiso   1.00
C730   C     0.36046   0.16727   0.66386   0.00000  Uiso   1.00
C731   C     0.62450   0.16506   0.88574   0.00000  Uiso   1.00
C732   C     0.33349   0.24586   0.74848   0.00000  Uiso   1.00
C733   C     0.37562   0.17170   0.61450   0.00000  Uiso   1.00
C734   C     0.64080   0.15061   0.95787   0.00000  Uiso   1.00
C735   C     0.36215   0.19735   0.54421   0.00000  Uiso   1.00
C736   C     0.65708   0.15528   0.91121   0.00000  Uiso   1.00
C737   C     0.34483   0.18852   0.59017   0.00000  Uiso   1.00
C738   C     0.57596   0.17189   0.90759   0.00000  Uiso   1.00
C739   C     0.42351   0.16288   0.59228   0.00000  Uiso   1.00
C740   C     0.55876   0.16913   0.95485   0.00000  Uiso   1.00
C741   C     0.44286   0.17364   0.54640   0.00000  Uiso   1.00
C742   C     0.59180   0.15671   0.98003   0.00000  Uiso   1.00
C743   C     0.52684   0.15600   0.54836   0.00000  Uiso   1.00
C744   C     0.41095   0.19043   0.52198   0.00000  Uiso   1.00
C745   C     0.50947   0.17695   0.97735   0.00000  Uiso   1.00
C746   C     0.49282   0.16840   0.52444   0.00000  Uiso   1.00
C747   C     0.43852   0.10999   0.81197   0.00000  Uiso   1.00
C748   C     0.56137   0.22356   0.68827   0.00000  Uiso   1.00
C749   C     0.47668   0.19409   0.95434   0.00000  Uiso   1.00
C750   C     0.57564   0.15010   0.52674   0.00000  Uiso   1.00
C751   C     0.42806   0.20077   0.97605   0.00000  Uiso   1.00
C752   C     0.62692   0.01996   0.77877   0.00000  Uiso   1.00
C753   C     0.37308   0.31337   0.72120   0.00000  Uiso   1.00
C754   C     0.62702   0.31075   0.77487   0.00000  Uiso   1.00
Cu755  Cu    0.38022   0.16667   0.75000   0.00000  Uiso   1.00
Cu756  Cu    0.61978   0.16666   0.75000   0.00000  Uiso   1.00
H757   H     0.44479   0.14754   0.61204   0.00000  Uiso   1.00
H758   H     0.40314   0.04018   0.70474   0.00000  Uiso   1.00
H759   H     0.53134   0.12017   0.80078   0.00000  Uiso   1.00
H760   H     0.46864   0.21320   0.69926   0.00000  Uiso   1.00
H761   H     0.59100   0.13331   0.58305   0.00000  Uiso   1.00
H762   H     0.41395   0.22246   0.92077   0.00000  Uiso   1.00
H763   H     0.59814   0.06415   0.81861   0.00000  Uiso   1.00
H764   H     0.40183   0.26917   0.68135   0.00000  Uiso   1.00
H765   H     0.40029   0.10992   0.81338   0.00000  Uiso   1.00
H766   H     0.45249   0.07824   0.80368   0.00000  Uiso   1.00
H767   H     0.44137   0.11659   0.84638   0.00000  Uiso   1.00
H768   H     0.55186   0.17781   0.88662   0.00000  Uiso   1.00
H769   H     0.59965   0.22344   0.68666   0.00000  Uiso   1.00
H770   H     0.55825   0.21731   0.65387   0.00000  Uiso   1.00
H771   H     0.54751   0.25527   0.69694   0.00000  Uiso   1.00
H772   H     0.64104   0.19573   0.60676   0.00000  Uiso   1.00
H773   H     0.36146   0.14989   0.89503   0.00000  Uiso   1.00
H774   H     0.33342   0.14171   0.97645   0.00000  Uiso   1.00
H775   H     0.33728   0.21049   0.52639   0.00000  Uiso   1.00
H776   H     0.51704   0.15167   0.58440   0.00000  Uiso   1.00
H777   H     0.48812   0.20430   0.91958   0.00000  Uiso   1.00
H778   H     0.59686   0.29315   0.79524   0.00000  Uiso   1.00
N779   N     0.45069   0.16668   0.74999   0.00000  Uiso   1.00
N780   N     0.54931   0.16666   0.75001   0.00000  Uiso   1.00
O781   O     0.37291   0.10655   0.75000   0.00000  Uiso   1.00
O782   O     0.39671   0.21778   0.95294   0.00000  Uiso   1.00
O783   O     0.58814   0.03758   0.80900   0.00000  Uiso   1.00
O784   O     0.41184   0.29574   0.69095   0.00000  Uiso   1.00
O785   O     0.62709   0.22678   0.75000   0.00000  Uiso   1.00
O786   O     0.62706   0.10654   0.75000   0.00000  Uiso   1.00
O787   O     0.37294   0.22679   0.74999   0.00000  Uiso   1.00
O788   O     0.35186   0.16668   0.81491   0.00000  Uiso   1.00
O789   O     0.64814   0.16666   0.68508   0.00000  Uiso   1.00
O790   O     0.60600   0.16667   0.81492   0.00000  Uiso   1.00
O791   O     0.39400   0.16667   0.68508   0.00000  Uiso   1.00
O792   O     0.60796   0.13691   0.55067   0.00000  Uiso   1.00
C793   C     0.99985   0.08747   0.75151   0.00000  Uiso   1.00
C794   C     0.70631   0.02258   0.72510   0.00000  Uiso   1.00
C795   C     0.99994   0.29058   0.74716   0.00000  Uiso   1.00
C796   C     0.66673   0.04275   0.75282   0.00000  Uiso   1.00
C797   C     0.85133   0.14080   0.77826   0.00000  Uiso   1.00
C798   C     0.81532   0.19255   0.72176   0.00000  Uiso   1.00
C799   C     0.80196   0.14048   0.77869   0.00000  Uiso   1.00
C800   C     0.86468   0.19290   0.72137   0.00000  Uiso   1.00
C801   C     0.97286   0.16638   0.83618   0.00000  Uiso   1.00
C802   C     0.69379   0.16727   0.66386   0.00000  Uiso   1.00
C803   C     0.95784   0.16506   0.88574   0.00000  Uiso   1.00
C804   C     0.66682   0.24586   0.74848   0.00000  Uiso   1.00
C805   C     0.70895   0.17170   0.61450   0.00000  Uiso   1.00
C806   C     0.97413   0.15061   0.95787   0.00000  Uiso   1.00
C807   C     0.69548   0.19735   0.54421   0.00000  Uiso   1.00
C808   C     0.99041   0.15528   0.91121   0.00000  Uiso   1.00
C809   C     0.67816   0.18852   0.59017   0.00000  Uiso   1.00
C810   C     0.90929   0.17189   0.90759   0.00000  Uiso   1.00
C811   C     0.75684   0.16288   0.59228   0.00000  Uiso   1.00
C812   C     0.89210   0.16913   0.95485   0.00000  Uiso   1.00
C813   C     0.77619   0.17364   0.54640   0.00000  Uiso   1.00
C814   C     0.92513   0.15671   0.98003   0.00000  Uiso   1.00
C815   C     0.86018   0.15600   0.54836   0.00000  Uiso   1.00
C816   C     0.74428   0.19043   0.52198   0.00000  Uiso   1.00
C817   C     0.84280   0.17695   0.97735   0.00000  Uiso   1.00
C818   C     0.82615   0.16840   0.52444   0.00000  Uiso   1.00
C819   C     0.77185   0.10999   0.81197   0.00000  Uiso   1.00
C820   C     0.89470   0.22356   0.68827   0.00000  Uiso   1.00
C821   C     0.81001   0.19409   0.95434   0.00000  Uiso   1.00
C822   C     0.90897   0.15010   0.52674   0.00000  Uiso   1.00
C823   C     0.76139   0.20077   0.97605   0.00000  Uiso   1.00
C824   C     0.96025   0.01996   0.77877   0.00000  Uiso   1.00
C825   C     0.70641   0.31337   0.72120   0.00000  Uiso   1.00
C826   C     0.96035   0.31075   0.77487   0.00000  Uiso   1.00
Cu827  Cu    0.71355   0.16667   0.75000   0.00000  Uiso   1.00
Cu828  Cu    0.95311   0.16666   0.75000   0.00000  Uiso   1.00
H829   H     0.77813   0.14754   0.61204   0.00000  Uiso   1.00
H830   H     0.73647   0.04018   0.70474   0.00000  Uiso   1.00
H831   H     0.86467   0.12017   0.80078   0.00000  Uiso   1.00
H832   H     0.80197   0.21320   0.69926   0.00000  Uiso   1.00
H833   H     0.92433   0.13331   0.58305   0.00000  Uiso   1.00
H834   H     0.74728   0.22246   0.92077   0.00000  Uiso   1.00
H835   H     0.93148   0.06415   0.81861   0.00000  Uiso   1.00
H836   H     0.73516   0.26917   0.68135   0.00000  Uiso   1.00
H837   H     0.73362   0.10992   0.81338   0.00000  Uiso   1.00
H838   H     0.78583   0.07824   0.80368   0.00000  Uiso   1.00
H839   H     0.77470   0.11659   0.84638   0.00000  Uiso   1.00
H840   H     0.88519   0.17781   0.88662   0.00000  Uiso   1.00
H841   H     0.93298   0.22344   0.68666   0.00000  Uiso   1.00
H842   H     0.89158   0.21731   0.65387   0.00000  Uiso   1.00
H843   H     0.88085   0.25527   0.69694   0.00000  Uiso   1.00
H844   H     0.97437   0.19573   0.60676   0.00000  Uiso   1.00
H845   H     0.69479   0.14989   0.89503   0.00000  Uiso   1.00
H846   H     0.66675   0.14171   0.97645   0.00000  Uiso   1.00
H847   H     0.67062   0.21049   0.52639   0.00000  Uiso   1.00
H848   H     0.85037   0.15167   0.58440   0.00000  Uiso   1.00
H849   H     0.82145   0.20430   0.91958   0.00000  Uiso   1.00
H850   H     0.93019   0.29315   0.79524   0.00000  Uiso   1.00
N851   N     0.78403   0.16668   0.74999   0.00000  Uiso   1.00
N852   N     0.88264   0.16666   0.75001   0.00000  Uiso   1.00
O853   O     0.70625   0.10655   0.75000   0.00000  Uiso   1.00
O854   O     0.73005   0.21778   0.95294   0.00000  Uiso   1.00
O855   O     0.92147   0.03758   0.80900   0.00000  Uiso   1.00
O856   O     0.74517   0.29574   0.69095   0.00000  Uiso   1.00
O857   O     0.96042   0.22678   0.75000   0.00000  Uiso   1.00
O858   O     0.96039   0.10654   0.75000   0.00000  Uiso   1.00
O859   O     0.70628   0.22679   0.74999   0.00000  Uiso   1.00
O860   O     0.68519   0.16668   0.81491   0.00000  Uiso   1.00
O861   O     0.98148   0.16666   0.68508   0.00000  Uiso   1.00
O862   O     0.93933   0.16667   0.81492   0.00000  Uiso   1.00
O863   O     0.72733   0.16667   0.68508   0.00000  Uiso   1.00
O864   O     0.94129   0.13691   0.55067   0.00000  Uiso   1.00
C865   C     0.33318   0.42080   0.75151   0.00000  Uiso   1.00
C866   C     0.03964   0.35591   0.72510   0.00000  Uiso   1.00
C867   C     0.33327   0.62392   0.74716   0.00000  Uiso   1.00
C868   C     0.00006   0.37608   0.75282   0.00000  Uiso   1.00
C869   C     0.18466   0.47413   0.77826   0.00000  Uiso   1.00
C870   C     0.14866   0.52588   0.72176   0.00000  Uiso   1.00
C871   C     0.13529   0.47381   0.77869   0.00000  Uiso   1.00
C872   C     0.19802   0.52623   0.72137   0.00000  Uiso   1.00
C873   C     0.30620   0.49971   0.83618   0.00000  Uiso   1.00
C874   C     0.02712   0.50060   0.66386   0.00000  Uiso   1.00
C875   C     0.29117   0.49840   0.88574   0.00000  Uiso   1.00
C876   C     0.00015   0.57920   0.74848   0.00000  Uiso   1.00
C877   C     0.04229   0.50503   0.61450   0.00000  Uiso   1.00
C878   C     0.30746   0.48394   0.95787   0.00000  Uiso   1.00
C879   C     0.02881   0.53068   0.54421   0.00000  Uiso   1.00
C880   C     0.32374   0.48861   0.91121   0.00000  Uiso   1.00
C881   C     0.01149   0.52185   0.59017   0.00000  Uiso   1.00
C882   C     0.24263   0.50522   0.90759   0.00000  Uiso   1.00
C883   C     0.09017   0.49621   0.59228   0.00000  Uiso   1.00
C884   C     0.22543   0.50246   0.95485   0.00000  Uiso   1.00
C885   C     0.10952   0.50697   0.54640   0.00000  Uiso   1.00
C886   C     0.25846   0.49004   0.98003   0.00000  Uiso   1.00
C887   C     0.19351   0.48934   0.54836   0.00000  Uiso   1.00
C888   C     0.07762   0.52376   0.52198   0.00000  Uiso   1.00
C889   C     0.17613   0.51028   0.97735   0.00000  Uiso   1.00
C890   C     0.15948   0.50173   0.52444   0.00000  Uiso   1.00
C891   C     0.10519   0.44332   0.81197   0.00000  Uiso   1.00
C892   C     0.22803   0.55689   0.68827   0.00000  Uiso   1.00
C893   C     0.14334   0.52742   0.95434   0.00000  Uiso   1.00
C894   C     0.24230   0.48344   0.52674   0.00000  Uiso   1.00
C895   C     0.09473   0.53411   0.97605   0.00000  Uiso   1.00
C896   C     0.29358   0.35329   0.77877   0.00000  Uiso   1.00
C897   C     0.03974   0.64670   0.72120   0.00000  Uiso   1.00
C898   C     0.29369   0.64408   0.77487   0.00000  Uiso   1.00
Cu899  Cu    0.04689   0.50001   0.75000   0.00000  Uiso   1.00
Cu900  Cu    0.28645   0.49999   0.75000   0.00000  Uiso   1.00
H901   H     0.11146   0.48088   0.61204   0.00000  Uiso   1.00
H902   H     0.06980   0.37351   0.70474   0.00000  Uiso   1.00
H903   H     0.19801   0.45350   0.80078   0.00000  Uiso   1.00
H904   H     0.13530   0.54653   0.69926   0.00000  Uiso   1.00
H905   H     0.25767   0.46664   0.58305   0.00000  Uiso   1.00
H906   H     0.08062   0.55580   0.92077   0.00000  Uiso   1.00
H907   H     0.26481   0.39749   0.81861   0.00000  Uiso   1.00
H908   H     0.06849   0.60251   0.68135   0.00000  Uiso   1.00
H909   H     0.06695   0.44326   0.81338   0.00000  Uiso   1.00
H910   H     0.11916   0.41157   0.80368   0.00000  Uiso   1.00
H911   H     0.10803   0.44992   0.84638   0.00000  Uiso   1.00
H912   H     0.21853   0.51114   0.88662   0.00000  Uiso   1.00
H913   H     0.26632   0.55677   0.68666   0.00000  Uiso   1.00
H914   H     0.22491   0.55064   0.65387   0.00000  Uiso   1.00
H915   H     0.21418   0.58861   0.69694   0.00000  Uiso   1.00
H916   H     0.30770   0.52907   0.60676   0.00000  Uiso   1.00
H917   H     0.02812   0.48322   0.89503   0.00000  Uiso   1.00
H918   H     0.00009   0.47504   0.97645   0.00000  Uiso   1.00
H919   H     0.00395   0.54383   0.52639   0.00000  Uiso   1.00
H920   H     0.18371   0.48500   0.58440   0.00000  Uiso   1.00
H921   H     0.15478   0.53763   0.91958   0.00000  Uiso   1.00
H922   H     0.26353   0.62648   0.79524   0.00000  Uiso   1.00
N923   N     0.11736   0.50001   0.74999   0.00000  Uiso   1.00
N924   N     0.21597   0.49999   0.75001   0.00000  Uiso   1.00
O925   O     0.03958   0.43989   0.75000   0.00000  Uiso   1.00
O926   O     0.06338   0.55112   0.95294   0.00000  Uiso   1.00
O927   O     0.25481   0.37091   0.80900   0.00000  Uiso   1.00
O928   O     0.07851   0.62908   0.69095   0.00000  Uiso   1.00
O929   O     0.29375   0.56011   0.75000   0.00000  Uiso   1.00
O930   O     0.29372   0.43988   0.75000   0.00000  Uiso   1.00
O931   O     0.03961   0.56012   0.74999   0.00000  Uiso   1.00
O932   O     0.01852   0.50001   0.81491   0.00000  Uiso   1.00
O933   O     0.31481   0.49999   0.68508   0.00000  Uiso   1.00
O934   O     0.27267   0.50000   0.81492   0.00000  Uiso   1.00
O935   O     0.06067   0.50000   0.68508   0.00000  Uiso   1.00
O936   O     0.27463   0.47024   0.55067   0.00000  Uiso   1.00
C937   C     0.66652   0.42080   0.75151   0.00000  Uiso   1.00
C938   C     0.37298   0.35591   0.72510   0.00000  Uiso   1.00
C939   C     0.66660   0.62392   0.74716   0.00000  Uiso   1.00
C940   C     0.33339   0.37608   0.75282   0.00000  Uiso   1.00
C941   C     0.51800   0.47413   0.77826   0.00000  Uiso   1.00
C942   C     0.48199   0.52588   0.72176   0.00000  Uiso   1.00
C943   C     0.46862   0.47381   0.77869   0.00000  Uiso   1.00
C944   C     0.53135   0.52623   0.72137   0.00000  Uiso   1.00
C945   C     0.63953   0.49971   0.83618   0.00000  Uiso   1.00
C946   C     0.36046   0.50060   0.66386   0.00000  Uiso   1.00
C947   C     0.62450   0.49840   0.88574   0.00000  Uiso   1.00
C948   C     0.33349   0.57920   0.74848   0.00000  Uiso   1.00
C949   C     0.37562   0.50503   0.61450   0.00000  Uiso   1.00
C950   C     0.64080   0.48394   0.95787   0.00000  Uiso   1.00
C951   C     0.36215   0.53068   0.54421   0.00000  Uiso   1.00
C952   C     0.65708   0.48861   0.91121   0.00000  Uiso   1.00
C953   C     0.34483   0.52185   0.59017   0.00000  Uiso   1.00
C954   C     0.57596   0.50522   0.90759   0.00000  Uiso   1.00
C955   C     0.42351   0.49621   0.59228   0.00000  Uiso   1.00
C956   C     0.55876   0.50246   0.95485   0.00000  Uiso   1.00
C957   C     0.44286   0.50697   0.54640   0.00000  Uiso   1.00
C958   C     0.59180   0.49004   0.98003   0.00000  Uiso   1.00
C959   C     0.52684   0.48934   0.54836   0.00000  Uiso   1.00
C960   C     0.41095   0.52376   0.52198   0.00000  Uiso   1.00
C961   C     0.50947   0.51028   0.97735   0.00000  Uiso   1.00
C962   C     0.49282   0.50173   0.52444   0.00000  Uiso   1.00
C963   C     0.43852   0.44332   0.81197   0.00000  Uiso   1.00
C964   C     0.56137   0.55689   0.68827   0.00000  Uiso   1.00
C965   C     0.47668   0.52742   0.95434   0.00000  Uiso   1.00
C966   C     0.57564   0.48344   0.52674   0.00000  Uiso   1.00
C967   C     0.42806   0.53411   0.97605   0.00000  Uiso   1.00
C968   C     0.62692   0.35329   0.77877   0.00000  Uiso   1.00
C969   C     0.37308   0.64670   0.72120   0.00000  Uiso   1.00
C970   C     0.62702   0.64408   0.77487   0.00000  Uiso   1.00
Cu971  Cu    0.38022   0.50001   0.75000   0.00000  Uiso   1.00
Cu972  Cu    0.61978   0.49999   0.75000   0.00000  Uiso   1.00
H973   H     0.44479   0.48088   0.61204   0.00000  Uiso   1.00
H974   H     0.40314   0.37351   0.70474   0.00000  Uiso   1.00
H975   H     0.53134   0.45350   0.80078   0.00000  Uiso   1.00
H976   H     0.46864   0.54653   0.69926   0.00000  Uiso   1.00
H977   H     0.59100   0.46664   0.58305   0.00000  Uiso   1.00
H978   H     0.41395   0.55580   0.92077   0.00000  Uiso   1.00
H979   H     0.59814   0.39749   0.81861   0.00000  Uiso   1.00
H980   H     0.40183   0.60251   0.68135   0.00000  Uiso   1.00
H981   H     0.40029   0.44326   0.81338   0.00000  Uiso   1.00
H982   H     0.45249   0.41157   0.80368   0.00000  Uiso   1.00
H983   H     0.44137   0.44992   0.84638   0.00000  Uiso   1.00
H984   H     0.55186   0.51114   0.88662   0.00000  Uiso   1.00
H985   H     0.59965   0.55677   0.68666   0.00000  Uiso   1.00
H986   H     0.55825   0.55064   0.65387   0.00000  Uiso   1.00
H987   H     0.54751   0.58861   0.69694   0.00000  Uiso   1.00
H988   H     0.64104   0.52907   0.60676   0.00000  Uiso   1.00
H989   H     0.36146   0.48322   0.89503   0.00000  Uiso   1.00
H990   H     0.33342   0.47504   0.97645   0.00000  Uiso   1.00
H991   H     0.33728   0.54383   0.52639   0.00000  Uiso   1.00
H992   H     0.51704   0.48500   0.58440   0.00000  Uiso   1.00
H993   H     0.48812   0.53763   0.91958   0.00000  Uiso   1.00
H994   H     0.59686   0.62648   0.79524   0.00000  Uiso   1.00
N995   N     0.45069   0.50001   0.74999   0.00000  Uiso   1.00
N996   N     0.54931   0.49999   0.75001   0.00000  Uiso   1.00
O997   O     0.37291   0.43989   0.75000   0.00000  Uiso   1.00
O998   O     0.39671   0.55112   0.95294   0.00000  Uiso   1.00
O999   O     0.58814   0.37091   0.80900   0.00000  Uiso   1.00
O1000  O     0.41184   0.62908   0.69095   0.00000  Uiso   1.00
O1001  O     0.62709   0.56011   0.75000   0.00000  Uiso   1.00
O1002  O     0.62706   0.43988   0.75000   0.00000  Uiso   1.00
O1003  O     0.37294   0.56012   0.74999   0.00000  Uiso   1.00
O1004  O     0.35186   0.50001   0.81491   0.00000  Uiso   1.00
O1005  O     0.64814   0.49999   0.68508   0.00000  Uiso   1.00
O1006  O     0.60600   0.50000   0.81492   0.00000  Uiso   1.00
O1007  O     0.39400   0.50000   0.68508   0.00000  Uiso   1.00
O1008  O     0.60796   0.47024   0.55067   0.00000  Uiso   1.00
C1009  C     0.99985   0.42080   0.75151   0.00000  Uiso   1.00
C1010  C     0.70631   0.35591   0.72510   0.00000  Uiso   1.00
C1011  C     0.99994   0.62392   0.74716   0.00000  Uiso   1.00
C1012  C     0.66673   0.37608   0.75282   0.00000  Uiso   1.00
C1013  C     0.85133   0.47413   0.77826   0.00000  Uiso   1.00
C1014  C     0.81532   0.52588   0.72176   0.00000  Uiso   1.00
C1015  C     0.80196   0.47381   0.77869   0.00000  Uiso   1.00
C1016  C     0.86468   0.52623   0.72137   0.00000  Uiso   1.00
C1017  C     0.97286   0.49971   0.83618   0.00000  Uiso   1.00
C1018  C     0.69379   0.50060   0.66386   0.00000  Uiso   1.00
C1019  C     0.95784   0.49840   0.88574   0.00000  Uiso   1.00
C1020  C     0.66682   0.57920   0.74848   0.00000  Uiso   1.00
C1021  C     0.70895   0.50503   0.61450   0.00000  Uiso   1.00
C1022  C     0.97413   0.48394   0.95787   0.00000  Uiso   1.00
C1023  C     0.69548   0.53068   0.54421   0.00000  Uiso   1.00
C1024  C     0.99041   0.48861   0.91121   0.00000  Uiso   1.00
C1025  C     0.67816   0.52185   0.59017   0.00000  Uiso   1.00
C1026  C     0.90929   0.50522   0.90759   0.00000  Uiso   1.00
C1027  C     0.75684   0.49621   0.59228   0.00000  Uiso   1.00
C1028  C     0.89210   0.50246   0.95485   0.00000  Uiso   1.00
C1029  C     0.77619   0.50697   0.54640   0.00000  Uiso   1.00
C1030  C     0.92513   0.49004   0.98003   0.00000  Uiso   1.00
C1031  C     0.86018   0.48934   0.54836   0.00000  Uiso   1.00
C1032  C     0.74428   0.52376   0.52198   0.00000  Uiso   1.00
C1033  C     0.84280   0.51028   0.97735   0.00000  Uiso   1.00
C1034  C     0.82615   0.50173   0.52444   0.00000  Uiso   1.00
C1035  C     0.77185   0.44332   0.81197   0.00000  Uiso   1.00
C1036  C     0.89470   0.55689   0.68827   0.00000  Uiso   1.00
C1037  C     0.81001   0.52742   0.95434   0.00000  Uiso   1.00
C1038  C     0.90897   0.48344   0.52674   0.00000  Uiso   1.00
C1039  C     0.76139   0.53411   0.97605   0.00000  Uiso   1.00
C1040  C     0.96025   0.35329   0.77877   0.00000  Uiso   1.00
C1041  C     0.70641   0.64670   0.72120   0.00000  Uiso   1.00
C1042  C     0.96035   0.64408   0.77487   0.00000  Uiso   1.00
Cu1043 Cu    0.71355   0.50001   0.75000   0.00000  Uiso   1.00
Cu1044 Cu    0.95311   0.49999   0.75000   0.00000  Uiso   1.00
H1045  H     0.77813   0.48088   0.61204   0.00000  Uiso   1.00
H1046  H     0.73647   0.37351   0.70474   0.00000  Uiso   1.00
H1047  H     0.86467   0.45350   0.80078   0.00000  Uiso   1.00
H1048  H     0.80197   0.54653   0.69926   0.00000  Uiso   1.00
H1049  H     0.92433   0.46664   0.58305   0.00000  Uiso   1.00
H1050  H     0.74728   0.55580   0.92077   0.00000  Uiso   1.00
H1051  H     0.93148   0.39749   0.81861   0.00000  Uiso   1.00
H1052  H     0.73516   0.60251   0.68135   0.00000  Uiso   1.00
H1053  H     0.73362   0.44326   0.81338   0.00000  Uiso   1.00
H1054  H     0.78583   0.41157   0.80368   0.00000  Uiso   1.00
H1055  H     0.77470   0.44992   0.84638   0.00000  Uiso   1.00
H1056  H     0.88519   0.51114   0.88662   0.00000  Uiso   1.00
H1057  H     0.93298   0.55677   0.68666   0.00000  Uiso   1.00
H1058  H     0.89158   0.55064   0.65387   0.00000  Uiso   1.00
H1059  H     0.88085   0.58861   0.69694   0.00000  Uiso   1.00
H1060  H     0.97437   0.52907   0.60676   0.00000  Uiso   1.00
H1061  H     0.69479   0.48322   0.89503   0.00000  Uiso   1.00
H1062  H     0.66675   0.47504   0.97645   0.00000  Uiso   1.00
H1063  H     0.67062   0.54383   0.52639   0.00000  Uiso   1.00
H1064  H     0.85037   0.48500   0.58440   0.00000  Uiso   1.00
H1065  H     0.82145   0.53763   0.91958   0.00000  Uiso   1.00
H1066  H     0.93019   0.62648   0.79524   0.00000  Uiso   1.00
N1067  N     0.78403   0.50001   0.74999   0.00000  Uiso   1.00
N1068  N     0.88264   0.49999   0.75001   0.00000  Uiso   1.00
O1069  O     0.70625   0.43989   0.75000   0.00000  Uiso   1.00
O1070  O     0.73005   0.55112   0.95294   0.00000  Uiso   1.00
O1071  O     0.92147   0.37091   0.80900   0.00000  Uiso   1.00
O1072  O     0.74517   0.62908   0.69095   0.00000  Uiso   1.00
O1073  O     0.96042   0.56011   0.75000   0.00000  Uiso   1.00
O1074  O     0.96039   0.43988   0.75000   0.00000  Uiso   1.00
O1075  O     0.70628   0.56012   0.74999   0.00000  Uiso   1.00
O1076  O     0.68519   0.50001   0.81491   0.00000  Uiso   1.00
O1077  O     0.98148   0.49999   0.68508   0.00000  Uiso   1.00
O1078  O     0.93933   0.50000   0.81492   0.00000  Uiso   1.00
O1079  O     0.72733   0.50000   0.68508   0.00000  Uiso   1.00
O1080  O     0.94129   0.47024   0.55067   0.00000  Uiso   1.00
C1081  C     0.33318   0.75413   0.75151   0.00000  Uiso   1.00
C1082  C     0.03964   0.68925   0.72510   0.00000  Uiso   1.00
C1083  C     0.33327   0.95725   0.74716   0.00000  Uiso   1.00
C1084  C     0.00006   0.70941   0.75282   0.00000  Uiso   1.00
C1085  C     0.18466   0.80747   0.77826   0.00000  Uiso   1.00
C1086  C     0.14866   0.85921   0.72176   0.00000  Uiso   1.00
C1087  C     0.13529   0.80714   0.77869   0.00000  Uiso   1.00
C1088  C     0.19802   0.85957   0.72137   0.00000  Uiso   1.00
C1089  C     0.30620   0.83305   0.83618   0.00000  Uiso   1.00
C1090  C     0.02712   0.83394   0.66386   0.00000  Uiso   1.00
C1091  C     0.29117   0.83173   0.88574   0.00000  Uiso   1.00
C1092  C     0.00015   0.91253   0.74848   0.00000  Uiso   1.00
C1093  C     0.04229   0.83837   0.61450   0.00000  Uiso   1.00
C1094  C     0.30746   0.81728   0.95787   0.00000  Uiso   1.00
C1095  C     0.02881   0.86401   0.54421   0.00000  Uiso   1.00
C1096  C     0.32374   0.82194   0.91121   0.00000  Uiso   1.00
C1097  C     0.01149   0.85518   0.59017   0.00000  Uiso   1.00
C1098  C     0.24263   0.83856   0.90759   0.00000  Uiso   1.00
C1099  C     0.09017   0.82954   0.59228   0.00000  Uiso   1.00
C1100  C     0.22543   0.83580   0.95485   0.00000  Uiso   1.00
C1101  C     0.10952   0.84030   0.54640   0.00000  Uiso   1.00
C1102  C     0.25846   0.82337   0.98003   0.00000  Uiso   1.00
C1103  C     0.19351   0.82267   0.54836   0.00000  Uiso   1.00
C1104  C     0.07762   0.85710   0.52198   0.00000  Uiso   1.00
C1105  C     0.17613   0.84361   0.97735   0.00000  Uiso   1.00
C1106  C     0.15948   0.83507   0.52444   0.00000  Uiso   1.00
C1107  C     0.10519   0.77666   0.81197   0.00000  Uiso   1.00
C1108  C     0.22803   0.89022   0.68827   0.00000  Uiso   1.00
C1109  C     0.14334   0.86075   0.95434   0.00000  Uiso   1.00
C1110  C     0.24230   0.81677   0.52674   0.00000  Uiso   1.00
C1111  C     0.09473   0.86744   0.97605   0.00000  Uiso   1.00
C1112  C     0.29358   0.68662   0.77877   0.00000  Uiso   1.00
C1113  C     0.03974   0.98004   0.72120   0.00000  Uiso   1.00
C1114  C     0.29369   0.97742   0.77487   0.00000  Uiso   1.00
Cu1115 Cu    0.04689   0.83334   0.75000   0.00000  Uiso   1.00
Cu1116 Cu    0.28645   0.83333   0.75000   0.00000  Uiso   1.00
H1117  H     0.11146   0.81421   0.61204   0.00000  Uiso   1.00
H1118  H     0.06980   0.70684   0.70474   0.00000  Uiso   1.00
H1119  H     0.19801   0.78683   0.80078   0.00000  Uiso   1.00
H1120  H     0.13530   0.87987   0.69926   0.00000  Uiso   1.00
H1121  H     0.25767   0.79997   0.58305   0.00000  Uiso   1.00
H1122  H     0.08062   0.88913   0.92077   0.00000  Uiso   1.00
H1123  H     0.26481   0.73082   0.81861   0.00000  Uiso   1.00
H1124  H     0.06849   0.93584   0.68135   0.00000  Uiso   1.00
H1125  H     0.06695   0.77659   0.81338   0.00000  Uiso   1.00
H1126  H     0.11916   0.74491   0.80368   0.00000  Uiso   1.00
H1127  H     0.10803   0.78325   0.84638   0.00000  Uiso   1.00
H1128  H     0.21853   0.84447   0.88662   0.00000  Uiso   1.00
H1129  H     0.26632   0.89010   0.68666   0.00000  Uiso   1.00
H1130  H     0.22491   0.88397   0.65387   0.00000  Uiso   1.00
H1131  H     0.21418   0.92194   0.69694   0.00000  Uiso   1.00
H1132  H     0.30770   0.86240   0.60676   0.00000  Uiso   1.00
H1133  H     0.02812   0.81655   0.89503   0.00000  Uiso   1.00
H1134  H     0.00009   0.80838   0.97645   0.00000  Uiso   1.00
H1135  H     0.00395   0.87716   0.52639   0.00000  Uiso   1.00
H1136  H     0.18371   0.81833   0.58440   0.00000  Uiso   1.00
H1137  H     0.15478   0.87097   0.91958   0.00000  Uiso   1.00
H1138  H     0.26353   0.95982   0.79524   0.00000  Uiso   1.00
N1139  N     0.11736   0.83334   0.74999   0.00000  Uiso   1.00
N1140  N     0.21597   0.83332   0.75001   0.00000  Uiso   1.00
O1141  O     0.03958   0.77322   0.75000   0.00000  Uiso   1.00
O1142  O     0.06338   0.88445   0.95294   0.00000  Uiso   1.00
O1143  O     0.25481   0.70425   0.80900   0.00000  Uiso   1.00
O1144  O     0.07851   0.96241   0.69095   0.00000  Uiso   1.00
O1145  O     0.29375   0.89345   0.75000   0.00000  Uiso   1.00
O1146  O     0.29372   0.77321   0.75000   0.00000  Uiso   1.00
O1147  O     0.03961   0.89346   0.74999   0.00000  Uiso   1.00
O1148  O     0.01852   0.83334   0.81491   0.00000  Uiso   1.00
O1149  O     0.31481   0.83332   0.68508   0.00000  Uiso   1.00
O1150  O     0.27267   0.83333   0.81492   0.00000  Uiso   1.00
O1151  O     0.06067   0.83333   0.68508   0.00000  Uiso   1.00
O1152  O     0.27463   0.80358   0.55067   0.00000  Uiso   1.00
C1153  C     0.66652   0.75413   0.75151   0.00000  Uiso   1.00
C1154  C     0.37298   0.68925   0.72510   0.00000  Uiso   1.00
C1155  C     0.66660   0.95725   0.74716   0.00000  Uiso   1.00
C1156  C     0.33339   0.70941   0.75282   0.00000  Uiso   1.00
C1157  C     0.51800   0.80747   0.77826   0.00000  Uiso   1.00
C1158  C     0.48199   0.85921   0.72176   0.00000  Uiso   1.00
C1159  C     0.46862   0.80714   0.77869   0.00000  Uiso   1.00
C1160  C     0.53135   0.85957   0.72137   0.00000  Uiso   1.00
C1161  C     0.63953   0.83305   0.83618   0.00000  Uiso   1.00
C1162  C     0.36046   0.83394   0.66386   0.00000  Uiso   1.00
C1163  C     0.62450   0.83173   0.88574   0.00000  Uiso   1.00
C1164  C     0.33349   0.91253   0.74848   0.00000  Uiso   1.00
C1165  C     0.37562   0.83837   0.61450   0.00000  Uiso   1.00
C1166  C     0.64080   0.81728   0.95787   0.00000  Uiso   1.00
C1167  C     0.36215   0.86401   0.54421   0.00000  Uiso   1.00
C1168  C     0.65708   0.82194   0.91121   0.00000  Uiso   1.00
C1169  C     0.34483   0.85518   0.59017   0.00000  Uiso   1.00
C1170  C     0.57596   0.83856   0.90759   0.00000  Uiso   1.00
C1171  C     0.42351   0.82954   0.59228   0.00000  Uiso   1.00
C1172  C     0.55876   0.83580   0.95485   0.00000  Uiso   1.00
C1173  C     0.44286   0.84030   0.54640   0.00000  Uiso   1.00
C1174  C     0.59180   0.82337   0.98003   0.00000  Uiso   1.00
C1175  C     0.52684   0.82267   0.54836   0.00000  Uiso   1.00
C1176  C     0.41095   0.85710   0.52198   0.00000  Uiso   1.00
C1177  C     0.50947   0.84361   0.97735   0.00000  Uiso   1.00
C1178  C     0.49282   0.83507   0.52444   0.00000  Uiso   1.00
C1179  C     0.43852   0.77666   0.81197   0.00000  Uiso   1.00
C1180  C     0.56137   0.89022   0.68827   0.00000  Uiso   1.00
C1181  C     0.47668   0.86075   0.95434   0.00000  Uiso   1.00
C1182  C     0.57564   0.81677   0.52674   0.00000  Uiso   1.00
C1183  C     0.42806   0.86744   0.97605   0.00000  Uiso   1.00
C1184  C     0.62692   0.68662   0.77877   0.00000  Uiso   1.00
C1185  C     0.37308   0.98004   0.72120   0.00000  Uiso   1.00
C1186  C     0.62702   0.97742   0.77487   0.00000  Uiso   1.00
Cu1187 Cu    0.38022   0.83334   0.75000   0.00000  Uiso   1.00
Cu1188 Cu    0.61978   0.83333   0.75000   0.00000  Uiso   1.00
H1189  H     0.44479   0.81421   0.61204   0.00000  Uiso   1.00
H1190  H     0.40314   0.70684   0.70474   0.00000  Uiso   1.00
H1191  H     0.53134   0.78683   0.80078   0.00000  Uiso   1.00
H1192  H     0.46864   0.87987   0.69926   0.00000  Uiso   1.00
H1193  H     0.59100   0.79997   0.58305   0.00000  Uiso   1.00
H1194  H     0.41395   0.88913   0.92077   0.00000  Uiso   1.00
H1195  H     0.59814   0.73082   0.81861   0.00000  Uiso   1.00
H1196  H     0.40183   0.93584   0.68135   0.00000  Uiso   1.00
H1197  H     0.40029   0.77659   0.81338   0.00000  Uiso   1.00
H1198  H     0.45249   0.74491   0.80368   0.00000  Uiso   1.00
H1199  H     0.44137   0.78325   0.84638   0.00000  Uiso   1.00
H1200  H     0.55186   0.84447   0.88662   0.00000  Uiso   1.00
H1201  H     0.59965   0.89010   0.68666   0.00000  Uiso   1.00
H1202  H     0.55825   0.88397   0.65387   0.00000  Uiso   1.00
H1203  H     0.54751   0.92194   0.69694   0.00000  Uiso   1.00
H1204  H     0.64104   0.86240   0.60676   0.00000  Uiso   1.00
H1205  H     0.36146   0.81655   0.89503   0.00000  Uiso   1.00
H1206  H     0.33342   0.80838   0.97645   0.00000  Uiso   1.00
H1207  H     0.33728   0.87716   0.52639   0.00000  Uiso   1.00
H1208  H     0.51704   0.81833   0.58440   0.00000  Uiso   1.00
H1209  H     0.48812   0.87097   0.91958   0.00000  Uiso   1.00
H1210  H     0.59686   0.95982   0.79524   0.00000  Uiso   1.00
N1211  N     0.45069   0.83334   0.74999   0.00000  Uiso   1.00
N1212  N     0.54931   0.83332   0.75001   0.00000  Uiso   1.00
O1213  O     0.37291   0.77322   0.75000   0.00000  Uiso   1.00
O1214  O     0.39671   0.88445   0.95294   0.00000  Uiso   1.00
O1215  O     0.58814   0.70425   0.80900   0.00000  Uiso   1.00
O1216  O     0.41184   0.96241   0.69095   0.00000  Uiso   1.00
O1217  O     0.62709   0.89345   0.75000   0.00000  Uiso   1.00
O1218  O     0.62706   0.77321   0.75000   0.00000  Uiso   1.00
O1219  O     0.37294   0.89346   0.74999   0.00000  Uiso   1.00
O1220  O     0.35186   0.83334   0.81491   0.00000  Uiso   1.00
O1221  O     0.64814   0.83332   0.68508   0.00000  Uiso   1.00
O1222  O     0.60600   0.83333   0.81492   0.00000  Uiso   1.00
O1223  O     0.39400   0.83333   0.68508   0.00000  Uiso   1.00
O1224  O     0.60796   0.80358   0.55067   0.00000  Uiso   1.00
C1225  C     0.99985   0.75413   0.75151   0.00000  Uiso   1.00
C1226  C     0.70631   0.68925   0.72510   0.00000  Uiso   1.00
C1227  C     0.99994   0.95725   0.74716   0.00000  Uiso   1.00
C1228  C     0.66673   0.70941   0.75282   0.00000  Uiso   1.00
C1229  C     0.85133   0.80747   0.77826   0.00000  Uiso   1.00
C1230  C     0.81532   0.85921   0.72176   0.00000  Uiso   1.00
C1231  C     0.80196   0.80714   0.77869   0.00000  Uiso   1.00
C1232  C     0.86468   0.85957   0.72137   0.00000  Uiso   1.00
C1233  C     0.97286   0.83305   0.83618   0.00000  Uiso   1.00
C1234  C     0.69379   0.83394   0.66386   0.00000  Uiso   1.00
C1235  C     0.95784   0.83173   0.88574   0.00000  Uiso   1.00
C1236  C     0.66682   0.91253   0.74848   0.00000  Uiso   1.00
C1237  C     0.70895   0.83837   0.61450   0.00000  Uiso   1.00
C1238  C     0.97413   0.81728   0.95787   0.00000  Uiso   1.00
C1239  C     0.69548   0.86401   0.54421   0.00000  Uiso   1.00
C1240  C     0.99041   0.82194   0.91121   0.00000  Uiso   1.00
C1241  C     0.67816   0.85518   0.59017   0.00000  Uiso   1.00
C1242  C     0.90929   0.83856   0.90759   0.00000  Uiso   1.00
C1243  C     0.75684   0.82954   0.59228   0.00000  Uiso   1.00
C1244  C     0.89210   0.83580   0.95485   0.00000  Uiso   1.00
C1245  C     0.77619   0.84030   0.54640   0.00000  Uiso   1.00
C1246  C     0.92513   0.82337   0.98003   0.00000  Uiso   1.00
C1247  C     0.86018   0.82267   0.54836   0.00000  Uiso   1.00
C1248  C     0.74428   0.85710   0.52198   0.00000  Uiso   1.00
C1249  C     0.84280   0.84361   0.97735   0.00000  Uiso   1.00
C1250  C     0.82615   0.83507   0.52444   0.00000  Uiso   1.00
C1251  C     0.77185   0.77666   0.81197   0.00000  Uiso   1.00
C1252  C     0.89470   0.89022   0.68827   0.00000  Uiso   1.00
C1253  C     0.81001   0.86075   0.95434   0.00000  Uiso   1.00
C1254  C     0.90897   0.81677   0.52674   0.00000  Uiso   1.00
C1255  C     0.76139   0.86744   0.97605   0.00000  Uiso   1.00
C1256  C     0.96025   0.68662   0.77877   0.00000  Uiso   1.00
C1257  C     0.70641   0.98004   0.72120   0.00000  Uiso   1.00
C1258  C     0.96035   0.97742   0.77487   0.00000  Uiso   1.00
Cu1259 Cu    0.71355   0.83334   0.75000   0.00000  Uiso   1.00
Cu1260 Cu    0.95311   0.83333   0.75000   0.00000  Uiso   1.00
H1261  H     0.77813   0.81421   0.61204   0.00000  Uiso   1.00
H1262  H     0.73647   0.70684   0.70474   0.00000  Uiso   1.00
H1263  H     0.86467   0.78683   0.80078   0.00000  Uiso   1.00
H1264  H     0.80197   0.87987   0.69926   0.00000  Uiso   1.00
H1265  H     0.92433   0.79997   0.58305   0.00000  Uiso   1.00
H1266  H     0.74728   0.88913   0.92077   0.00000  Uiso   1.00
H1267  H     0.93148   0.73082   0.81861   0.00000  Uiso   1.00
H1268  H     0.73516   0.93584   0.68135   0.00000  Uiso   1.00
H1269  H     0.73362   0.77659   0.81338   0.00000  Uiso   1.00
H1270  H     0.78583   0.74491   0.80368   0.00000  Uiso   1.00
H1271  H     0.77470   0.78325   0.84638   0.00000  Uiso   1.00
H1272  H     0.88519   0.84447   0.88662   0.00000  Uiso   1.00
H1273  H     0.93298   0.89010   0.68666   0.00000  Uiso   1.00
H1274  H     0.89158   0.88397   0.65387   0.00000  Uiso   1.00
H1275  H     0.88085   0.92194   0.69694   0.00000  Uiso   1.00
H1276  H     0.97437   0.86240   0.60676   0.00000  Uiso   1.00
H1277  H     0.69479   0.81655   0.89503   0.00000  Uiso   1.00
H1278  H     0.66675   0.80838   0.97645   0.00000  Uiso   1.00
H1279  H     0.67062   0.87716   0.52639   0.00000  Uiso   1.00
H1280  H     0.85037   0.81833   0.58440   0.00000  Uiso   1.00
H1281  H     0.82145   0.87097   0.91958   0.00000  Uiso   1.00
H1282  H     0.93019   0.95982   0.79524   0.00000  Uiso   1.00
N1283  N     0.78403   0.83334   0.74999   0.00000  Uiso   1.00
N1284  N     0.88264   0.83332   0.75001   0.00000  Uiso   1.00
O1285  O     0.70625   0.77322   0.75000   0.00000  Uiso   1.00
O1286  O     0.73005   0.88445   0.95294   0.00000  Uiso   1.00
O1287  O     0.92147   0.70425   0.80900   0.00000  Uiso   1.00
O1288  O     0.74517   0.96241   0.69095   0.00000  Uiso   1.00
O1289  O     0.96042   0.89345   0.75000   0.00000  Uiso   1.00
O1290  O     0.96039   0.77321   0.75000   0.00000  Uiso   1.00
O1291  O     0.70628   0.89346   0.74999   0.00000  Uiso   1.00
O1292  O     0.68519   0.83334   0.81491   0.00000  Uiso   1.00
O1293  O     0.98148   0.83332   0.68508   0.00000  Uiso   1.00
O1294  O     0.93933   0.83333   0.81492   0.00000  Uiso   1.00
O1295  O     0.72733   0.83333   0.68508   0.00000  Uiso   1.00
O1296  O     0.94129   0.80358   0.55067   0.00000  Uiso   1.00
loop_
_geom_bond_atom_site_label_1
_geom_bond_atom_site_label_2
_geom_bond_distance
_geom_bond_site_symmetry_2
_ccdc_geom_bond_type
C1     O66     1.294   .     A
C1     C76     1.447   .     S
C1     O133    1.297   .     S
C2     H38     1.085   .     S
C2     C4      1.398   .     A
C2     C465    1.386   1_545 S
C3     C34     1.398   .     A
C3     C84     1.446   .     S
C3     C105    1.414   .     S
C4     C145    1.447   1_455 S
C4     C176    1.414   1_455 S
C5     H39     1.083   .     S
C5     C7      1.417   .     A
C5     N60     1.353   .     A
C6     H40     1.083   .     S
C6     C8      1.417   .     A
C6     N59     1.353   .     A
C7     N59     1.392   .     A
C7     C27     1.505   .     S
C8     C28     1.505   .     S
C8     N60     1.392   .     A
C9     C11     1.471   .     S
C9     O70     1.299   .     A
C9     O140    1.305   .     S
C10    O71     1.298   .     A
C10    C13     1.469   .     S
C10    O213    1.305   1_455 S
C11    C18     1.400   .     A
C11    C16     1.396   .     A
C12    O67     1.294   .     A
C12    C147    1.446   1_455 S
C12    O209    1.297   1_455 S
C13    C17     1.395   .     A
C13    C19     1.398   .     A
C14    C22     1.410   .     A
C14    C16     1.392   .     A
C14    H126    1.083   .     S
C15    C24     1.409   .     A
C15    H55     1.083   .     S
C15    C17     1.392   .     A
C16    H125    1.083   .     S
C17    H196    1.082   1_455 S
C18    C20     1.408   .     A
C18    H48     1.075   .     S
C19    C21     1.409   .     A
C19    H37     1.075   .     S
C20    C25     1.429   .     A
C20    C22     1.420   .     A
C21    C26     1.429   .     A
C21    C24     1.421   .     A
C22    C678    1.400   .     S
C23    C30     1.400   .     A
C23    H56     1.075   .     S
C23    C26     1.416   .     A
C24    C679    1.400   1_554 S
C25    C29     1.416   .     A
C25    C674    1.420   .     S
C26    C673    1.420   1_554 S
C27    H45     1.089   .     S
C27    H46     1.111   .     S
C27    H47     1.111   .     S
C28    H49     1.089   .     S
C28    H51     1.111   .     S
C28    H50     1.111   .     S
C29    C31     1.400   .     A
C29    H57     1.075   .     S
C30    O72     1.383   .     S
C30    C670    1.400   1_554 S
C31    O62     1.384   .     S
C31    C672    1.400   .     S
C32    O63     1.381   .     S
C32    C76     1.414   .     S
C32    C466    1.386   1_545 S
C33    O64     1.381   .     S
C33    C147    1.414   1_455 S
C33    C218    1.386   .     S
C34    H58     1.085   .     S
C34    C248    1.386   .     S
Cu35   N59     2.027   .     S
Cu35   O67     1.954   .     S
Cu35   O71     1.932   .     S
Cu35   O68     1.949   .     S
Cu35   O61     1.960   .     S
Cu35   Cu180   2.697   1_455 S
Cu36   O66     1.954   .     S
Cu36   O65     1.960   .     S
Cu36   O69     1.949   .     S
Cu36   O70     1.932   .     S
Cu36   N60     2.027   .     S
Cu36   Cu107   2.697   .     S
H41    O72     0.992   .     S
H42    O62     0.991   .     S
H43    O63     0.990   .     S
H44    O64     0.990   .     S
H52    C89     1.082   .     S
H53    C160    1.083   1_455 S
H54    C158    1.083   1_455 S
O61    C145    1.297   1_455 S
O65    C84     1.297   .     S
O68    C153    1.305   1_455 S
O69    C82     1.305   .     S
C73    O138    1.294   .     A
C73    C148    1.447   .     S
C73    O205    1.297   .     S
C74    H110    1.085   .     S
C74    C76     1.398   .     A
C74    C537    1.386   1_545 S
C75    C106    1.398   .     A
C75    C156    1.446   .     S
C75    C177    1.414   .     S
C77    H111    1.083   .     S
C77    C79     1.417   .     A
C77    N132    1.353   .     A
C78    H112    1.083   .     S
C78    C80     1.417   .     A
C78    N131    1.353   .     A
C79    N131    1.392   .     A
C79    C99     1.505   .     S
C80    C100    1.505   .     S
C80    N132    1.392   .     A
C81    C83     1.471   .     S
C81    O142    1.299   .     A
C81    O212    1.305   .     S
C82    O143    1.298   .     A
C82    C85     1.469   .     S
C83    C90     1.400   .     A
C83    C88     1.396   .     A
C84    O139    1.294   .     A
C85    C89     1.395   .     A
C85    C91     1.398   .     A
C86    C94     1.410   .     A
C86    C88     1.392   .     A
C86    H198    1.083   .     S
C87    C96     1.409   .     A
C87    H127    1.083   .     S
C87    C89     1.392   .     A
C88    H197    1.083   .     S
C90    C92     1.408   .     A
C90    H120    1.075   .     S
C91    C93     1.409   .     A
C91    H109    1.075   .     S
C92    C97     1.429   .     A
C92    C94     1.420   .     A
C93    C98     1.429   .     A
C93    C96     1.421   .     A
C94    C750    1.400   .     S
C95    C102    1.400   .     A
C95    H128    1.075   .     S
C95    C98     1.416   .     A
C96    C751    1.400   1_554 S
C97    C101    1.416   .     A
C97    C746    1.420   .     S
C98    C745    1.420   1_554 S
C99    H117    1.089   .     S
C99    H118    1.111   .     S
C99    H119    1.111   .     S
C100   H121    1.089   .     S
C100   H123    1.111   .     S
C100   H122    1.111   .     S
C101   C103    1.400   .     A
C101   H129    1.075   .     S
C102   O144    1.383   .     S
C102   C742    1.400   1_554 S
C103   O134    1.384   .     S
C103   C744    1.400   .     S
C104   O135    1.381   .     S
C104   C148    1.414   .     S
C104   C538    1.386   1_545 S
C105   O136    1.381   .     S
C105   C290    1.386   .     S
C106   H130    1.085   .     S
C106   C320    1.386   .     S
Cu107  N131    2.027   .     S
Cu107  O139    1.954   .     S
Cu107  O143    1.932   .     S
Cu107  O140    1.949   .     S
Cu107  O133    1.960   .     S
Cu108  O138    1.954   .     S
Cu108  O137    1.960   .     S
Cu108  O141    1.949   .     S
Cu108  O142    1.932   .     S
Cu108  N132    2.027   .     S
Cu108  Cu179   2.697   .     S
H113   O144    0.992   .     S
H114   O134    0.991   .     S
H115   O135    0.990   .     S
H116   O136    0.990   .     S
H124   C161    1.082   .     S
O137   C156    1.297   .     S
O141   C154    1.305   .     S
C145   O210    1.294   .     A
C145   C4      1.447   1_655 S
C145   O61     1.297   1_655 S
C146   H182    1.085   .     S
C146   C148    1.398   .     A
C146   C609    1.386   1_545 S
C147   C178    1.398   .     A
C147   C12     1.446   1_655 S
C147   C33     1.414   1_655 S
C149   H183    1.083   .     S
C149   C151    1.417   .     A
C149   N204    1.353   .     A
C150   H184    1.083   .     S
C150   C152    1.417   .     A
C150   N203    1.353   .     A
C151   N203    1.392   .     A
C151   C171    1.505   .     S
C152   C172    1.505   .     S
C152   N204    1.392   .     A
C153   C155    1.471   .     S
C153   O214    1.299   .     A
C153   O68     1.305   1_655 S
C154   O215    1.298   .     A
C154   C157    1.469   .     S
C155   C162    1.400   .     A
C155   C160    1.396   .     A
C156   O211    1.294   .     A
C157   C161    1.395   .     A
C157   C163    1.398   .     A
C158   C166    1.410   .     A
C158   C160    1.392   .     A
C158   H54     1.083   1_655 S
C159   C168    1.409   .     A
C159   H199    1.083   .     S
C159   C161    1.392   .     A
C160   H53     1.083   1_655 S
C162   C164    1.408   .     A
C162   H192    1.075   .     S
C163   C165    1.409   .     A
C163   H181    1.075   .     S
C164   C169    1.429   .     A
C164   C166    1.420   .     A
C165   C170    1.429   .     A
C165   C168    1.421   .     A
C166   C822    1.400   .     S
C167   C174    1.400   .     A
C167   H200    1.075   .     S
C167   C170    1.416   .     A
C168   C823    1.400   1_554 S
C169   C173    1.416   .     A
C169   C818    1.420   .     S
C170   C817    1.420   1_554 S
C171   H189    1.089   .     S
C171   H190    1.111   .     S
C171   H191    1.111   .     S
C172   H193    1.089   .     S
C172   H195    1.111   .     S
C172   H194    1.111   .     S
C173   C175    1.400   .     A
C173   H201    1.075   .     S
C174   O216    1.383   .     S
C174   C814    1.400   1_554 S
C175   O206    1.384   .     S
C175   C816    1.400   .     S
C176   O207    1.381   .     S
C176   C4      1.414   1_655 S
C176   C610    1.386   1_545 S
C177   O208    1.381   .     S
C177   C362    1.386   .     S
C178   H202    1.085   .     S
C178   C392    1.386   .     S
Cu179  N203    2.027   .     S
Cu179  O211    1.954   .     S
Cu179  O215    1.932   .     S
Cu179  O212    1.949   .     S
Cu179  O205    1.960   .     S
Cu180  O210    1.954   .     S
Cu180  O209    1.960   .     S
Cu180  O213    1.949   .     S
Cu180  O214    1.932   .     S
Cu180  N204    2.027   .     S
Cu180  Cu35    2.697   1_655 S
H185   O216    0.992   .     S
H186   O206    0.991   .     S
H187   O207    0.990   .     S
H188   O208    0.990   .     S
H196   C17     1.082   1_655 S
O209   C12     1.297   1_655 S
O213   C10     1.305   1_655 S
C217   O282    1.294   .     A
C217   C292    1.447   .     S
C217   O349    1.297   .     S
C218   H254    1.085   .     S
C218   C220    1.398   .     A
C219   C250    1.398   .     A
C219   C300    1.446   .     S
C219   C321    1.414   .     S
C220   C361    1.447   1_455 S
C220   C392    1.414   1_455 S
C221   H255    1.083   .     S
C221   C223    1.417   .     A
C221   N276    1.353   .     A
C222   H256    1.083   .     S
C222   C224    1.417   .     A
C222   N275    1.353   .     A
C223   N275    1.392   .     A
C223   C243    1.505   .     S
C224   C244    1.505   .     S
C224   N276    1.392   .     A
C225   C227    1.471   .     S
C225   O286    1.299   .     A
C225   O356    1.305   .     S
C226   O287    1.298   .     A
C226   C229    1.469   .     S
C226   O429    1.305   1_455 S
C227   C234    1.400   .     A
C227   C232    1.396   .     A
C228   O283    1.294   .     A
C228   C363    1.446   1_455 S
C228   O425    1.297   1_455 S
C229   C233    1.395   .     A
C229   C235    1.398   .     A
C230   C238    1.410   .     A
C230   C232    1.392   .     A
C230   H342    1.083   .     S
C231   C240    1.409   .     A
C231   H271    1.083   .     S
C231   C233    1.392   .     A
C232   H341    1.083   .     S
C233   H412    1.082   1_455 S
C234   C236    1.408   .     A
C234   H264    1.075   .     S
C235   C237    1.409   .     A
C235   H253    1.075   .     S
C236   C241    1.429   .     A
C236   C238    1.420   .     A
C237   C242    1.429   .     A
C237   C240    1.421   .     A
C238   C894    1.400   .     S
C239   C246    1.400   .     A
C239   H272    1.075   .     S
C239   C242    1.416   .     A
C240   C895    1.400   1_554 S
C241   C245    1.416   .     A
C241   C890    1.420   .     S
C242   C889    1.420   1_554 S
C243   H261    1.089   .     S
C243   H262    1.111   .     S
C243   H263    1.111   .     S
C244   H265    1.089   .     S
C244   H267    1.111   .     S
C244   H266    1.111   .     S
C245   C247    1.400   .     A
C245   H273    1.075   .     S
C246   O288    1.383   .     S
C246   C886    1.400   1_554 S
C247   O278    1.384   .     S
C247   C888    1.400   .     S
C248   O279    1.381   .     S
C248   C292    1.414   .     S
C249   O280    1.381   .     S
C249   C363    1.414   1_455 S
C249   C434    1.386   .     S
C250   H274    1.085   .     S
C250   C464    1.386   .     S
Cu251  N275    2.027   .     S
Cu251  O283    1.954   .     S
Cu251  O287    1.932   .     S
Cu251  O284    1.949   .     S
Cu251  O277    1.960   .     S
Cu251  Cu396   2.697   1_455 S
Cu252  O282    1.954   .     S
Cu252  O281    1.960   .     S
Cu252  O285    1.949   .     S
Cu252  O286    1.932   .     S
Cu252  N276    2.027   .     S
Cu252  Cu323   2.697   .     S
H257   O288    0.992   .     S
H258   O278    0.991   .     S
H259   O279    0.990   .     S
H260   O280    0.990   .     S
H268   C305    1.082   .     S
H269   C376    1.083   1_455 S
H270   C374    1.083   1_455 S
O277   C361    1.297   1_455 S
O281   C300    1.297   .     S
O284   C369    1.305   1_455 S
O285   C298    1.305   .     S
C289   O354    1.294   .     A
C289   C364    1.447   .     S
C289   O421    1.297   .     S
C290   H326    1.085   .     S
C290   C292    1.398   .     A
C291   C322    1.398   .     A
C291   C372    1.446   .     S
C291   C393    1.414   .     S
C293   H327    1.083   .     S
C293   C295    1.417   .     A
C293   N348    1.353   .     A
C294   H328    1.083   .     S
C294   C296    1.417   .     A
C294   N347    1.353   .     A
C295   N347    1.392   .     A
C295   C315    1.505   .     S
C296   C316    1.505   .     S
C296   N348    1.392   .     A
C297   C299    1.471   .     S
C297   O358    1.299   .     A
C297   O428    1.305   .     S
C298   O359    1.298   .     A
C298   C301    1.469   .     S
C299   C306    1.400   .     A
C299   C304    1.396   .     A
C300   O355    1.294   .     A
C301   C305    1.395   .     A
C301   C307    1.398   .     A
C302   C310    1.410   .     A
C302   C304    1.392   .     A
C302   H414    1.083   .     S
C303   C312    1.409   .     A
C303   H343    1.083   .     S
C303   C305    1.392   .     A
C304   H413    1.083   .     S
C306   C308    1.408   .     A
C306   H336    1.075   .     S
C307   C309    1.409   .     A
C307   H325    1.075   .     S
C308   C313    1.429   .     A
C308   C310    1.420   .     A
C309   C314    1.429   .     A
C309   C312    1.421   .     A
C310   C966    1.400   .     S
C311   C318    1.400   .     A
C311   H344    1.075   .     S
C311   C314    1.416   .     A
C312   C967    1.400   1_554 S
C313   C317    1.416   .     A
C313   C962    1.420   .     S
C314   C961    1.420   1_554 S
C315   H333    1.089   .     S
C315   H334    1.111   .     S
C315   H335    1.111   .     S
C316   H337    1.089   .     S
C316   H339    1.111   .     S
C316   H338    1.111   .     S
C317   C319    1.400   .     A
C317   H345    1.075   .     S
C318   O360    1.383   .     S
C318   C958    1.400   1_554 S
C319   O350    1.384   .     S
C319   C960    1.400   .     S
C320   O351    1.381   .     S
C320   C364    1.414   .     S
C321   O352    1.381   .     S
C321   C506    1.386   .     S
C322   H346    1.085   .     S
C322   C536    1.386   .     S
Cu323  N347    2.027   .     S
Cu323  O355    1.954   .     S
Cu323  O359    1.932   .     S
Cu323  O356    1.949   .     S
Cu323  O349    1.960   .     S
Cu324  O354    1.954   .     S
Cu324  O353    1.960   .     S
Cu324  O357    1.949   .     S
Cu324  O358    1.932   .     S
Cu324  N348    2.027   .     S
Cu324  Cu395   2.697   .     S
H329   O360    0.992   .     S
H330   O350    0.991   .     S
H331   O351    0.990   .     S
H332   O352    0.990   .     S
H340   C377    1.082   .     S
O353   C372    1.297   .     S
O357   C370    1.305   .     S
C361   O426    1.294   .     A
C361   C220    1.447   1_655 S
C361   O277    1.297   1_655 S
C362   H398    1.085   .     S
C362   C364    1.398   .     A
C363   C394    1.398   .     A
C363   C228    1.446   1_655 S
C363   C249    1.414   1_655 S
C365   H399    1.083   .     S
C365   C367    1.417   .     A
C365   N420    1.353   .     A
C366   H400    1.083   .     S
C366   C368    1.417   .     A
C366   N419    1.353   .     A
C367   N419    1.392   .     A
C367   C387    1.505   .     S
C368   C388    1.505   .     S
C368   N420    1.392   .     A
C369   C371    1.471   .     S
C369   O430    1.299   .     A
C369   O284    1.305   1_655 S
C370   O431    1.298   .     A
C370   C373    1.469   .     S
C371   C378    1.400   .     A
C371   C376    1.396   .     A
C372   O427    1.294   .     A
C373   C377    1.395   .     A
C373   C379    1.398   .     A
C374   C382    1.410   .     A
C374   C376    1.392   .     A
C374   H270    1.083   1_655 S
C375   C384    1.409   .     A
C375   H415    1.083   .     S
C375   C377    1.392   .     A
C376   H269    1.083   1_655 S
C378   C380    1.408   .     A
C378   H408    1.075   .     S
C379   C381    1.409   .     A
C379   H397    1.075   .     S
C380   C385    1.429   .     A
C380   C382    1.420   .     A
C381   C386    1.429   .     A
C381   C384    1.421   .     A
C382   C1038   1.400   .     S
C383   C390    1.400   .     A
C383   H416    1.075   .     S
C383   C386    1.416   .     A
C384   C1039   1.400   1_554 S
C385   C389    1.416   .     A
C385   C1034   1.420   .     S
C386   C1033   1.420   1_554 S
C387   H405    1.089   .     S
C387   H406    1.111   .     S
C387   H407    1.111   .     S
C388   H409    1.089   .     S
C388   H411    1.111   .     S
C388   H410    1.111   .     S
C389   C391    1.400   .     A
C389   H417    1.075   .     S
C390   O432    1.383   .     S
C390   C1030   1.400   1_554 S
C391   O422    1.384   .     S
C391   C1032   1.400   .     S
C392   O423    1.381   .     S
C392   C220    1.414   1_655 S
C393   O424    1.381   .     S
C393   C578    1.386   .     S
C394   H418    1.085   .     S
C394   C608    1.386   .     S
Cu395  N419    2.027   .     S
Cu395  O427    1.954   .     S
Cu395  O431    1.932   .     S
Cu395  O428    1.949   .     S
Cu395  O421    1.960   .     S
Cu396  O426    1.954   .     S
Cu396  O425    1.960   .     S
Cu396  O429    1.949   .     S
Cu396  O430    1.932   .     S
Cu396  N420    2.027   .     S
Cu396  Cu251   2.697   1_655 S
H401   O432    0.992   .     S
H402   O422    0.991   .     S
H403   O423    0.990   .     S
H404   O424    0.990   .     S
H412   C233    1.082   1_655 S
O425   C228    1.297   1_655 S
O429   C226    1.305   1_655 S
C433   O498    1.294   .     A
C433   C508    1.447   .     S
C433   O565    1.297   .     S
C434   H470    1.085   .     S
C434   C436    1.398   .     A
C435   C466    1.398   .     A
C435   C516    1.446   .     S
C435   C537    1.414   .     S
C436   C577    1.447   1_455 S
C436   C608    1.414   1_455 S
C437   H471    1.083   .     S
C437   C439    1.417   .     A
C437   N492    1.353   .     A
C438   H472    1.083   .     S
C438   C440    1.417   .     A
C438   N491    1.353   .     A
C439   N491    1.392   .     A
C439   C459    1.505   .     S
C440   C460    1.505   .     S
C440   N492    1.392   .     A
C441   C443    1.471   .     S
C441   O502    1.299   .     A
C441   O572    1.305   .     S
C442   O503    1.298   .     A
C442   C445    1.469   .     S
C442   O645    1.305   1_455 S
C443   C450    1.400   .     A
C443   C448    1.396   .     A
C444   O499    1.294   .     A
C444   C579    1.446   1_455 S
C444   O641    1.297   1_455 S
C445   C449    1.395   .     A
C445   C451    1.398   .     A
C446   C454    1.410   .     A
C446   C448    1.392   .     A
C446   H558    1.083   .     S
C447   C456    1.409   .     A
C447   H487    1.083   .     S
C447   C449    1.392   .     A
C448   H557    1.083   .     S
C449   H628    1.082   1_455 S
C450   C452    1.408   .     A
C450   H480    1.075   .     S
C451   C453    1.409   .     A
C451   H469    1.075   .     S
C452   C457    1.429   .     A
C452   C454    1.420   .     A
C453   C458    1.429   .     A
C453   C456    1.421   .     A
C454   C1110   1.400   .     S
C455   C462    1.400   .     A
C455   H488    1.075   .     S
C455   C458    1.416   .     A
C456   C1111   1.400   1_554 S
C457   C461    1.416   .     A
C457   C1106   1.420   .     S
C458   C1105   1.420   1_554 S
C459   H477    1.089   .     S
C459   H478    1.111   .     S
C459   H479    1.111   .     S
C460   H481    1.089   .     S
C460   H483    1.111   .     S
C460   H482    1.111   .     S
C461   C463    1.400   .     A
C461   H489    1.075   .     S
C462   O504    1.383   .     S
C462   C1102   1.400   1_554 S
C463   O494    1.384   .     S
C463   C1104   1.400   .     S
C464   O495    1.381   .     S
C464   C508    1.414   .     S
C465   O496    1.381   .     S
C465   C579    1.414   1_455 S
C465   C2      1.386   1_565 S
C466   H490    1.085   .     S
C466   C32     1.386   1_565 S
Cu467  N491    2.027   .     S
Cu467  O499    1.954   .     S
Cu467  O503    1.932   .     S
Cu467  O500    1.949   .     S
Cu467  O493    1.960   .     S
Cu467  Cu612   2.697   1_455 S
Cu468  O498    1.954   .     S
Cu468  O497    1.960   .     S
Cu468  O501    1.949   .     S
Cu468  O502    1.932   .     S
Cu468  N492    2.027   .     S
Cu468  Cu539   2.697   .     S
H473   O504    0.992   .     S
H474   O494    0.991   .     S
H475   O495    0.990   .     S
H476   O496    0.990   .     S
H484   C521    1.082   .     S
H485   C592    1.083   1_455 S
H486   C590    1.083   1_455 S
O493   C577    1.297   1_455 S
O497   C516    1.297   .     S
O500   C585    1.305   1_455 S
O501   C514    1.305   .     S
C505   O570    1.294   .     A
C505   C580    1.447   .     S
C505   O637    1.297   .     S
C506   H542    1.085   .     S
C506   C508    1.398   .     A
C507   C538    1.398   .     A
C507   C588    1.446   .     S
C507   C609    1.414   .     S
C509   H543    1.083   .     S
C509   C511    1.417   .     A
C509   N564    1.353   .     A
C510   H544    1.083   .     S
C510   C512    1.417   .     A
C510   N563    1.353   .     A
C511   N563    1.392   .     A
C511   C531    1.505   .     S
C512   C532    1.505   .     S
C512   N564    1.392   .     A
C513   C515    1.471   .     S
C513   O574    1.299   .     A
C513   O644    1.305   .     S
C514   O575    1.298   .     A
C514   C517    1.469   .     S
C515   C522    1.400   .     A
C515   C520    1.396   .     A
C516   O571    1.294   .     A
C517   C521    1.395   .     A
C517   C523    1.398   .     A
C518   C526    1.410   .     A
C518   C520    1.392   .     A
C518   H630    1.083   .     S
C519   C528    1.409   .     A
C519   H559    1.083   .     S
C519   C521    1.392   .     A
C520   H629    1.083   .     S
C522   C524    1.408   .     A
C522   H552    1.075   .     S
C523   C525    1.409   .     A
C523   H541    1.075   .     S
C524   C529    1.429   .     A
C524   C526    1.420   .     A
C525   C530    1.429   .     A
C525   C528    1.421   .     A
C526   C1182   1.400   .     S
C527   C534    1.400   .     A
C527   H560    1.075   .     S
C527   C530    1.416   .     A
C528   C1183   1.400   1_554 S
C529   C533    1.416   .     A
C529   C1178   1.420   .     S
C530   C1177   1.420   1_554 S
C531   H549    1.089   .     S
C531   H550    1.111   .     S
C531   H551    1.111   .     S
C532   H553    1.089   .     S
C532   H555    1.111   .     S
C532   H554    1.111   .     S
C533   C535    1.400   .     A
C533   H561    1.075   .     S
C534   O576    1.383   .     S
C534   C1174   1.400   1_554 S
C535   O566    1.384   .     S
C535   C1176   1.400   .     S
C536   O567    1.381   .     S
C536   C580    1.414   .     S
C537   O568    1.381   .     S
C537   C74     1.386   1_565 S
C538   H562    1.085   .     S
C538   C104    1.386   1_565 S
Cu539  N563    2.027   .     S
Cu539  O571    1.954   .     S
Cu539  O575    1.932   .     S
Cu539  O572    1.949   .     S
Cu539  O565    1.960   .     S
Cu540  O570    1.954   .     S
Cu540  O569    1.960   .     S
Cu540  O573    1.949   .     S
Cu540  O574    1.932   .     S
Cu540  N564    2.027   .     S
Cu540  Cu611   2.697   .     S
H545   O576    0.992   .     S
H546   O566    0.991   .     S
H547   O567    0.990   .     S
H548   O568    0.990   .     S
H556   C593    1.082   .     S
O569   C588    1.297   .     S
O573   C586    1.305   .     S
C577   O642    1.294   .     A
C577   C436    1.447   1_655 S
C577   O493    1.297   1_655 S
C578   H614    1.085   .     S
C578   C580    1.398   .     A
C579   C610    1.398   .     A
C579   C444    1.446   1_655 S
C579   C465    1.414   1_655 S
C581   H615    1.083   .     S
C581   C583    1.417   .     A
C581   N636    1.353   .     A
C582   H616    1.083   .     S
C582   C584    1.417   .     A
C582   N635    1.353   .     A
C583   N635    1.392   .     A
C583   C603    1.505   .     S
C584   C604    1.505   .     S
C584   N636    1.392   .     A
C585   C587    1.471   .     S
C585   O646    1.299   .     A
C585   O500    1.305   1_655 S
C586   O647    1.298   .     A
C586   C589    1.469   .     S
C587   C594    1.400   .     A
C587   C592    1.396   .     A
C588   O643    1.294   .     A
C589   C593    1.395   .     A
C589   C595    1.398   .     A
C590   C598    1.410   .     A
C590   C592    1.392   .     A
C590   H486    1.083   1_655 S
C591   C600    1.409   .     A
C591   H631    1.083   .     S
C591   C593    1.392   .     A
C592   H485    1.083   1_655 S
C594   C596    1.408   .     A
C594   H624    1.075   .     S
C595   C597    1.409   .     A
C595   H613    1.075   .     S
C596   C601    1.429   .     A
C596   C598    1.420   .     A
C597   C602    1.429   .     A
C597   C600    1.421   .     A
C598   C1254   1.400   .     S
C599   C606    1.400   .     A
C599   H632    1.075   .     S
C599   C602    1.416   .     A
C600   C1255   1.400   1_554 S
C601   C605    1.416   .     A
C601   C1250   1.420   .     S
C602   C1249   1.420   1_554 S
C603   H621    1.089   .     S
C603   H622    1.111   .     S
C603   H623    1.111   .     S
C604   H625    1.089   .     S
C604   H627    1.111   .     S
C604   H626    1.111   .     S
C605   C607    1.400   .     A
C605   H633    1.075   .     S
C606   O648    1.383   .     S
C606   C1246   1.400   1_554 S
C607   O638    1.384   .     S
C607   C1248   1.400   .     S
C608   O639    1.381   .     S
C608   C436    1.414   1_655 S
C609   O640    1.381   .     S
C609   C146    1.386   1_565 S
C610   H634    1.085   .     S
C610   C176    1.386   1_565 S
Cu611  N635    2.027   .     S
Cu611  O643    1.954   .     S
Cu611  O647    1.932   .     S
Cu611  O644    1.949   .     S
Cu611  O637    1.960   .     S
Cu612  O642    1.954   .     S
Cu612  O641    1.960   .     S
Cu612  O645    1.949   .     S
Cu612  O646    1.932   .     S
Cu612  N636    2.027   .     S
Cu612  Cu467   2.697   1_655 S
H617   O648    0.992   .     S
H618   O638    0.991   .     S
H619   O639    0.990   .     S
H620   O640    0.990   .     S
H628   C449    1.082   1_655 S
O641   C444    1.297   1_655 S
O645   C442    1.305   1_655 S
C649   O714    1.294   .     A
C649   C724    1.447   .     S
C649   O781    1.297   .     S
C650   H686    1.085   .     S
C650   C652    1.398   .     A
C650   C1113   1.386   1_545 S
C651   C682    1.398   .     A
C651   C732    1.446   .     S
C651   C753    1.414   .     S
C652   C793    1.447   1_455 S
C652   C824    1.414   1_455 S
C653   H687    1.083   .     S
C653   C655    1.417   .     A
C653   N708    1.353   .     A
C654   H688    1.083   .     S
C654   C656    1.417   .     A
C654   N707    1.353   .     A
C655   N707    1.392   .     A
C655   C675    1.505   .     S
C656   C676    1.505   .     S
C656   N708    1.392   .     A
C657   C659    1.471   .     S
C657   O718    1.299   .     A
C657   O788    1.305   .     S
C658   O719    1.298   .     A
C658   C661    1.469   .     S
C658   O861    1.305   1_455 S
C659   C666    1.400   .     A
C659   C664    1.396   .     A
C660   O715    1.294   .     A
C660   C795    1.446   1_455 S
C660   O857    1.297   1_455 S
C661   C665    1.395   .     A
C661   C667    1.398   .     A
C662   C670    1.410   .     A
C662   C664    1.392   .     A
C662   H774    1.083   .     S
C663   C672    1.409   .     A
C663   H703    1.083   .     S
C663   C665    1.392   .     A
C664   H773    1.083   .     S
C665   H844    1.082   1_455 S
C666   C668    1.408   .     A
C666   H696    1.075   .     S
C667   C669    1.409   .     A
C667   H685    1.075   .     S
C668   C673    1.429   .     A
C668   C670    1.420   .     A
C669   C674    1.429   .     A
C669   C672    1.421   .     A
C670   C30     1.400   1_556 S
C671   C678    1.400   .     A
C671   H704    1.075   .     S
C671   C674    1.416   .     A
C673   C677    1.416   .     A
C673   C26     1.420   1_556 S
C675   H693    1.089   .     S
C675   H694    1.111   .     S
C675   H695    1.111   .     S
C676   H697    1.089   .     S
C676   H699    1.111   .     S
C676   H698    1.111   .     S
C677   C679    1.400   .     A
C677   H705    1.075   .     S
C678   O720    1.383   .     S
C679   O710    1.384   .     S
C679   C24     1.400   1_556 S
C680   O711    1.381   .     S
C680   C724    1.414   .     S
C680   C1114   1.386   1_545 S
C681   O712    1.381   .     S
C681   C795    1.414   1_455 S
C681   C866    1.386   .     S
C682   H706    1.085   .     S
C682   C896    1.386   .     S
Cu683  N707    2.027   .     S
Cu683  O715    1.954   .     S
Cu683  O719    1.932   .     S
Cu683  O716    1.949   .     S
Cu683  O709    1.960   .     S
Cu683  Cu828   2.697   1_455 S
Cu684  O714    1.954   .     S
Cu684  O713    1.960   .     S
Cu684  O717    1.949   .     S
Cu684  O718    1.932   .     S
Cu684  N708    2.027   .     S
Cu684  Cu755   2.697   .     S
H689   O720    0.992   .     S
H690   O710    0.991   .     S
H691   O711    0.990   .     S
H692   O712    0.990   .     S
H700   C737    1.082   .     S
H701   C808    1.083   1_455 S
H702   C806    1.083   1_455 S
O709   C793    1.297   1_455 S
O713   C732    1.297   .     S
O716   C801    1.305   1_455 S
O717   C730    1.305   .     S
C721   O786    1.294   .     A
C721   C796    1.447   .     S
C721   O853    1.297   .     S
C722   H758    1.085   .     S
C722   C724    1.398   .     A
C722   C1185   1.386   1_545 S
C723   C754    1.398   .     A
C723   C804    1.446   .     S
C723   C825    1.414   .     S
C725   H759    1.083   .     S
C725   C727    1.417   .     A
C725   N780    1.353   .     A
C726   H760    1.083   .     S
C726   C728    1.417   .     A
C726   N779    1.353   .     A
C727   N779    1.392   .     A
C727   C747    1.505   .     S
C728   C748    1.505   .     S
C728   N780    1.392   .     A
C729   C731    1.471   .     S
C729   O790    1.299   .     A
C729   O860    1.305   .     S
C730   O791    1.298   .     A
C730   C733    1.469   .     S
C731   C738    1.400   .     A
C731   C736    1.396   .     A
C732   O787    1.294   .     A
C733   C737    1.395   .     A
C733   C739    1.398   .     A
C734   C742    1.410   .     A
C734   C736    1.392   .     A
C734   H846    1.083   .     S
C735   C744    1.409   .     A
C735   H775    1.083   .     S
C735   C737    1.392   .     A
C736   H845    1.083   .     S
C738   C740    1.408   .     A
C738   H768    1.075   .     S
C739   C741    1.409   .     A
C739   H757    1.075   .     S
C740   C745    1.429   .     A
C740   C742    1.420   .     A
C741   C746    1.429   .     A
C741   C744    1.421   .     A
C742   C102    1.400   1_556 S
C743   C750    1.400   .     A
C743   H776    1.075   .     S
C743   C746    1.416   .     A
C745   C749    1.416   .     A
C745   C98     1.420   1_556 S
C747   H765    1.089   .     S
C747   H766    1.111   .     S
C747   H767    1.111   .     S
C748   H769    1.089   .     S
C748   H771    1.111   .     S
C748   H770    1.111   .     S
C749   C751    1.400   .     A
C749   H777    1.075   .     S
C750   O792    1.383   .     S
C751   O782    1.384   .     S
C751   C96     1.400   1_556 S
C752   O783    1.381   .     S
C752   C796    1.414   .     S
C752   C1186   1.386   1_545 S
C753   O784    1.381   .     S
C753   C938    1.386   .     S
C754   H778    1.085   .     S
C754   C968    1.386   .     S
Cu755  N779    2.027   .     S
Cu755  O787    1.954   .     S
Cu755  O791    1.932   .     S
Cu755  O788    1.949   .     S
Cu755  O781    1.960   .     S
Cu756  O786    1.954   .     S
Cu756  O785    1.960   .     S
Cu756  O789    1.949   .     S
Cu756  O790    1.932   .     S
Cu756  N780    2.027   .     S
Cu756  Cu827   2.697   .     S
H761   O792    0.992   .     S
H762   O782    0.991   .     S
H763   O783    0.990   .     S
H764   O784    0.990   .     S
H772   C809    1.082   .     S
O785   C804    1.297   .     S
O789   C802    1.305   .     S
C793   O858    1.294   .     A
C793   C652    1.447   1_655 S
C793   O709    1.297   1_655 S
C794   H830    1.085   .     S
C794   C796    1.398   .     A
C794   C1257   1.386   1_545 S
C795   C826    1.398   .     A
C795   C660    1.446   1_655 S
C795   C681    1.414   1_655 S
C797   H831    1.083   .     S
C797   C799    1.417   .     A
C797   N852    1.353   .     A
C798   H832    1.083   .     S
C798   C800    1.417   .     A
C798   N851    1.353   .     A
C799   N851    1.392   .     A
C799   C819    1.505   .     S
C800   C820    1.505   .     S
C800   N852    1.392   .     A
C801   C803    1.471   .     S
C801   O862    1.299   .     A
C801   O716    1.305   1_655 S
C802   O863    1.298   .     A
C802   C805    1.469   .     S
C803   C810    1.400   .     A
C803   C808    1.396   .     A
C804   O859    1.294   .     A
C805   C809    1.395   .     A
C805   C811    1.398   .     A
C806   C814    1.410   .     A
C806   C808    1.392   .     A
C806   H702    1.083   1_655 S
C807   C816    1.409   .     A
C807   H847    1.083   .     S
C807   C809    1.392   .     A
C808   H701    1.083   1_655 S
C810   C812    1.408   .     A
C810   H840    1.075   .     S
C811   C813    1.409   .     A
C811   H829    1.075   .     S
C812   C817    1.429   .     A
C812   C814    1.420   .     A
C813   C818    1.429   .     A
C813   C816    1.421   .     A
C814   C174    1.400   1_556 S
C815   C822    1.400   .     A
C815   H848    1.075   .     S
C815   C818    1.416   .     A
C817   C821    1.416   .     A
C817   C170    1.420   1_556 S
C819   H837    1.089   .     S
C819   H838    1.111   .     S
C819   H839    1.111   .     S
C820   H841    1.089   .     S
C820   H843    1.111   .     S
C820   H842    1.111   .     S
C821   C823    1.400   .     A
C821   H849    1.075   .     S
C822   O864    1.383   .     S
C823   O854    1.384   .     S
C823   C168    1.400   1_556 S
C824   O855    1.381   .     S
C824   C652    1.414   1_655 S
C824   C1258   1.386   1_545 S
C825   O856    1.381   .     S
C825   C1010   1.386   .     S
C826   H850    1.085   .     S
C826   C1040   1.386   .     S
Cu827  N851    2.027   .     S
Cu827  O859    1.954   .     S
Cu827  O863    1.932   .     S
Cu827  O860    1.949   .     S
Cu827  O853    1.960   .     S
Cu828  O858    1.954   .     S
Cu828  O857    1.960   .     S
Cu828  O861    1.949   .     S
Cu828  O862    1.932   .     S
Cu828  N852    2.027   .     S
Cu828  Cu683   2.697   1_655 S
H833   O864    0.992   .     S
H834   O854    0.991   .     S
H835   O855    0.990   .     S
H836   O856    0.990   .     S
H844   C665    1.082   1_655 S
O857   C660    1.297   1_655 S
O861   C658    1.305   1_655 S
C865   O930    1.294   .     A
C865   C940    1.447   .     S
C865   O997    1.297   .     S
C866   H902    1.085   .     S
C866   C868    1.398   .     A
C867   C898    1.398   .     A
C867   C948    1.446   .     S
C867   C969    1.414   .     S
C868   C1009   1.447   1_455 S
C868   C1040   1.414   1_455 S
C869   H903    1.083   .     S
C869   C871    1.417   .     A
C869   N924    1.353   .     A
C870   H904    1.083   .     S
C870   C872    1.417   .     A
C870   N923    1.353   .     A
C871   N923    1.392   .     A
C871   C891    1.505   .     S
C872   C892    1.505   .     S
C872   N924    1.392   .     A
C873   C875    1.471   .     S
C873   O934    1.299   .     A
C873   O1004   1.305   .     S
C874   O935    1.298   .     A
C874   C877    1.469   .     S
C874   O1077   1.305   1_455 S
C875   C882    1.400   .     A
C875   C880    1.396   .     A
C876   O931    1.294   .     A
C876   C1011   1.446   1_455 S
C876   O1073   1.297   1_455 S
C877   C881    1.395   .     A
C877   C883    1.398   .     A
C878   C886    1.410   .     A
C878   C880    1.392   .     A
C878   H990    1.083   .     S
C879   C888    1.409   .     A
C879   H919    1.083   .     S
C879   C881    1.392   .     A
C880   H989    1.083   .     S
C881   H1060   1.082   1_455 S
C882   C884    1.408   .     A
C882   H912    1.075   .     S
C883   C885    1.409   .     A
C883   H901    1.075   .     S
C884   C889    1.429   .     A
C884   C886    1.420   .     A
C885   C890    1.429   .     A
C885   C888    1.421   .     A
C886   C246    1.400   1_556 S
C887   C894    1.400   .     A
C887   H920    1.075   .     S
C887   C890    1.416   .     A
C889   C893    1.416   .     A
C889   C242    1.420   1_556 S
C891   H909    1.089   .     S
C891   H910    1.111   .     S
C891   H911    1.111   .     S
C892   H913    1.089   .     S
C892   H915    1.111   .     S
C892   H914    1.111   .     S
C893   C895    1.400   .     A
C893   H921    1.075   .     S
C894   O936    1.383   .     S
C895   O926    1.384   .     S
C895   C240    1.400   1_556 S
C896   O927    1.381   .     S
C896   C940    1.414   .     S
C897   O928    1.381   .     S
C897   C1011   1.414   1_455 S
C897   C1082   1.386   .     S
C898   H922    1.085   .     S
C898   C1112   1.386   .     S
Cu899  N923    2.027   .     S
Cu899  O931    1.954   .     S
Cu899  O935    1.932   .     S
Cu899  O932    1.949   .     S
Cu899  O925    1.960   .     S
Cu899  Cu1044  2.697   1_455 S
Cu900  O930    1.954   .     S
Cu900  O929    1.960   .     S
Cu900  O933    1.949   .     S
Cu900  O934    1.932   .     S
Cu900  N924    2.027   .     S
Cu900  Cu971   2.697   .     S
H905   O936    0.992   .     S
H906   O926    0.991   .     S
H907   O927    0.990   .     S
H908   O928    0.990   .     S
H916   C953    1.082   .     S
H917   C1024   1.083   1_455 S
H918   C1022   1.083   1_455 S
O925   C1009   1.297   1_455 S
O929   C948    1.297   .     S
O932   C1017   1.305   1_455 S
O933   C946    1.305   .     S
C937   O1002   1.294   .     A
C937   C1012   1.447   .     S
C937   O1069   1.297   .     S
C938   H974    1.085   .     S
C938   C940    1.398   .     A
C939   C970    1.398   .     A
C939   C1020   1.446   .     S
C939   C1041   1.414   .     S
C941   H975    1.083   .     S
C941   C943    1.417   .     A
C941   N996    1.353   .     A
C942   H976    1.083   .     S
C942   C944    1.417   .     A
C942   N995    1.353   .     A
C943   N995    1.392   .     A
C943   C963    1.505   .     S
C944   C964    1.505   .     S
C944   N996    1.392   .     A
C945   C947    1.471   .     S
C945   O1006   1.299   .     A
C945   O1076   1.305   .     S
C946   O1007   1.298   .     A
C946   C949    1.469   .     S
C947   C954    1.400   .     A
C947   C952    1.396   .     A
C948   O1003   1.294   .     A
C949   C953    1.395   .     A
C949   C955    1.398   .     A
C950   C958    1.410   .     A
C950   C952    1.392   .     A
C950   H1062   1.083   .     S
C951   C960    1.409   .     A
C951   H991    1.083   .     S
C951   C953    1.392   .     A
C952   H1061   1.083   .     S
C954   C956    1.408   .     A
C954   H984    1.075   .     S
C955   C957    1.409   .     A
C955   H973    1.075   .     S
C956   C961    1.429   .     A
C956   C958    1.420   .     A
C957   C962    1.429   .     A
C957   C960    1.421   .     A
C958   C318    1.400   1_556 S
C959   C966    1.400   .     A
C959   H992    1.075   .     S
C959   C962    1.416   .     A
C961   C965    1.416   .     A
C961   C314    1.420   1_556 S
C963   H981    1.089   .     S
C963   H982    1.111   .     S
C963   H983    1.111   .     S
C964   H985    1.089   .     S
C964   H987    1.111   .     S
C964   H986    1.111   .     S
C965   C967    1.400   .     A
C965   H993    1.075   .     S
C966   O1008   1.383   .     S
C967   O998    1.384   .     S
C967   C312    1.400   1_556 S
C968   O999    1.381   .     S
C968   C1012   1.414   .     S
C969   O1000   1.381   .     S
C969   C1154   1.386   .     S
C970   H994    1.085   .     S
C970   C1184   1.386   .     S
Cu971  N995    2.027   .     S
Cu971  O1003   1.954   .     S
Cu971  O1007   1.932   .     S
Cu971  O1004   1.949   .     S
Cu971  O997    1.960   .     S
Cu972  O1002   1.954   .     S
Cu972  O1001   1.960   .     S
Cu972  O1005   1.949   .     S
Cu972  O1006   1.932   .     S
Cu972  N996    2.027   .     S
Cu972  Cu1043  2.697   .     S
H977   O1008   0.992   .     S
H978   O998    0.991   .     S
H979   O999    0.990   .     S
H980   O1000   0.990   .     S
H988   C1025   1.082   .     S
O1001  C1020   1.297   .     S
O1005  C1018   1.305   .     S
C1009  O1074   1.294   .     A
C1009  C868    1.447   1_655 S
C1009  O925    1.297   1_655 S
C1010  H1046   1.085   .     S
C1010  C1012   1.398   .     A
C1011  C1042   1.398   .     A
C1011  C876    1.446   1_655 S
C1011  C897    1.414   1_655 S
C1013  H1047   1.083   .     S
C1013  C1015   1.417   .     A
C1013  N1068   1.353   .     A
C1014  H1048   1.083   .     S
C1014  C1016   1.417   .     A
C1014  N1067   1.353   .     A
C1015  N1067   1.392   .     A
C1015  C1035   1.505   .     S
C1016  C1036   1.505   .     S
C1016  N1068   1.392   .     A
C1017  C1019   1.471   .     S
C1017  O1078   1.299   .     A
C1017  O932    1.305   1_655 S
C1018  O1079   1.298   .     A
C1018  C1021   1.469   .     S
C1019  C1026   1.400   .     A
C1019  C1024   1.396   .     A
C1020  O1075   1.294   .     A
C1021  C1025   1.395   .     A
C1021  C1027   1.398   .     A
C1022  C1030   1.410   .     A
C1022  C1024   1.392   .     A
C1022  H918    1.083   1_655 S
C1023  C1032   1.409   .     A
C1023  H1063   1.083   .     S
C1023  C1025   1.392   .     A
C1024  H917    1.083   1_655 S
C1026  C1028   1.408   .     A
C1026  H1056   1.075   .     S
C1027  C1029   1.409   .     A
C1027  H1045   1.075   .     S
C1028  C1033   1.429   .     A
C1028  C1030   1.420   .     A
C1029  C1034   1.429   .     A
C1029  C1032   1.421   .     A
C1030  C390    1.400   1_556 S
C1031  C1038   1.400   .     A
C1031  H1064   1.075   .     S
C1031  C1034   1.416   .     A
C1033  C1037   1.416   .     A
C1033  C386    1.420   1_556 S
C1035  H1053   1.089   .     S
C1035  H1054   1.111   .     S
C1035  H1055   1.111   .     S
C1036  H1057   1.089   .     S
C1036  H1059   1.111   .     S
C1036  H1058   1.111   .     S
C1037  C1039   1.400   .     A
C1037  H1065   1.075   .     S
C1038  O1080   1.383   .     S
C1039  O1070   1.384   .     S
C1039  C384    1.400   1_556 S
C1040  O1071   1.381   .     S
C1040  C868    1.414   1_655 S
C1041  O1072   1.381   .     S
C1041  C1226   1.386   .     S
C1042  H1066   1.085   .     S
C1042  C1256   1.386   .     S
Cu1043 N1067   2.027   .     S
Cu1043 O1075   1.954   .     S
Cu1043 O1079   1.932   .     S
Cu1043 O1076   1.949   .     S
Cu1043 O1069   1.960   .     S
Cu1044 O1074   1.954   .     S
Cu1044 O1073   1.960   .     S
Cu1044 O1077   1.949   .     S
Cu1044 O1078   1.932   .     S
Cu1044 N1068   2.027   .     S
Cu1044 Cu899   2.697   1_655 S
H1049  O1080   0.992   .     S
H1050  O1070   0.991   .     S
H1051  O1071   0.990   .     S
H1052  O1072   0.990   .     S
H1060  C881    1.082   1_655 S
O1073  C876    1.297   1_655 S
O1077  C874    1.305   1_655 S
C1081  O1146   1.294   .     A
C1081  C1156   1.447   .     S
C1081  O1213   1.297   .     S
C1082  H1118   1.085   .     S
C1082  C1084   1.398   .     A
C1083  C1114   1.398   .     A
C1083  C1164   1.446   .     S
C1083  C1185   1.414   .     S
C1084  C1225   1.447   1_455 S
C1084  C1256   1.414   1_455 S
C1085  H1119   1.083   .     S
C1085  C1087   1.417   .     A
C1085  N1140   1.353   .     A
C1086  H1120   1.083   .     S
C1086  C1088   1.417   .     A
C1086  N1139   1.353   .     A
C1087  N1139   1.392   .     A
C1087  C1107   1.505   .     S
C1088  C1108   1.505   .     S
C1088  N1140   1.392   .     A
C1089  C1091   1.471   .     S
C1089  O1150   1.299   .     A
C1089  O1220   1.305   .     S
C1090  O1151   1.298   .     A
C1090  C1093   1.469   .     S
C1090  O1293   1.305   1_455 S
C1091  C1098   1.400   .     A
C1091  C1096   1.396   .     A
C1092  O1147   1.294   .     A
C1092  C1227   1.446   1_455 S
C1092  O1289   1.297   1_455 S
C1093  C1097   1.395   .     A
C1093  C1099   1.398   .     A
C1094  C1102   1.410   .     A
C1094  C1096   1.392   .     A
C1094  H1206   1.083   .     S
C1095  C1104   1.409   .     A
C1095  H1135   1.083   .     S
C1095  C1097   1.392   .     A
C1096  H1205   1.083   .     S
C1097  H1276   1.082   1_455 S
C1098  C1100   1.408   .     A
C1098  H1128   1.075   .     S
C1099  C1101   1.409   .     A
C1099  H1117   1.075   .     S
C1100  C1105   1.429   .     A
C1100  C1102   1.420   .     A
C1101  C1106   1.429   .     A
C1101  C1104   1.421   .     A
C1102  C462    1.400   1_556 S
C1103  C1110   1.400   .     A
C1103  H1136   1.075   .     S
C1103  C1106   1.416   .     A
C1105  C1109   1.416   .     A
C1105  C458    1.420   1_556 S
C1107  H1125   1.089   .     S
C1107  H1126   1.111   .     S
C1107  H1127   1.111   .     S
C1108  H1129   1.089   .     S
C1108  H1131   1.111   .     S
C1108  H1130   1.111   .     S
C1109  C1111   1.400   .     A
C1109  H1137   1.075   .     S
C1110  O1152   1.383   .     S
C1111  O1142   1.384   .     S
C1111  C456    1.400   1_556 S
C1112  O1143   1.381   .     S
C1112  C1156   1.414   .     S
C1113  O1144   1.381   .     S
C1113  C1227   1.414   1_455 S
C1113  C650    1.386   1_565 S
C1114  H1138   1.085   .     S
C1114  C680    1.386   1_565 S
Cu1115 N1139   2.027   .     S
Cu1115 O1147   1.954   .     S
Cu1115 O1151   1.932   .     S
Cu1115 O1148   1.949   .     S
Cu1115 O1141   1.960   .     S
Cu1115 Cu1260  2.697   1_455 S
Cu1116 O1146   1.954   .     S
Cu1116 O1145   1.960   .     S
Cu1116 O1149   1.949   .     S
Cu1116 O1150   1.932   .     S
Cu1116 N1140   2.027   .     S
Cu1116 Cu1187  2.697   .     S
H1121  O1152   0.992   .     S
H1122  O1142   0.991   .     S
H1123  O1143   0.990   .     S
H1124  O1144   0.990   .     S
H1132  C1169   1.082   .     S
H1133  C1240   1.083   1_455 S
H1134  C1238   1.083   1_455 S
O1141  C1225   1.297   1_455 S
O1145  C1164   1.297   .     S
O1148  C1233   1.305   1_455 S
O1149  C1162   1.305   .     S
C1153  O1218   1.294   .     A
C1153  C1228   1.447   .     S
C1153  O1285   1.297   .     S
C1154  H1190   1.085   .     S
C1154  C1156   1.398   .     A
C1155  C1186   1.398   .     A
C1155  C1236   1.446   .     S
C1155  C1257   1.414   .     S
C1157  H1191   1.083   .     S
C1157  C1159   1.417   .     A
C1157  N1212   1.353   .     A
C1158  H1192   1.083   .     S
C1158  C1160   1.417   .     A
C1158  N1211   1.353   .     A
C1159  N1211   1.392   .     A
C1159  C1179   1.505   .     S
C1160  C1180   1.505   .     S
C1160  N1212   1.392   .     A
C1161  C1163   1.471   .     S
C1161  O1222   1.299   .     A
C1161  O1292   1.305   .     S
C1162  O1223   1.298   .     A
C1162  C1165   1.469   .     S
C1163  C1170   1.400   .     A
C1163  C1168   1.396   .     A
C1164  O1219   1.294   .     A
C1165  C1169   1.395   .     A
C1165  C1171   1.398   .     A
C1166  C1174   1.410   .     A
C1166  C1168   1.392   .     A
C1166  H1278   1.083   .     S
C1167  C1176   1.409   .     A
C1167  H1207   1.083   .     S
C1167  C1169   1.392   .     A
C1168  H1277   1.083   .     S
C1170  C1172   1.408   .     A
C1170  H1200   1.075   .     S
C1171  C1173   1.409   .     A
C1171  H1189   1.075   .     S
C1172  C1177   1.429   .     A
C1172  C1174   1.420   .     A
C1173  C1178   1.429   .     A
C1173  C1176   1.421   .     A
C1174  C534    1.400   1_556 S
C1175  C1182   1.400   .     A
C1175  H1208   1.075   .     S
C1175  C1178   1.416   .     A
C1177  C1181   1.416   .     A
C1177  C530    1.420   1_556 S
C1179  H1197   1.089   .     S
C1179  H1198   1.111   .     S
C1179  H1199   1.111   .     S
C1180  H1201   1.089   .     S
C1180  H1203   1.111   .     S
C1180  H1202   1.111   .     S
C1181  C1183   1.400   .     A
C1181  H1209   1.075   .     S
C1182  O1224   1.383   .     S
C1183  O1214   1.384   .     S
C1183  C528    1.400   1_556 S
C1184  O1215   1.381   .     S
C1184  C1228   1.414   .     S
C1185  O1216   1.381   .     S
C1185  C722    1.386   1_565 S
C1186  H1210   1.085   .     S
C1186  C752    1.386   1_565 S
Cu1187 N1211   2.027   .     S
Cu1187 O1219   1.954   .     S
Cu1187 O1223   1.932   .     S
Cu1187 O1220   1.949   .     S
Cu1187 O1213   1.960   .     S
Cu1188 O1218   1.954   .     S
Cu1188 O1217   1.960   .     S
Cu1188 O1221   1.949   .     S
Cu1188 O1222   1.932   .     S
Cu1188 N1212   2.027   .     S
Cu1188 Cu1259  2.697   .     S
H1193  O1224   0.992   .     S
H1194  O1214   0.991   .     S
H1195  O1215   0.990   .     S
H1196  O1216   0.990   .     S
H1204  C1241   1.082   .     S
O1217  C1236   1.297   .     S
O1221  C1234   1.305   .     S
C1225  O1290   1.294   .     A
C1225  C1084   1.447   1_655 S
C1225  O1141   1.297   1_655 S
C1226  H1262   1.085   .     S
C1226  C1228   1.398   .     A
C1227  C1258   1.398   .     A
C1227  C1092   1.446   1_655 S
C1227  C1113   1.414   1_655 S
C1229  H1263   1.083   .     S
C1229  C1231   1.417   .     A
C1229  N1284   1.353   .     A
C1230  H1264   1.083   .     S
C1230  C1232   1.417   .     A
C1230  N1283   1.353   .     A
C1231  N1283   1.392   .     A
C1231  C1251   1.505   .     S
C1232  C1252   1.505   .     S
C1232  N1284   1.392   .     A
C1233  C1235   1.471   .     S
C1233  O1294   1.299   .     A
C1233  O1148   1.305   1_655 S
C1234  O1295   1.298   .     A
C1234  C1237   1.469   .     S
C1235  C1242   1.400   .     A
C1235  C1240   1.396   .     A
C1236  O1291   1.294   .     A
C1237  C1241   1.395   .     A
C1237  C1243   1.398   .     A
C1238  C1246   1.410   .     A
C1238  C1240   1.392   .     A
C1238  H1134   1.083   1_655 S
C1239  C1248   1.409   .     A
C1239  H1279   1.083   .     S
C1239  C1241   1.392   .     A
C1240  H1133   1.083   1_655 S
C1242  C1244   1.408   .     A
C1242  H1272   1.075   .     S
C1243  C1245   1.409   .     A
C1243  H1261   1.075   .     S
C1244  C1249   1.429   .     A
C1244  C1246   1.420   .     A
C1245  C1250   1.429   .     A
C1245  C1248   1.421   .     A
C1246  C606    1.400   1_556 S
C1247  C1254   1.400   .     A
C1247  H1280   1.075   .     S
C1247  C1250   1.416   .     A
C1249  C1253   1.416   .     A
C1249  C602    1.420   1_556 S
C1251  H1269   1.089   .     S
C1251  H1270   1.111   .     S
C1251  H1271   1.111   .     S
C1252  H1273   1.089   .     S
C1252  H1275   1.111   .     S
C1252  H1274   1.111   .     S
C1253  C1255   1.400   .     A
C1253  H1281   1.075   .     S
C1254  O1296   1.383   .     S
C1255  O1286   1.384   .     S
C1255  C600    1.400   1_556 S
C1256  O1287   1.381   .     S
C1256  C1084   1.414   1_655 S
C1257  O1288   1.381   .     S
C1257  C794    1.386   1_565 S
C1258  H1282   1.085   .     S
C1258  C824    1.386   1_565 S
Cu1259 N1283   2.027   .     S
Cu1259 O1291   1.954   .     S
Cu1259 O1295   1.932   .     S
Cu1259 O1292   1.949   .     S
Cu1259 O1285   1.960   .     S
Cu1260 O1290   1.954   .     S
Cu1260 O1289   1.960   .     S
Cu1260 O1293   1.949   .     S
Cu1260 O1294   1.932   .     S
Cu1260 N1284   2.027   .     S
Cu1260 Cu1115  2.697   1_655 S
H1265  O1296   0.992   .     S
H1266  O1286   0.991   .     S
H1267  O1287   0.990   .     S
H1268  O1288   0.990   .     S
H1276  C1097   1.082   1_655 S
O1289  C1092   1.297   1_655 S
O1293  C1090   1.305   1_655 S
