data_str_m1_o5_o17_pcu_sym.40
_audit_creation_date              2020-01-03
_audit_creation_method            'Materials Studio'
_symmetry_space_group_name_H-M    'P1'
_symmetry_Int_Tables_number       1
_symmetry_cell_setting            triclinic
loop_
_symmetry_equiv_pos_as_xyz
  x,y,z
_cell_length_a                    31.7868
_cell_length_b                    31.7875
_cell_length_c                    34.4372
_cell_angle_alpha                 90.0003
_cell_angle_beta                  90.0003
_cell_angle_gamma                 89.9998
loop_
_atom_site_label
_atom_site_type_symbol
_atom_site_fract_x
_atom_site_fract_y
_atom_site_fract_z
_atom_site_U_iso_or_equiv
_atom_site_adp_type
_atom_site_occupancy
Br1    Br    0.03141   0.33407   0.38942   0.00000  Uiso   1.00
Br2    Br    0.21471   0.41741   0.11046   0.00000  Uiso   1.00
Br3    Br    0.41600   0.28161   0.88943   0.00000  Uiso   1.00
Br4    Br    0.08257   0.28533   0.11045   0.00000  Uiso   1.00
Br5    Br    0.28165   0.41602   0.88943   0.00000  Uiso   1.00
Br6    Br    0.28529   0.08259   0.11046   0.00000  Uiso   1.00
Br7    Br    0.08400   0.21839   0.88943   0.00000  Uiso   1.00
Br8    Br    0.41743   0.21467   0.11045   0.00000  Uiso   1.00
Br9    Br    0.02240   0.12145   0.45576   0.00000  Uiso   1.00
Br10   Br    0.01620   0.37947   0.54418   0.00000  Uiso   1.00
Br11   Br    0.37862   0.47794   0.45576   0.00000  Uiso   1.00
Br12   Br    0.03551   0.16750   0.61045   0.00000  Uiso   1.00
Br13   Br    0.12056   0.48347   0.54418   0.00000  Uiso   1.00
Br14   Br    0.47760   0.37855   0.45576   0.00000  Uiso   1.00
Br15   Br    0.48380   0.12053   0.54418   0.00000  Uiso   1.00
Br16   Br    0.12138   0.02206   0.45576   0.00000  Uiso   1.00
Br17   Br    0.37943   0.01653   0.54418   0.00000  Uiso   1.00
Br18   Br    0.22794   0.37139   0.95576   0.00000  Uiso   1.00
Br19   Br    0.23346   0.12943   0.04418   0.00000  Uiso   1.00
Br20   Br    0.12860   0.27211   0.95576   0.00000  Uiso   1.00
Br21   Br    0.37057   0.26648   0.04418   0.00000  Uiso   1.00
Br22   Br    0.27206   0.12861   0.95576   0.00000  Uiso   1.00
Br23   Br    0.16601   0.46836   0.38943   0.00000  Uiso   1.00
Br24   Br    0.26654   0.37057   0.04418   0.00000  Uiso   1.00
Br25   Br    0.37140   0.22789   0.95576   0.00000  Uiso   1.00
Br26   Br    0.12943   0.23352   0.04418   0.00000  Uiso   1.00
Br27   Br    0.33259   0.46472   0.61046   0.00000  Uiso   1.00
Br28   Br    0.46859   0.16593   0.38942   0.00000  Uiso   1.00
Br29   Br    0.46449   0.33250   0.61045   0.00000  Uiso   1.00
Br30   Br    0.33399   0.03164   0.38943   0.00000  Uiso   1.00
Br31   Br    0.16741   0.03528   0.61046   0.00000  Uiso   1.00
Br32   Br    0.21835   0.08398   0.88943   0.00000  Uiso   1.00
C33    C     0.25000   0.00000   0.35587   0.00000  Uiso   1.00
C34    C     0.33003   0.41997   0.75000   0.00000  Uiso   1.00
C35    C     0.42299   0.24944   0.02025   0.00000  Uiso   1.00
C36    C     0.25281   0.07696   0.97970   0.00000  Uiso   1.00
C37    C     0.24947   0.42299   0.02025   0.00000  Uiso   1.00
C38    C     0.42304   0.24716   0.97970   0.00000  Uiso   1.00
C39    C     0.07701   0.25056   0.02025   0.00000  Uiso   1.00
C40    C     0.41997   0.16997   0.25000   0.00000  Uiso   1.00
C41    C     0.08003   0.33002   0.75000   0.00000  Uiso   1.00
C42    C     0.33003   0.41997   0.25000   0.00000  Uiso   1.00
C43    C     0.16997   0.08002   0.75000   0.00000  Uiso   1.00
C44    C     0.08003   0.33002   0.25000   0.00000  Uiso   1.00
C45    C     0.41997   0.16997   0.75000   0.00000  Uiso   1.00
C46    C     0.16997   0.41997   0.75000   0.00000  Uiso   1.00
C47    C     0.33002   0.08003   0.25000   0.00000  Uiso   1.00
C48    C     0.41997   0.33003   0.75000   0.00000  Uiso   1.00
C49    C     0.25000  -0.00000   0.64412   0.00000  Uiso   1.00
C50    C     0.08002   0.16997   0.25000   0.00000  Uiso   1.00
C51    C     0.33002   0.08003   0.75000   0.00000  Uiso   1.00
C52    C     0.16997   0.41997   0.25000   0.00000  Uiso   1.00
C53    C     0.08002   0.16997   0.75000   0.00000  Uiso   1.00
C54    C     0.41997   0.33003   0.25000   0.00000  Uiso   1.00
C55    C     0.13833   0.38833   0.25000   0.00000  Uiso   1.00
C56    C     0.36167   0.11167   0.75000   0.00000  Uiso   1.00
C57    C     0.11167   0.13833   0.25000   0.00000  Uiso   1.00
C58    C     0.38833   0.36167   0.75000   0.00000  Uiso   1.00
C59    C     0.36167   0.11167   0.25000   0.00000  Uiso   1.00
C60    C     0.00000   0.25000   0.35587   0.00000  Uiso   1.00
C61    C     0.13833   0.38833   0.75000   0.00000  Uiso   1.00
C62    C     0.38833   0.36167   0.25000   0.00000  Uiso   1.00
C63    C     0.11167   0.13833   0.75000   0.00000  Uiso   1.00
C64    C     0.13833   0.11167   0.75000   0.00000  Uiso   1.00
C65    C     0.36167   0.38833   0.25000   0.00000  Uiso   1.00
C66    C     0.11167   0.36167   0.75000   0.00000  Uiso   1.00
C67    C     0.38833   0.13833   0.25000   0.00000  Uiso   1.00
C68    C     0.36167   0.38833   0.75000   0.00000  Uiso   1.00
C69    C     0.13833   0.11167   0.25000   0.00000  Uiso   1.00
C70    C     0.38833   0.13833   0.75000   0.00000  Uiso   1.00
C71    C    -0.00000   0.25000   0.64412   0.00000  Uiso   1.00
C72    C     0.11167   0.36167   0.25000   0.00000  Uiso   1.00
C73    C     0.00682   0.28772   0.41819   0.00000  Uiso   1.00
C74    C     0.00871   0.21267   0.58176   0.00000  Uiso   1.00
C75    C     0.21230   0.49308   0.41819   0.00000  Uiso   1.00
C76    C     0.28736   0.49139   0.58176   0.00000  Uiso   1.00
C77    C     0.49318   0.21228   0.41819   0.00000  Uiso   1.00
C78    C     0.49129   0.28733   0.58176   0.00000  Uiso   1.00
C79    C     0.28770   0.00693   0.41819   0.00000  Uiso   1.00
C80    C     0.21264   0.00860   0.58176   0.00000  Uiso   1.00
C81    C     0.24307   0.03770   0.91819   0.00000  Uiso   1.00
C82    C     0.00000   0.25000   0.85587   0.00000  Uiso   1.00
C83    C     0.24139   0.46264   0.08176   0.00000  Uiso   1.00
C84    C     0.46230   0.25691   0.91819   0.00000  Uiso   1.00
C85    C     0.03735   0.25862   0.08176   0.00000  Uiso   1.00
C86    C     0.25693   0.46230   0.91819   0.00000  Uiso   1.00
C87    C     0.25861   0.03736   0.08176   0.00000  Uiso   1.00
C88    C     0.03770   0.24309   0.91819   0.00000  Uiso   1.00
C89    C     0.46265   0.24137   0.08176   0.00000  Uiso   1.00
C90    C     0.00000   0.25000   0.39817   0.00000  Uiso   1.00
C91    C    -0.00000   0.25000   0.60179   0.00000  Uiso   1.00
C92    C     0.25000   0.00000   0.39817   0.00000  Uiso   1.00
C93    C     0.00000   0.25000   0.14412   0.00000  Uiso   1.00
C94    C     0.25000  -0.00000   0.60179   0.00000  Uiso   1.00
C95    C     0.25000  -0.00000   0.89817   0.00000  Uiso   1.00
C96    C     0.25000  -0.00000   0.10179   0.00000  Uiso   1.00
C97    C     0.00000   0.25000   0.89817   0.00000  Uiso   1.00
C98    C     0.00000   0.25000   0.10179   0.00000  Uiso   1.00
C99    C     0.49921   0.21120   0.45884   0.00000  Uiso   1.00
C100   C     0.49731   0.28871   0.54110   0.00000  Uiso   1.00
C101   C     0.28880   0.00089   0.45885   0.00000  Uiso   1.00
C102   C     0.21128   0.00259   0.54111   0.00000  Uiso   1.00
C103   C     0.00079   0.28880   0.45884   0.00000  Uiso   1.00
C104   C     0.25000  -0.00000   0.85587   0.00000  Uiso   1.00
C105   C     0.00269   0.21129   0.54110   0.00000  Uiso   1.00
C106   C     0.21120   0.49911   0.45885   0.00000  Uiso   1.00
C107   C     0.28872   0.49741   0.54111   0.00000  Uiso   1.00
C108   C     0.25089   0.46121   0.95884   0.00000  Uiso   1.00
C109   C     0.25259   0.03871   0.04111   0.00000  Uiso   1.00
C110   C     0.03879   0.24912   0.95884   0.00000  Uiso   1.00
C111   C     0.46129   0.24739   0.04111   0.00000  Uiso   1.00
C112   C     0.24911   0.03879   0.95885   0.00000  Uiso   1.00
C113   C     0.24741   0.46129   0.04111   0.00000  Uiso   1.00
C114   C     0.46120   0.25088   0.95884   0.00000  Uiso   1.00
C115   C     0.25000  -0.00000   0.14412   0.00000  Uiso   1.00
C116   C     0.03871   0.25261   0.04111   0.00000  Uiso   1.00
C117   C     0.00000   0.25000   0.47943   0.00000  Uiso   1.00
C118   C     0.00000   0.25000   0.52052   0.00000  Uiso   1.00
C119   C     0.25000   0.00000   0.47943   0.00000  Uiso   1.00
C120   C     0.25000  -0.00000   0.52052   0.00000  Uiso   1.00
C121   C     0.25000  -0.00000   0.97943   0.00000  Uiso   1.00
C122   C     0.25000  -0.00000   0.02052   0.00000  Uiso   1.00
C123   C     0.00000   0.25000   0.97943   0.00000  Uiso   1.00
C124   C     0.00000   0.25000   0.02052   0.00000  Uiso   1.00
C125   C     0.00301   0.17305   0.47970   0.00000  Uiso   1.00
C126   C     0.16997   0.08002   0.25000   0.00000  Uiso   1.00
C127   C     0.49927   0.32700   0.52025   0.00000  Uiso   1.00
C128   C     0.32696   0.49719   0.47970   0.00000  Uiso   1.00
C129   C     0.17299   0.00053   0.52025   0.00000  Uiso   1.00
C130   C     0.49699   0.32695   0.47970   0.00000  Uiso   1.00
C131   C     0.00073   0.17300   0.52025   0.00000  Uiso   1.00
C132   C     0.17304   0.00281   0.47970   0.00000  Uiso   1.00
C133   C     0.32701   0.49947   0.52025   0.00000  Uiso   1.00
C134   C     0.24720   0.42304   0.97970   0.00000  Uiso   1.00
C135   C     0.25053   0.07701   0.02025   0.00000  Uiso   1.00
C136   C     0.07696   0.25284   0.97970   0.00000  Uiso   1.00
O137   O     0.25000   0.00000   0.25000   0.00000  Uiso   1.00
O138   O     0.25000   0.46538   0.66251   0.00000  Uiso   1.00
O139   O     0.46538   0.25000   0.33749   0.00000  Uiso   1.00
O140   O     0.03461   0.25000   0.66251   0.00000  Uiso   1.00
O141   O    -0.00000   0.21538   0.83749   0.00000  Uiso   1.00
O142   O    -0.00000   0.28461   0.16251   0.00000  Uiso   1.00
O143   O     0.28461   0.00000   0.83749   0.00000  Uiso   1.00
O144   O     0.21538   0.00000   0.16251   0.00000  Uiso   1.00
O145   O    -0.00000   0.28461   0.83749   0.00000  Uiso   1.00
O146   O    -0.00000   0.21538   0.16251   0.00000  Uiso   1.00
O147   O     0.21538   0.00000   0.83749   0.00000  Uiso   1.00
O148   O     0.25000   0.00000   0.75000   0.00000  Uiso   1.00
O149   O     0.28461   0.00000   0.16251   0.00000  Uiso   1.00
O150   O     0.20126   0.08332   0.27298   0.00000  Uiso   1.00
O151   O     0.29873   0.41668   0.72702   0.00000  Uiso   1.00
O152   O     0.41668   0.20126   0.27298   0.00000  Uiso   1.00
O153   O     0.08332   0.29873   0.72702   0.00000  Uiso   1.00
O154   O     0.29873   0.41668   0.27298   0.00000  Uiso   1.00
O155   O     0.20126   0.08332   0.72702   0.00000  Uiso   1.00
O156   O     0.08332   0.29873   0.27298   0.00000  Uiso   1.00
O157   O     0.41668   0.20126   0.72702   0.00000  Uiso   1.00
O158   O     0.20126   0.41668   0.72702   0.00000  Uiso   1.00
O159   O    -0.00000   0.25000   0.25000   0.00000  Uiso   1.00
O160   O     0.29873   0.08332   0.27298   0.00000  Uiso   1.00
O161   O     0.41668   0.29873   0.72702   0.00000  Uiso   1.00
O162   O     0.08332   0.20126   0.27298   0.00000  Uiso   1.00
O163   O     0.29873   0.08332   0.72702   0.00000  Uiso   1.00
O164   O     0.20126   0.41668   0.27298   0.00000  Uiso   1.00
O165   O     0.08332   0.20126   0.72702   0.00000  Uiso   1.00
O166   O     0.41668   0.29873   0.27298   0.00000  Uiso   1.00
O167   O     0.45126   0.33332   0.77298   0.00000  Uiso   1.00
O168   O     0.04873   0.16668   0.22702   0.00000  Uiso   1.00
O169   O     0.16668   0.45126   0.77298   0.00000  Uiso   1.00
O170   O    -0.00000   0.25000   0.75000   0.00000  Uiso   1.00
O171   O     0.33332   0.04874   0.22702   0.00000  Uiso   1.00
O172   O     0.04873   0.16668   0.77298   0.00000  Uiso   1.00
O173   O     0.45126   0.33332   0.22702   0.00000  Uiso   1.00
O174   O     0.33332   0.04874   0.77298   0.00000  Uiso   1.00
O175   O     0.16668   0.45126   0.22702   0.00000  Uiso   1.00
O176   O     0.45126   0.16668   0.22702   0.00000  Uiso   1.00
O177   O     0.04873   0.33332   0.77298   0.00000  Uiso   1.00
O178   O     0.16668   0.04874   0.22702   0.00000  Uiso   1.00
O179   O     0.33332   0.45126   0.77298   0.00000  Uiso   1.00
O180   O     0.04873   0.33332   0.22702   0.00000  Uiso   1.00
O181   O     0.25000   0.46538   0.33749   0.00000  Uiso   1.00
O182   O     0.45126   0.16668   0.77298   0.00000  Uiso   1.00
O183   O     0.33332   0.45126   0.22702   0.00000  Uiso   1.00
O184   O     0.16668   0.04874   0.77298   0.00000  Uiso   1.00
O185   O     0.25000   0.03462   0.66251   0.00000  Uiso   1.00
O186   O     0.03461   0.25000   0.33749   0.00000  Uiso   1.00
O187   O     0.46538   0.25000   0.66251   0.00000  Uiso   1.00
O188   O     0.25000   0.03462   0.33749   0.00000  Uiso   1.00
Zn189  Zn    0.20052   0.00000   0.21730   0.00000  Uiso   1.00
Zn190  Zn    0.04947   0.25000   0.28270   0.00000  Uiso   1.00
Zn191  Zn    0.25000   0.45052   0.71730   0.00000  Uiso   1.00
Zn192  Zn    0.25000   0.04948   0.28270   0.00000  Uiso   1.00
Zn193  Zn    0.04947   0.25000   0.71730   0.00000  Uiso   1.00
Zn194  Zn    0.45052   0.25000   0.28270   0.00000  Uiso   1.00
Zn195  Zn    0.25000   0.04948   0.71730   0.00000  Uiso   1.00
Zn196  Zn    0.25000   0.45052   0.28270   0.00000  Uiso   1.00
Zn197  Zn    0.29947   0.00000   0.78270   0.00000  Uiso   1.00
Zn198  Zn    0.00000   0.20052   0.21730   0.00000  Uiso   1.00
Zn199  Zn   -0.00000   0.29947   0.78270   0.00000  Uiso   1.00
Zn200  Zn    0.29947   0.00000   0.21730   0.00000  Uiso   1.00
Zn201  Zn    0.20052   0.00000   0.78270   0.00000  Uiso   1.00
Zn202  Zn   -0.00000   0.29947   0.21730   0.00000  Uiso   1.00
Zn203  Zn   -0.00000   0.20053   0.78270   0.00000  Uiso   1.00
Zn204  Zn    0.45052   0.25000   0.71730   0.00000  Uiso   1.00
Br205  Br    0.53141   0.33407   0.38942   0.00000  Uiso   1.00
Br206  Br    0.71471   0.41741   0.11046   0.00000  Uiso   1.00
Br207  Br    0.91600   0.28161   0.88943   0.00000  Uiso   1.00
Br208  Br    0.58257   0.28533   0.11045   0.00000  Uiso   1.00
Br209  Br    0.78165   0.41602   0.88943   0.00000  Uiso   1.00
Br210  Br    0.78529   0.08259   0.11046   0.00000  Uiso   1.00
Br211  Br    0.58400   0.21839   0.88943   0.00000  Uiso   1.00
Br212  Br    0.91743   0.21467   0.11045   0.00000  Uiso   1.00
Br213  Br    0.52240   0.12145   0.45576   0.00000  Uiso   1.00
Br214  Br    0.51620   0.37947   0.54418   0.00000  Uiso   1.00
Br215  Br    0.87862   0.47794   0.45576   0.00000  Uiso   1.00
Br216  Br    0.53551   0.16750   0.61045   0.00000  Uiso   1.00
Br217  Br    0.62056   0.48347   0.54418   0.00000  Uiso   1.00
Br218  Br    0.97760   0.37855   0.45576   0.00000  Uiso   1.00
Br219  Br    0.98380   0.12053   0.54418   0.00000  Uiso   1.00
Br220  Br    0.62138   0.02206   0.45576   0.00000  Uiso   1.00
Br221  Br    0.87943   0.01653   0.54418   0.00000  Uiso   1.00
Br222  Br    0.72794   0.37139   0.95576   0.00000  Uiso   1.00
Br223  Br    0.73346   0.12943   0.04418   0.00000  Uiso   1.00
Br224  Br    0.62860   0.27211   0.95576   0.00000  Uiso   1.00
Br225  Br    0.87057   0.26648   0.04418   0.00000  Uiso   1.00
Br226  Br    0.77206   0.12861   0.95576   0.00000  Uiso   1.00
Br227  Br    0.66601   0.46836   0.38943   0.00000  Uiso   1.00
Br228  Br    0.76654   0.37057   0.04418   0.00000  Uiso   1.00
Br229  Br    0.87140   0.22789   0.95576   0.00000  Uiso   1.00
Br230  Br    0.62943   0.23352   0.04418   0.00000  Uiso   1.00
Br231  Br    0.83259   0.46472   0.61046   0.00000  Uiso   1.00
Br232  Br    0.96859   0.16593   0.38942   0.00000  Uiso   1.00
Br233  Br    0.96449   0.33250   0.61045   0.00000  Uiso   1.00
Br234  Br    0.83399   0.03164   0.38943   0.00000  Uiso   1.00
Br235  Br    0.66741   0.03528   0.61046   0.00000  Uiso   1.00
Br236  Br    0.71835   0.08398   0.88943   0.00000  Uiso   1.00
C237   C     0.75000   0.00000   0.35587   0.00000  Uiso   1.00
C238   C     0.83003   0.41997   0.75000   0.00000  Uiso   1.00
C239   C     0.92299   0.24944   0.02025   0.00000  Uiso   1.00
C240   C     0.75281   0.07696   0.97970   0.00000  Uiso   1.00
C241   C     0.74947   0.42299   0.02025   0.00000  Uiso   1.00
C242   C     0.92304   0.24716   0.97970   0.00000  Uiso   1.00
C243   C     0.57701   0.25056   0.02025   0.00000  Uiso   1.00
C244   C     0.91997   0.16997   0.25000   0.00000  Uiso   1.00
C245   C     0.58003   0.33002   0.75000   0.00000  Uiso   1.00
C246   C     0.83003   0.41997   0.25000   0.00000  Uiso   1.00
C247   C     0.66997   0.08002   0.75000   0.00000  Uiso   1.00
C248   C     0.58003   0.33002   0.25000   0.00000  Uiso   1.00
C249   C     0.91997   0.16997   0.75000   0.00000  Uiso   1.00
C250   C     0.66997   0.41997   0.75000   0.00000  Uiso   1.00
C251   C     0.83002   0.08003   0.25000   0.00000  Uiso   1.00
C252   C     0.91997   0.33003   0.75000   0.00000  Uiso   1.00
C253   C     0.75000  -0.00000   0.64412   0.00000  Uiso   1.00
C254   C     0.58002   0.16997   0.25000   0.00000  Uiso   1.00
C255   C     0.83002   0.08003   0.75000   0.00000  Uiso   1.00
C256   C     0.66997   0.41997   0.25000   0.00000  Uiso   1.00
C257   C     0.58002   0.16997   0.75000   0.00000  Uiso   1.00
C258   C     0.91997   0.33003   0.25000   0.00000  Uiso   1.00
C259   C     0.63833   0.38833   0.25000   0.00000  Uiso   1.00
C260   C     0.86167   0.11167   0.75000   0.00000  Uiso   1.00
C261   C     0.61167   0.13833   0.25000   0.00000  Uiso   1.00
C262   C     0.88833   0.36167   0.75000   0.00000  Uiso   1.00
C263   C     0.86167   0.11167   0.25000   0.00000  Uiso   1.00
C264   C     0.50000   0.25000   0.35587   0.00000  Uiso   1.00
C265   C     0.63833   0.38833   0.75000   0.00000  Uiso   1.00
C266   C     0.88833   0.36167   0.25000   0.00000  Uiso   1.00
C267   C     0.61167   0.13833   0.75000   0.00000  Uiso   1.00
C268   C     0.63833   0.11167   0.75000   0.00000  Uiso   1.00
C269   C     0.86167   0.38833   0.25000   0.00000  Uiso   1.00
C270   C     0.61167   0.36167   0.75000   0.00000  Uiso   1.00
C271   C     0.88833   0.13833   0.25000   0.00000  Uiso   1.00
C272   C     0.86167   0.38833   0.75000   0.00000  Uiso   1.00
C273   C     0.63833   0.11167   0.25000   0.00000  Uiso   1.00
C274   C     0.88833   0.13833   0.75000   0.00000  Uiso   1.00
C275   C     0.50000   0.25000   0.64412   0.00000  Uiso   1.00
C276   C     0.61167   0.36167   0.25000   0.00000  Uiso   1.00
C277   C     0.50682   0.28772   0.41819   0.00000  Uiso   1.00
C278   C     0.50871   0.21267   0.58176   0.00000  Uiso   1.00
C279   C     0.71230   0.49308   0.41819   0.00000  Uiso   1.00
C280   C     0.78736   0.49139   0.58176   0.00000  Uiso   1.00
C281   C     0.99318   0.21228   0.41819   0.00000  Uiso   1.00
C282   C     0.99129   0.28733   0.58176   0.00000  Uiso   1.00
C283   C     0.78770   0.00693   0.41819   0.00000  Uiso   1.00
C284   C     0.71264   0.00860   0.58176   0.00000  Uiso   1.00
C285   C     0.74307   0.03770   0.91819   0.00000  Uiso   1.00
C286   C     0.50000   0.25000   0.85587   0.00000  Uiso   1.00
C287   C     0.74139   0.46264   0.08176   0.00000  Uiso   1.00
C288   C     0.96230   0.25691   0.91819   0.00000  Uiso   1.00
C289   C     0.53735   0.25862   0.08176   0.00000  Uiso   1.00
C290   C     0.75693   0.46230   0.91819   0.00000  Uiso   1.00
C291   C     0.75861   0.03736   0.08176   0.00000  Uiso   1.00
C292   C     0.53770   0.24309   0.91819   0.00000  Uiso   1.00
C293   C     0.96265   0.24137   0.08176   0.00000  Uiso   1.00
C294   C     0.50000   0.25000   0.39817   0.00000  Uiso   1.00
C295   C     0.50000   0.25000   0.60179   0.00000  Uiso   1.00
C296   C     0.75000   0.00000   0.39817   0.00000  Uiso   1.00
C297   C     0.50000   0.25000   0.14412   0.00000  Uiso   1.00
C298   C     0.75000  -0.00000   0.60179   0.00000  Uiso   1.00
C299   C     0.75000  -0.00000   0.89817   0.00000  Uiso   1.00
C300   C     0.75000  -0.00000   0.10179   0.00000  Uiso   1.00
C301   C     0.50000   0.25000   0.89817   0.00000  Uiso   1.00
C302   C     0.50000   0.25000   0.10179   0.00000  Uiso   1.00
C303   C     0.99921   0.21120   0.45884   0.00000  Uiso   1.00
C304   C     0.99731   0.28871   0.54110   0.00000  Uiso   1.00
C305   C     0.78880   0.00089   0.45885   0.00000  Uiso   1.00
C306   C     0.71128   0.00259   0.54111   0.00000  Uiso   1.00
C307   C     0.50079   0.28880   0.45884   0.00000  Uiso   1.00
C308   C     0.75000  -0.00000   0.85587   0.00000  Uiso   1.00
C309   C     0.50269   0.21129   0.54110   0.00000  Uiso   1.00
C310   C     0.71120   0.49911   0.45885   0.00000  Uiso   1.00
C311   C     0.78872   0.49741   0.54111   0.00000  Uiso   1.00
C312   C     0.75089   0.46121   0.95884   0.00000  Uiso   1.00
C313   C     0.75259   0.03871   0.04111   0.00000  Uiso   1.00
C314   C     0.53879   0.24912   0.95884   0.00000  Uiso   1.00
C315   C     0.96129   0.24739   0.04111   0.00000  Uiso   1.00
C316   C     0.74911   0.03879   0.95885   0.00000  Uiso   1.00
C317   C     0.74741   0.46129   0.04111   0.00000  Uiso   1.00
C318   C     0.96120   0.25088   0.95884   0.00000  Uiso   1.00
C319   C     0.75000  -0.00000   0.14412   0.00000  Uiso   1.00
C320   C     0.53871   0.25261   0.04111   0.00000  Uiso   1.00
C321   C     0.50000   0.25000   0.47943   0.00000  Uiso   1.00
C322   C     0.50000   0.25000   0.52052   0.00000  Uiso   1.00
C323   C     0.75000   0.00000   0.47943   0.00000  Uiso   1.00
C324   C     0.75000  -0.00000   0.52052   0.00000  Uiso   1.00
C325   C     0.75000  -0.00000   0.97943   0.00000  Uiso   1.00
C326   C     0.75000  -0.00000   0.02052   0.00000  Uiso   1.00
C327   C     0.50000   0.25000   0.97943   0.00000  Uiso   1.00
C328   C     0.50000   0.25000   0.02052   0.00000  Uiso   1.00
C329   C     0.50301   0.17305   0.47970   0.00000  Uiso   1.00
C330   C     0.66997   0.08002   0.25000   0.00000  Uiso   1.00
C331   C     0.99927   0.32700   0.52025   0.00000  Uiso   1.00
C332   C     0.82696   0.49719   0.47970   0.00000  Uiso   1.00
C333   C     0.67299   0.00053   0.52025   0.00000  Uiso   1.00
C334   C     0.99699   0.32695   0.47970   0.00000  Uiso   1.00
C335   C     0.50073   0.17300   0.52025   0.00000  Uiso   1.00
C336   C     0.67304   0.00281   0.47970   0.00000  Uiso   1.00
C337   C     0.82701   0.49947   0.52025   0.00000  Uiso   1.00
C338   C     0.74720   0.42304   0.97970   0.00000  Uiso   1.00
C339   C     0.75053   0.07701   0.02025   0.00000  Uiso   1.00
C340   C     0.57696   0.25284   0.97970   0.00000  Uiso   1.00
O341   O     0.75000   0.00000   0.25000   0.00000  Uiso   1.00
O342   O     0.75000   0.46538   0.66251   0.00000  Uiso   1.00
O343   O     0.96538   0.25000   0.33749   0.00000  Uiso   1.00
O344   O     0.53461   0.25000   0.66251   0.00000  Uiso   1.00
O345   O     0.50000   0.21538   0.83749   0.00000  Uiso   1.00
O346   O     0.50000   0.28461   0.16251   0.00000  Uiso   1.00
O347   O     0.78461   0.00000   0.83749   0.00000  Uiso   1.00
O348   O     0.71538   0.00000   0.16251   0.00000  Uiso   1.00
O349   O     0.50000   0.28461   0.83749   0.00000  Uiso   1.00
O350   O     0.50000   0.21538   0.16251   0.00000  Uiso   1.00
O351   O     0.71538   0.00000   0.83749   0.00000  Uiso   1.00
O352   O     0.75000   0.00000   0.75000   0.00000  Uiso   1.00
O353   O     0.78461   0.00000   0.16251   0.00000  Uiso   1.00
O354   O     0.70126   0.08332   0.27298   0.00000  Uiso   1.00
O355   O     0.79873   0.41668   0.72702   0.00000  Uiso   1.00
O356   O     0.91668   0.20126   0.27298   0.00000  Uiso   1.00
O357   O     0.58332   0.29873   0.72702   0.00000  Uiso   1.00
O358   O     0.79873   0.41668   0.27298   0.00000  Uiso   1.00
O359   O     0.70126   0.08332   0.72702   0.00000  Uiso   1.00
O360   O     0.58332   0.29873   0.27298   0.00000  Uiso   1.00
O361   O     0.91668   0.20126   0.72702   0.00000  Uiso   1.00
O362   O     0.70126   0.41668   0.72702   0.00000  Uiso   1.00
O363   O     0.50000   0.25000   0.25000   0.00000  Uiso   1.00
O364   O     0.79873   0.08332   0.27298   0.00000  Uiso   1.00
O365   O     0.91668   0.29873   0.72702   0.00000  Uiso   1.00
O366   O     0.58332   0.20126   0.27298   0.00000  Uiso   1.00
O367   O     0.79873   0.08332   0.72702   0.00000  Uiso   1.00
O368   O     0.70126   0.41668   0.27298   0.00000  Uiso   1.00
O369   O     0.58332   0.20126   0.72702   0.00000  Uiso   1.00
O370   O     0.91668   0.29873   0.27298   0.00000  Uiso   1.00
O371   O     0.95126   0.33332   0.77298   0.00000  Uiso   1.00
O372   O     0.54873   0.16668   0.22702   0.00000  Uiso   1.00
O373   O     0.66668   0.45126   0.77298   0.00000  Uiso   1.00
O374   O     0.50000   0.25000   0.75000   0.00000  Uiso   1.00
O375   O     0.83332   0.04874   0.22702   0.00000  Uiso   1.00
O376   O     0.54873   0.16668   0.77298   0.00000  Uiso   1.00
O377   O     0.95126   0.33332   0.22702   0.00000  Uiso   1.00
O378   O     0.83332   0.04874   0.77298   0.00000  Uiso   1.00
O379   O     0.66668   0.45126   0.22702   0.00000  Uiso   1.00
O380   O     0.95126   0.16668   0.22702   0.00000  Uiso   1.00
O381   O     0.54873   0.33332   0.77298   0.00000  Uiso   1.00
O382   O     0.66668   0.04874   0.22702   0.00000  Uiso   1.00
O383   O     0.83332   0.45126   0.77298   0.00000  Uiso   1.00
O384   O     0.54873   0.33332   0.22702   0.00000  Uiso   1.00
O385   O     0.75000   0.46538   0.33749   0.00000  Uiso   1.00
O386   O     0.95126   0.16668   0.77298   0.00000  Uiso   1.00
O387   O     0.83332   0.45126   0.22702   0.00000  Uiso   1.00
O388   O     0.66668   0.04874   0.77298   0.00000  Uiso   1.00
O389   O     0.75000   0.03462   0.66251   0.00000  Uiso   1.00
O390   O     0.53461   0.25000   0.33749   0.00000  Uiso   1.00
O391   O     0.96538   0.25000   0.66251   0.00000  Uiso   1.00
O392   O     0.75000   0.03462   0.33749   0.00000  Uiso   1.00
Zn393  Zn    0.70052   0.00000   0.21730   0.00000  Uiso   1.00
Zn394  Zn    0.54947   0.25000   0.28270   0.00000  Uiso   1.00
Zn395  Zn    0.75000   0.45052   0.71730   0.00000  Uiso   1.00
Zn396  Zn    0.75000   0.04948   0.28270   0.00000  Uiso   1.00
Zn397  Zn    0.54947   0.25000   0.71730   0.00000  Uiso   1.00
Zn398  Zn    0.95052   0.25000   0.28270   0.00000  Uiso   1.00
Zn399  Zn    0.75000   0.04948   0.71730   0.00000  Uiso   1.00
Zn400  Zn    0.75000   0.45052   0.28270   0.00000  Uiso   1.00
Zn401  Zn    0.79947   0.00000   0.78270   0.00000  Uiso   1.00
Zn402  Zn    0.50000   0.20052   0.21730   0.00000  Uiso   1.00
Zn403  Zn    0.50000   0.29947   0.78270   0.00000  Uiso   1.00
Zn404  Zn    0.79947   0.00000   0.21730   0.00000  Uiso   1.00
Zn405  Zn    0.70052   0.00000   0.78270   0.00000  Uiso   1.00
Zn406  Zn    0.50000   0.29947   0.21730   0.00000  Uiso   1.00
Zn407  Zn    0.50000   0.20053   0.78270   0.00000  Uiso   1.00
Zn408  Zn    0.95052   0.25000   0.71730   0.00000  Uiso   1.00
Br409  Br    0.03141   0.83407   0.38942   0.00000  Uiso   1.00
Br410  Br    0.21471   0.91741   0.11046   0.00000  Uiso   1.00
Br411  Br    0.41600   0.78161   0.88943   0.00000  Uiso   1.00
Br412  Br    0.08257   0.78533   0.11045   0.00000  Uiso   1.00
Br413  Br    0.28165   0.91602   0.88943   0.00000  Uiso   1.00
Br414  Br    0.28529   0.58259   0.11046   0.00000  Uiso   1.00
Br415  Br    0.08400   0.71839   0.88943   0.00000  Uiso   1.00
Br416  Br    0.41743   0.71467   0.11045   0.00000  Uiso   1.00
Br417  Br    0.02240   0.62145   0.45576   0.00000  Uiso   1.00
Br418  Br    0.01620   0.87947   0.54418   0.00000  Uiso   1.00
Br419  Br    0.37862   0.97794   0.45576   0.00000  Uiso   1.00
Br420  Br    0.03551   0.66750   0.61045   0.00000  Uiso   1.00
Br421  Br    0.12056   0.98347   0.54418   0.00000  Uiso   1.00
Br422  Br    0.47760   0.87855   0.45576   0.00000  Uiso   1.00
Br423  Br    0.48380   0.62053   0.54418   0.00000  Uiso   1.00
Br424  Br    0.12138   0.52206   0.45576   0.00000  Uiso   1.00
Br425  Br    0.37943   0.51653   0.54418   0.00000  Uiso   1.00
Br426  Br    0.22794   0.87139   0.95576   0.00000  Uiso   1.00
Br427  Br    0.23346   0.62943   0.04418   0.00000  Uiso   1.00
Br428  Br    0.12860   0.77211   0.95576   0.00000  Uiso   1.00
Br429  Br    0.37057   0.76648   0.04418   0.00000  Uiso   1.00
Br430  Br    0.27206   0.62861   0.95576   0.00000  Uiso   1.00
Br431  Br    0.16601   0.96836   0.38943   0.00000  Uiso   1.00
Br432  Br    0.26654   0.87057   0.04418   0.00000  Uiso   1.00
Br433  Br    0.37140   0.72789   0.95576   0.00000  Uiso   1.00
Br434  Br    0.12943   0.73352   0.04418   0.00000  Uiso   1.00
Br435  Br    0.33259   0.96472   0.61046   0.00000  Uiso   1.00
Br436  Br    0.46859   0.66593   0.38942   0.00000  Uiso   1.00
Br437  Br    0.46449   0.83250   0.61045   0.00000  Uiso   1.00
Br438  Br    0.33399   0.53164   0.38943   0.00000  Uiso   1.00
Br439  Br    0.16741   0.53528   0.61046   0.00000  Uiso   1.00
Br440  Br    0.21835   0.58398   0.88943   0.00000  Uiso   1.00
C441   C     0.25000   0.50000   0.35587   0.00000  Uiso   1.00
C442   C     0.33003   0.91997   0.75000   0.00000  Uiso   1.00
C443   C     0.42299   0.74944   0.02025   0.00000  Uiso   1.00
C444   C     0.25281   0.57696   0.97970   0.00000  Uiso   1.00
C445   C     0.24947   0.92299   0.02025   0.00000  Uiso   1.00
C446   C     0.42304   0.74716   0.97970   0.00000  Uiso   1.00
C447   C     0.07701   0.75056   0.02025   0.00000  Uiso   1.00
C448   C     0.41997   0.66997   0.25000   0.00000  Uiso   1.00
C449   C     0.08003   0.83002   0.75000   0.00000  Uiso   1.00
C450   C     0.33003   0.91997   0.25000   0.00000  Uiso   1.00
C451   C     0.16997   0.58002   0.75000   0.00000  Uiso   1.00
C452   C     0.08003   0.83002   0.25000   0.00000  Uiso   1.00
C453   C     0.41997   0.66997   0.75000   0.00000  Uiso   1.00
C454   C     0.16997   0.91997   0.75000   0.00000  Uiso   1.00
C455   C     0.33002   0.58003   0.25000   0.00000  Uiso   1.00
C456   C     0.41997   0.83003   0.75000   0.00000  Uiso   1.00
C457   C     0.25000   0.50000   0.64412   0.00000  Uiso   1.00
C458   C     0.08002   0.66997   0.25000   0.00000  Uiso   1.00
C459   C     0.33002   0.58003   0.75000   0.00000  Uiso   1.00
C460   C     0.16997   0.91997   0.25000   0.00000  Uiso   1.00
C461   C     0.08002   0.66997   0.75000   0.00000  Uiso   1.00
C462   C     0.41997   0.83003   0.25000   0.00000  Uiso   1.00
C463   C     0.13833   0.88833   0.25000   0.00000  Uiso   1.00
C464   C     0.36167   0.61167   0.75000   0.00000  Uiso   1.00
C465   C     0.11167   0.63833   0.25000   0.00000  Uiso   1.00
C466   C     0.38833   0.86167   0.75000   0.00000  Uiso   1.00
C467   C     0.36167   0.61167   0.25000   0.00000  Uiso   1.00
C468   C     0.00000   0.75000   0.35587   0.00000  Uiso   1.00
C469   C     0.13833   0.88833   0.75000   0.00000  Uiso   1.00
C470   C     0.38833   0.86167   0.25000   0.00000  Uiso   1.00
C471   C     0.11167   0.63833   0.75000   0.00000  Uiso   1.00
C472   C     0.13833   0.61167   0.75000   0.00000  Uiso   1.00
C473   C     0.36167   0.88833   0.25000   0.00000  Uiso   1.00
C474   C     0.11167   0.86167   0.75000   0.00000  Uiso   1.00
C475   C     0.38833   0.63833   0.25000   0.00000  Uiso   1.00
C476   C     0.36167   0.88833   0.75000   0.00000  Uiso   1.00
C477   C     0.13833   0.61167   0.25000   0.00000  Uiso   1.00
C478   C     0.38833   0.63833   0.75000   0.00000  Uiso   1.00
C479   C    -0.00000   0.75000   0.64412   0.00000  Uiso   1.00
C480   C     0.11167   0.86167   0.25000   0.00000  Uiso   1.00
C481   C     0.00682   0.78772   0.41819   0.00000  Uiso   1.00
C482   C     0.00871   0.71267   0.58176   0.00000  Uiso   1.00
C483   C     0.21230   0.99308   0.41819   0.00000  Uiso   1.00
C484   C     0.28736   0.99139   0.58176   0.00000  Uiso   1.00
C485   C     0.49318   0.71228   0.41819   0.00000  Uiso   1.00
C486   C     0.49129   0.78733   0.58176   0.00000  Uiso   1.00
C487   C     0.28770   0.50693   0.41819   0.00000  Uiso   1.00
C488   C     0.21264   0.50860   0.58176   0.00000  Uiso   1.00
C489   C     0.24307   0.53770   0.91819   0.00000  Uiso   1.00
C490   C     0.00000   0.75000   0.85587   0.00000  Uiso   1.00
C491   C     0.24139   0.96264   0.08176   0.00000  Uiso   1.00
C492   C     0.46230   0.75691   0.91819   0.00000  Uiso   1.00
C493   C     0.03735   0.75862   0.08176   0.00000  Uiso   1.00
C494   C     0.25693   0.96230   0.91819   0.00000  Uiso   1.00
C495   C     0.25861   0.53736   0.08176   0.00000  Uiso   1.00
C496   C     0.03770   0.74309   0.91819   0.00000  Uiso   1.00
C497   C     0.46265   0.74137   0.08176   0.00000  Uiso   1.00
C498   C     0.00000   0.75000   0.39817   0.00000  Uiso   1.00
C499   C    -0.00000   0.75000   0.60179   0.00000  Uiso   1.00
C500   C     0.25000   0.50000   0.39817   0.00000  Uiso   1.00
C501   C     0.00000   0.75000   0.14412   0.00000  Uiso   1.00
C502   C     0.25000   0.50000   0.60179   0.00000  Uiso   1.00
C503   C     0.25000   0.50000   0.89817   0.00000  Uiso   1.00
C504   C     0.25000   0.50000   0.10179   0.00000  Uiso   1.00
C505   C     0.00000   0.75000   0.89817   0.00000  Uiso   1.00
C506   C     0.00000   0.75000   0.10179   0.00000  Uiso   1.00
C507   C     0.49921   0.71120   0.45884   0.00000  Uiso   1.00
C508   C     0.49731   0.78871   0.54110   0.00000  Uiso   1.00
C509   C     0.28880   0.50089   0.45885   0.00000  Uiso   1.00
C510   C     0.21128   0.50259   0.54111   0.00000  Uiso   1.00
C511   C     0.00079   0.78880   0.45884   0.00000  Uiso   1.00
C512   C     0.25000   0.50000   0.85587   0.00000  Uiso   1.00
C513   C     0.00269   0.71129   0.54110   0.00000  Uiso   1.00
C514   C     0.21120   0.99911   0.45885   0.00000  Uiso   1.00
C515   C     0.28872   0.99741   0.54111   0.00000  Uiso   1.00
C516   C     0.25089   0.96121   0.95884   0.00000  Uiso   1.00
C517   C     0.25259   0.53871   0.04111   0.00000  Uiso   1.00
C518   C     0.03879   0.74912   0.95884   0.00000  Uiso   1.00
C519   C     0.46129   0.74739   0.04111   0.00000  Uiso   1.00
C520   C     0.24911   0.53879   0.95885   0.00000  Uiso   1.00
C521   C     0.24741   0.96129   0.04111   0.00000  Uiso   1.00
C522   C     0.46120   0.75088   0.95884   0.00000  Uiso   1.00
C523   C     0.25000   0.50000   0.14412   0.00000  Uiso   1.00
C524   C     0.03871   0.75261   0.04111   0.00000  Uiso   1.00
C525   C     0.00000   0.75000   0.47943   0.00000  Uiso   1.00
C526   C     0.00000   0.75000   0.52052   0.00000  Uiso   1.00
C527   C     0.25000   0.50000   0.47943   0.00000  Uiso   1.00
C528   C     0.25000   0.50000   0.52052   0.00000  Uiso   1.00
C529   C     0.25000   0.50000   0.97943   0.00000  Uiso   1.00
C530   C     0.25000   0.50000   0.02052   0.00000  Uiso   1.00
C531   C     0.00000   0.75000   0.97943   0.00000  Uiso   1.00
C532   C     0.00000   0.75000   0.02052   0.00000  Uiso   1.00
C533   C     0.00301   0.67305   0.47970   0.00000  Uiso   1.00
C534   C     0.16997   0.58002   0.25000   0.00000  Uiso   1.00
C535   C     0.49927   0.82700   0.52025   0.00000  Uiso   1.00
C536   C     0.32696   0.99719   0.47970   0.00000  Uiso   1.00
C537   C     0.17299   0.50053   0.52025   0.00000  Uiso   1.00
C538   C     0.49699   0.82695   0.47970   0.00000  Uiso   1.00
C539   C     0.00073   0.67300   0.52025   0.00000  Uiso   1.00
C540   C     0.17304   0.50281   0.47970   0.00000  Uiso   1.00
C541   C     0.32701   0.99947   0.52025   0.00000  Uiso   1.00
C542   C     0.24720   0.92304   0.97970   0.00000  Uiso   1.00
C543   C     0.25053   0.57701   0.02025   0.00000  Uiso   1.00
C544   C     0.07696   0.75284   0.97970   0.00000  Uiso   1.00
O545   O     0.25000   0.50000   0.25000   0.00000  Uiso   1.00
O546   O     0.25000   0.96538   0.66251   0.00000  Uiso   1.00
O547   O     0.46538   0.75000   0.33749   0.00000  Uiso   1.00
O548   O     0.03461   0.75000   0.66251   0.00000  Uiso   1.00
O549   O    -0.00000   0.71538   0.83749   0.00000  Uiso   1.00
O550   O    -0.00000   0.78461   0.16251   0.00000  Uiso   1.00
O551   O     0.28461   0.50000   0.83749   0.00000  Uiso   1.00
O552   O     0.21538   0.50000   0.16251   0.00000  Uiso   1.00
O553   O    -0.00000   0.78461   0.83749   0.00000  Uiso   1.00
O554   O    -0.00000   0.71538   0.16251   0.00000  Uiso   1.00
O555   O     0.21538   0.50000   0.83749   0.00000  Uiso   1.00
O556   O     0.25000   0.50000   0.75000   0.00000  Uiso   1.00
O557   O     0.28461   0.50000   0.16251   0.00000  Uiso   1.00
O558   O     0.20126   0.58332   0.27298   0.00000  Uiso   1.00
O559   O     0.29873   0.91668   0.72702   0.00000  Uiso   1.00
O560   O     0.41668   0.70126   0.27298   0.00000  Uiso   1.00
O561   O     0.08332   0.79873   0.72702   0.00000  Uiso   1.00
O562   O     0.29873   0.91668   0.27298   0.00000  Uiso   1.00
O563   O     0.20126   0.58332   0.72702   0.00000  Uiso   1.00
O564   O     0.08332   0.79873   0.27298   0.00000  Uiso   1.00
O565   O     0.41668   0.70126   0.72702   0.00000  Uiso   1.00
O566   O     0.20126   0.91668   0.72702   0.00000  Uiso   1.00
O567   O    -0.00000   0.75000   0.25000   0.00000  Uiso   1.00
O568   O     0.29873   0.58332   0.27298   0.00000  Uiso   1.00
O569   O     0.41668   0.79873   0.72702   0.00000  Uiso   1.00
O570   O     0.08332   0.70126   0.27298   0.00000  Uiso   1.00
O571   O     0.29873   0.58332   0.72702   0.00000  Uiso   1.00
O572   O     0.20126   0.91668   0.27298   0.00000  Uiso   1.00
O573   O     0.08332   0.70126   0.72702   0.00000  Uiso   1.00
O574   O     0.41668   0.79873   0.27298   0.00000  Uiso   1.00
O575   O     0.45126   0.83332   0.77298   0.00000  Uiso   1.00
O576   O     0.04873   0.66668   0.22702   0.00000  Uiso   1.00
O577   O     0.16668   0.95126   0.77298   0.00000  Uiso   1.00
O578   O    -0.00000   0.75000   0.75000   0.00000  Uiso   1.00
O579   O     0.33332   0.54874   0.22702   0.00000  Uiso   1.00
O580   O     0.04873   0.66668   0.77298   0.00000  Uiso   1.00
O581   O     0.45126   0.83332   0.22702   0.00000  Uiso   1.00
O582   O     0.33332   0.54874   0.77298   0.00000  Uiso   1.00
O583   O     0.16668   0.95126   0.22702   0.00000  Uiso   1.00
O584   O     0.45126   0.66668   0.22702   0.00000  Uiso   1.00
O585   O     0.04873   0.83332   0.77298   0.00000  Uiso   1.00
O586   O     0.16668   0.54874   0.22702   0.00000  Uiso   1.00
O587   O     0.33332   0.95126   0.77298   0.00000  Uiso   1.00
O588   O     0.04873   0.83332   0.22702   0.00000  Uiso   1.00
O589   O     0.25000   0.96538   0.33749   0.00000  Uiso   1.00
O590   O     0.45126   0.66668   0.77298   0.00000  Uiso   1.00
O591   O     0.33332   0.95126   0.22702   0.00000  Uiso   1.00
O592   O     0.16668   0.54874   0.77298   0.00000  Uiso   1.00
O593   O     0.25000   0.53462   0.66251   0.00000  Uiso   1.00
O594   O     0.03461   0.75000   0.33749   0.00000  Uiso   1.00
O595   O     0.46538   0.75000   0.66251   0.00000  Uiso   1.00
O596   O     0.25000   0.53462   0.33749   0.00000  Uiso   1.00
Zn597  Zn    0.20052   0.50000   0.21730   0.00000  Uiso   1.00
Zn598  Zn    0.04947   0.75000   0.28270   0.00000  Uiso   1.00
Zn599  Zn    0.25000   0.95052   0.71730   0.00000  Uiso   1.00
Zn600  Zn    0.25000   0.54948   0.28270   0.00000  Uiso   1.00
Zn601  Zn    0.04947   0.75000   0.71730   0.00000  Uiso   1.00
Zn602  Zn    0.45052   0.75000   0.28270   0.00000  Uiso   1.00
Zn603  Zn    0.25000   0.54948   0.71730   0.00000  Uiso   1.00
Zn604  Zn    0.25000   0.95052   0.28270   0.00000  Uiso   1.00
Zn605  Zn    0.29947   0.50000   0.78270   0.00000  Uiso   1.00
Zn606  Zn    0.00000   0.70052   0.21730   0.00000  Uiso   1.00
Zn607  Zn   -0.00000   0.79947   0.78270   0.00000  Uiso   1.00
Zn608  Zn    0.29947   0.50000   0.21730   0.00000  Uiso   1.00
Zn609  Zn    0.20052   0.50000   0.78270   0.00000  Uiso   1.00
Zn610  Zn   -0.00000   0.79947   0.21730   0.00000  Uiso   1.00
Zn611  Zn   -0.00000   0.70053   0.78270   0.00000  Uiso   1.00
Zn612  Zn    0.45052   0.75000   0.71730   0.00000  Uiso   1.00
Br613  Br    0.53141   0.83407   0.38942   0.00000  Uiso   1.00
Br614  Br    0.71471   0.91741   0.11046   0.00000  Uiso   1.00
Br615  Br    0.91600   0.78161   0.88943   0.00000  Uiso   1.00
Br616  Br    0.58257   0.78533   0.11045   0.00000  Uiso   1.00
Br617  Br    0.78165   0.91602   0.88943   0.00000  Uiso   1.00
Br618  Br    0.78529   0.58259   0.11046   0.00000  Uiso   1.00
Br619  Br    0.58400   0.71839   0.88943   0.00000  Uiso   1.00
Br620  Br    0.91743   0.71467   0.11045   0.00000  Uiso   1.00
Br621  Br    0.52240   0.62145   0.45576   0.00000  Uiso   1.00
Br622  Br    0.51620   0.87947   0.54418   0.00000  Uiso   1.00
Br623  Br    0.87862   0.97794   0.45576   0.00000  Uiso   1.00
Br624  Br    0.53551   0.66750   0.61045   0.00000  Uiso   1.00
Br625  Br    0.62056   0.98347   0.54418   0.00000  Uiso   1.00
Br626  Br    0.97760   0.87855   0.45576   0.00000  Uiso   1.00
Br627  Br    0.98380   0.62053   0.54418   0.00000  Uiso   1.00
Br628  Br    0.62138   0.52206   0.45576   0.00000  Uiso   1.00
Br629  Br    0.87943   0.51653   0.54418   0.00000  Uiso   1.00
Br630  Br    0.72794   0.87139   0.95576   0.00000  Uiso   1.00
Br631  Br    0.73346   0.62943   0.04418   0.00000  Uiso   1.00
Br632  Br    0.62860   0.77211   0.95576   0.00000  Uiso   1.00
Br633  Br    0.87057   0.76648   0.04418   0.00000  Uiso   1.00
Br634  Br    0.77206   0.62861   0.95576   0.00000  Uiso   1.00
Br635  Br    0.66601   0.96836   0.38943   0.00000  Uiso   1.00
Br636  Br    0.76654   0.87057   0.04418   0.00000  Uiso   1.00
Br637  Br    0.87140   0.72789   0.95576   0.00000  Uiso   1.00
Br638  Br    0.62943   0.73352   0.04418   0.00000  Uiso   1.00
Br639  Br    0.83259   0.96472   0.61046   0.00000  Uiso   1.00
Br640  Br    0.96859   0.66593   0.38942   0.00000  Uiso   1.00
Br641  Br    0.96449   0.83250   0.61045   0.00000  Uiso   1.00
Br642  Br    0.83399   0.53164   0.38943   0.00000  Uiso   1.00
Br643  Br    0.66741   0.53528   0.61046   0.00000  Uiso   1.00
Br644  Br    0.71835   0.58398   0.88943   0.00000  Uiso   1.00
C645   C     0.75000   0.50000   0.35587   0.00000  Uiso   1.00
C646   C     0.83003   0.91997   0.75000   0.00000  Uiso   1.00
C647   C     0.92299   0.74944   0.02025   0.00000  Uiso   1.00
C648   C     0.75281   0.57696   0.97970   0.00000  Uiso   1.00
C649   C     0.74947   0.92299   0.02025   0.00000  Uiso   1.00
C650   C     0.92304   0.74716   0.97970   0.00000  Uiso   1.00
C651   C     0.57701   0.75056   0.02025   0.00000  Uiso   1.00
C652   C     0.91997   0.66997   0.25000   0.00000  Uiso   1.00
C653   C     0.58003   0.83002   0.75000   0.00000  Uiso   1.00
C654   C     0.83003   0.91997   0.25000   0.00000  Uiso   1.00
C655   C     0.66997   0.58002   0.75000   0.00000  Uiso   1.00
C656   C     0.58003   0.83002   0.25000   0.00000  Uiso   1.00
C657   C     0.91997   0.66997   0.75000   0.00000  Uiso   1.00
C658   C     0.66997   0.91997   0.75000   0.00000  Uiso   1.00
C659   C     0.83002   0.58003   0.25000   0.00000  Uiso   1.00
C660   C     0.91997   0.83003   0.75000   0.00000  Uiso   1.00
C661   C     0.75000   0.50000   0.64412   0.00000  Uiso   1.00
C662   C     0.58002   0.66997   0.25000   0.00000  Uiso   1.00
C663   C     0.83002   0.58003   0.75000   0.00000  Uiso   1.00
C664   C     0.66997   0.91997   0.25000   0.00000  Uiso   1.00
C665   C     0.58002   0.66997   0.75000   0.00000  Uiso   1.00
C666   C     0.91997   0.83003   0.25000   0.00000  Uiso   1.00
C667   C     0.63833   0.88833   0.25000   0.00000  Uiso   1.00
C668   C     0.86167   0.61167   0.75000   0.00000  Uiso   1.00
C669   C     0.61167   0.63833   0.25000   0.00000  Uiso   1.00
C670   C     0.88833   0.86167   0.75000   0.00000  Uiso   1.00
C671   C     0.86167   0.61167   0.25000   0.00000  Uiso   1.00
C672   C     0.50000   0.75000   0.35587   0.00000  Uiso   1.00
C673   C     0.63833   0.88833   0.75000   0.00000  Uiso   1.00
C674   C     0.88833   0.86167   0.25000   0.00000  Uiso   1.00
C675   C     0.61167   0.63833   0.75000   0.00000  Uiso   1.00
C676   C     0.63833   0.61167   0.75000   0.00000  Uiso   1.00
C677   C     0.86167   0.88833   0.25000   0.00000  Uiso   1.00
C678   C     0.61167   0.86167   0.75000   0.00000  Uiso   1.00
C679   C     0.88833   0.63833   0.25000   0.00000  Uiso   1.00
C680   C     0.86167   0.88833   0.75000   0.00000  Uiso   1.00
C681   C     0.63833   0.61167   0.25000   0.00000  Uiso   1.00
C682   C     0.88833   0.63833   0.75000   0.00000  Uiso   1.00
C683   C     0.50000   0.75000   0.64412   0.00000  Uiso   1.00
C684   C     0.61167   0.86167   0.25000   0.00000  Uiso   1.00
C685   C     0.50682   0.78772   0.41819   0.00000  Uiso   1.00
C686   C     0.50871   0.71267   0.58176   0.00000  Uiso   1.00
C687   C     0.71230   0.99308   0.41819   0.00000  Uiso   1.00
C688   C     0.78736   0.99139   0.58176   0.00000  Uiso   1.00
C689   C     0.99318   0.71228   0.41819   0.00000  Uiso   1.00
C690   C     0.99129   0.78733   0.58176   0.00000  Uiso   1.00
C691   C     0.78770   0.50693   0.41819   0.00000  Uiso   1.00
C692   C     0.71264   0.50860   0.58176   0.00000  Uiso   1.00
C693   C     0.74307   0.53770   0.91819   0.00000  Uiso   1.00
C694   C     0.50000   0.75000   0.85587   0.00000  Uiso   1.00
C695   C     0.74139   0.96264   0.08176   0.00000  Uiso   1.00
C696   C     0.96230   0.75691   0.91819   0.00000  Uiso   1.00
C697   C     0.53735   0.75862   0.08176   0.00000  Uiso   1.00
C698   C     0.75693   0.96230   0.91819   0.00000  Uiso   1.00
C699   C     0.75861   0.53736   0.08176   0.00000  Uiso   1.00
C700   C     0.53770   0.74309   0.91819   0.00000  Uiso   1.00
C701   C     0.96265   0.74137   0.08176   0.00000  Uiso   1.00
C702   C     0.50000   0.75000   0.39817   0.00000  Uiso   1.00
C703   C     0.50000   0.75000   0.60179   0.00000  Uiso   1.00
C704   C     0.75000   0.50000   0.39817   0.00000  Uiso   1.00
C705   C     0.50000   0.75000   0.14412   0.00000  Uiso   1.00
C706   C     0.75000   0.50000   0.60179   0.00000  Uiso   1.00
C707   C     0.75000   0.50000   0.89817   0.00000  Uiso   1.00
C708   C     0.75000   0.50000   0.10179   0.00000  Uiso   1.00
C709   C     0.50000   0.75000   0.89817   0.00000  Uiso   1.00
C710   C     0.50000   0.75000   0.10179   0.00000  Uiso   1.00
C711   C     0.99921   0.71120   0.45884   0.00000  Uiso   1.00
C712   C     0.99731   0.78871   0.54110   0.00000  Uiso   1.00
C713   C     0.78880   0.50089   0.45885   0.00000  Uiso   1.00
C714   C     0.71128   0.50259   0.54111   0.00000  Uiso   1.00
C715   C     0.50079   0.78880   0.45884   0.00000  Uiso   1.00
C716   C     0.75000   0.50000   0.85587   0.00000  Uiso   1.00
C717   C     0.50269   0.71129   0.54110   0.00000  Uiso   1.00
C718   C     0.71120   0.99911   0.45885   0.00000  Uiso   1.00
C719   C     0.78872   0.99741   0.54111   0.00000  Uiso   1.00
C720   C     0.75089   0.96121   0.95884   0.00000  Uiso   1.00
C721   C     0.75259   0.53871   0.04111   0.00000  Uiso   1.00
C722   C     0.53879   0.74912   0.95884   0.00000  Uiso   1.00
C723   C     0.96129   0.74739   0.04111   0.00000  Uiso   1.00
C724   C     0.74911   0.53879   0.95885   0.00000  Uiso   1.00
C725   C     0.74741   0.96129   0.04111   0.00000  Uiso   1.00
C726   C     0.96120   0.75088   0.95884   0.00000  Uiso   1.00
C727   C     0.75000   0.50000   0.14412   0.00000  Uiso   1.00
C728   C     0.53871   0.75261   0.04111   0.00000  Uiso   1.00
C729   C     0.50000   0.75000   0.47943   0.00000  Uiso   1.00
C730   C     0.50000   0.75000   0.52052   0.00000  Uiso   1.00
C731   C     0.75000   0.50000   0.47943   0.00000  Uiso   1.00
C732   C     0.75000   0.50000   0.52052   0.00000  Uiso   1.00
C733   C     0.75000   0.50000   0.97943   0.00000  Uiso   1.00
C734   C     0.75000   0.50000   0.02052   0.00000  Uiso   1.00
C735   C     0.50000   0.75000   0.97943   0.00000  Uiso   1.00
C736   C     0.50000   0.75000   0.02052   0.00000  Uiso   1.00
C737   C     0.50301   0.67305   0.47970   0.00000  Uiso   1.00
C738   C     0.66997   0.58002   0.25000   0.00000  Uiso   1.00
C739   C     0.99927   0.82700   0.52025   0.00000  Uiso   1.00
C740   C     0.82696   0.99719   0.47970   0.00000  Uiso   1.00
C741   C     0.67299   0.50053   0.52025   0.00000  Uiso   1.00
C742   C     0.99699   0.82695   0.47970   0.00000  Uiso   1.00
C743   C     0.50073   0.67300   0.52025   0.00000  Uiso   1.00
C744   C     0.67304   0.50281   0.47970   0.00000  Uiso   1.00
C745   C     0.82701   0.99947   0.52025   0.00000  Uiso   1.00
C746   C     0.74720   0.92304   0.97970   0.00000  Uiso   1.00
C747   C     0.75053   0.57701   0.02025   0.00000  Uiso   1.00
C748   C     0.57696   0.75284   0.97970   0.00000  Uiso   1.00
O749   O     0.75000   0.50000   0.25000   0.00000  Uiso   1.00
O750   O     0.75000   0.96538   0.66251   0.00000  Uiso   1.00
O751   O     0.96538   0.75000   0.33749   0.00000  Uiso   1.00
O752   O     0.53461   0.75000   0.66251   0.00000  Uiso   1.00
O753   O     0.50000   0.71538   0.83749   0.00000  Uiso   1.00
O754   O     0.50000   0.78461   0.16251   0.00000  Uiso   1.00
O755   O     0.78461   0.50000   0.83749   0.00000  Uiso   1.00
O756   O     0.71538   0.50000   0.16251   0.00000  Uiso   1.00
O757   O     0.50000   0.78461   0.83749   0.00000  Uiso   1.00
O758   O     0.50000   0.71538   0.16251   0.00000  Uiso   1.00
O759   O     0.71538   0.50000   0.83749   0.00000  Uiso   1.00
O760   O     0.75000   0.50000   0.75000   0.00000  Uiso   1.00
O761   O     0.78461   0.50000   0.16251   0.00000  Uiso   1.00
O762   O     0.70126   0.58332   0.27298   0.00000  Uiso   1.00
O763   O     0.79873   0.91668   0.72702   0.00000  Uiso   1.00
O764   O     0.91668   0.70126   0.27298   0.00000  Uiso   1.00
O765   O     0.58332   0.79873   0.72702   0.00000  Uiso   1.00
O766   O     0.79873   0.91668   0.27298   0.00000  Uiso   1.00
O767   O     0.70126   0.58332   0.72702   0.00000  Uiso   1.00
O768   O     0.58332   0.79873   0.27298   0.00000  Uiso   1.00
O769   O     0.91668   0.70126   0.72702   0.00000  Uiso   1.00
O770   O     0.70126   0.91668   0.72702   0.00000  Uiso   1.00
O771   O     0.50000   0.75000   0.25000   0.00000  Uiso   1.00
O772   O     0.79873   0.58332   0.27298   0.00000  Uiso   1.00
O773   O     0.91668   0.79873   0.72702   0.00000  Uiso   1.00
O774   O     0.58332   0.70126   0.27298   0.00000  Uiso   1.00
O775   O     0.79873   0.58332   0.72702   0.00000  Uiso   1.00
O776   O     0.70126   0.91668   0.27298   0.00000  Uiso   1.00
O777   O     0.58332   0.70126   0.72702   0.00000  Uiso   1.00
O778   O     0.91668   0.79873   0.27298   0.00000  Uiso   1.00
O779   O     0.95126   0.83332   0.77298   0.00000  Uiso   1.00
O780   O     0.54873   0.66668   0.22702   0.00000  Uiso   1.00
O781   O     0.66668   0.95126   0.77298   0.00000  Uiso   1.00
O782   O     0.50000   0.75000   0.75000   0.00000  Uiso   1.00
O783   O     0.83332   0.54874   0.22702   0.00000  Uiso   1.00
O784   O     0.54873   0.66668   0.77298   0.00000  Uiso   1.00
O785   O     0.95126   0.83332   0.22702   0.00000  Uiso   1.00
O786   O     0.83332   0.54874   0.77298   0.00000  Uiso   1.00
O787   O     0.66668   0.95126   0.22702   0.00000  Uiso   1.00
O788   O     0.95126   0.66668   0.22702   0.00000  Uiso   1.00
O789   O     0.54873   0.83332   0.77298   0.00000  Uiso   1.00
O790   O     0.66668   0.54874   0.22702   0.00000  Uiso   1.00
O791   O     0.83332   0.95126   0.77298   0.00000  Uiso   1.00
O792   O     0.54873   0.83332   0.22702   0.00000  Uiso   1.00
O793   O     0.75000   0.96538   0.33749   0.00000  Uiso   1.00
O794   O     0.95126   0.66668   0.77298   0.00000  Uiso   1.00
O795   O     0.83332   0.95126   0.22702   0.00000  Uiso   1.00
O796   O     0.66668   0.54874   0.77298   0.00000  Uiso   1.00
O797   O     0.75000   0.53462   0.66251   0.00000  Uiso   1.00
O798   O     0.53461   0.75000   0.33749   0.00000  Uiso   1.00
O799   O     0.96538   0.75000   0.66251   0.00000  Uiso   1.00
O800   O     0.75000   0.53462   0.33749   0.00000  Uiso   1.00
Zn801  Zn    0.70052   0.50000   0.21730   0.00000  Uiso   1.00
Zn802  Zn    0.54947   0.75000   0.28270   0.00000  Uiso   1.00
Zn803  Zn    0.75000   0.95052   0.71730   0.00000  Uiso   1.00
Zn804  Zn    0.75000   0.54948   0.28270   0.00000  Uiso   1.00
Zn805  Zn    0.54947   0.75000   0.71730   0.00000  Uiso   1.00
Zn806  Zn    0.95052   0.75000   0.28270   0.00000  Uiso   1.00
Zn807  Zn    0.75000   0.54948   0.71730   0.00000  Uiso   1.00
Zn808  Zn    0.75000   0.95052   0.28270   0.00000  Uiso   1.00
Zn809  Zn    0.79947   0.50000   0.78270   0.00000  Uiso   1.00
Zn810  Zn    0.50000   0.70052   0.21730   0.00000  Uiso   1.00
Zn811  Zn    0.50000   0.79947   0.78270   0.00000  Uiso   1.00
Zn812  Zn    0.79947   0.50000   0.21730   0.00000  Uiso   1.00
Zn813  Zn    0.70052   0.50000   0.78270   0.00000  Uiso   1.00
Zn814  Zn    0.50000   0.79947   0.21730   0.00000  Uiso   1.00
Zn815  Zn    0.50000   0.70053   0.78270   0.00000  Uiso   1.00
Zn816  Zn    0.95052   0.75000   0.71730   0.00000  Uiso   1.00
loop_
_geom_bond_atom_site_label_1
_geom_bond_atom_site_label_2
_geom_bond_distance
_geom_bond_site_symmetry_2
_ccdc_geom_bond_type
Br1    C73     1.940   .     S
Br2    C83     1.940   .     S
Br3    C84     1.940   .     S
Br4    C85     1.940   .     S
Br5    C86     1.940   .     S
Br6    C87     1.940   .     S
Br7    C88     1.940   .     S
Br8    C89     1.940   .     S
Br9    C125    1.936   .     S
Br10   C331    1.936   1_455 S
Br11   C128    1.936   .     S
Br12   C74     1.940   .     S
Br13   C537    1.936   .     S
Br14   C130    1.936   .     S
Br15   C335    1.936   .     S
Br16   C132    1.936   .     S
Br17   C541    1.936   1_545 S
Br18   C134    1.936   .     S
Br19   C135    1.936   .     S
Br20   C136    1.936   .     S
Br21   C35     1.936   .     S
Br22   C36     1.936   .     S
Br23   C75     1.940   .     S
Br24   C37     1.936   .     S
Br25   C38     1.936   .     S
Br26   C39     1.936   .     S
Br27   C76     1.940   .     S
Br28   C77     1.940   .     S
Br29   C78     1.940   .     S
Br30   C79     1.940   .     S
Br31   C80     1.940   .     S
Br32   C81     1.940   .     S
C33    C92     1.457   .     S
C33    O188    1.269   .     A
C33    O589    1.269   1_545 S
C34    O179    1.275   .     A
C34    C68     1.423   .     S
C34    O151    1.275   .     A
C35    C111    1.415   .     A
C35    C38     1.398   1_554 S
C36    C112    1.415   .     A
C36    C135    1.398   1_556 S
C37    C113    1.415   .     A
C37    C134    1.398   1_554 S
C38    C114    1.415   .     A
C38    C35     1.398   1_556 S
C39    C116    1.415   .     A
C39    C136    1.398   1_554 S
C40    O152    1.275   .     A
C40    C67     1.423   .     S
C40    O176    1.275   .     A
C41    O177    1.275   .     A
C41    O153    1.275   .     A
C41    C66     1.423   .     S
C42    O154    1.275   .     A
C42    C65     1.423   .     S
C42    O183    1.275   .     A
C43    O184    1.275   .     A
C43    O155    1.275   .     A
C43    C64     1.423   .     S
C44    O180    1.275   .     A
C44    O156    1.275   .     A
C44    C72     1.423   .     S
C45    C70     1.423   .     S
C45    O182    1.275   .     A
C45    O157    1.275   .     A
C46    O158    1.275   .     A
C46    C61     1.423   .     S
C46    O169    1.275   .     A
C47    O160    1.275   .     A
C47    C59     1.423   .     S
C47    O171    1.275   .     A
C48    C58     1.423   .     S
C48    O161    1.275   .     A
C48    O167    1.275   .     A
C49    C94     1.458   .     S
C49    O546    1.270   1_545 A
C49    O185    1.270   .     S
C50    C57     1.423   .     S
C50    O162    1.275   .     A
C50    O168    1.275   .     A
C51    C56     1.423   .     S
C51    O163    1.275   .     A
C51    O174    1.275   .     A
C52    C55     1.423   .     S
C52    O175    1.275   .     A
C52    O164    1.275   .     A
C53    O172    1.275   .     A
C53    O165    1.275   .     A
C53    C63     1.423   .     S
C54    O173    1.275   .     A
C54    O166    1.275   .     A
C54    C62     1.423   .     S
C55    C72     1.198   .     T
C56    C70     1.198   .     T
C57    C69     1.198   .     T
C58    C68     1.198   .     T
C59    C67     1.198   .     T
C60    O186    1.269   .     A
C60    C90     1.457   .     S
C60    O343    1.269   1_455 S
C61    C66     1.198   .     T
C62    C65     1.198   .     T
C63    C64     1.198   .     T
C69    C126    1.423   .     S
C71    O391    1.270   1_455 A
C71    C91     1.458   .     S
C71    O140    1.270   .     S
C73    C90     1.400   .     A
C73    C103    1.414   .     A
C74    C105    1.414   .     A
C74    C91     1.400   .     S
C75    C106    1.414   .     A
C75    C500    1.400   .     S
C76    C502    1.400   .     A
C76    C107    1.414   .     A
C77    C99     1.414   .     A
C77    C294    1.400   .     S
C78    C100    1.414   .     A
C78    C295    1.400   .     A
C79    C92     1.400   .     A
C79    C101    1.414   .     A
C80    C102    1.414   .     A
C80    C94     1.400   .     S
C81    C112    1.414   .     A
C81    C95     1.400   .     S
C82    C97     1.457   .     S
C82    O141    1.269   .     S
C82    O145    1.269   .     S
C83    C113    1.414   .     A
C83    C504    1.400   .     A
C84    C114    1.414   .     A
C84    C301    1.400   .     S
C85    C98     1.400   .     A
C85    C116    1.414   .     A
C86    C108    1.414   .     A
C86    C503    1.400   .     A
C87    C109    1.414   .     A
C87    C96     1.400   .     S
C88    C97     1.400   .     A
C88    C110    1.414   .     A
C89    C111    1.414   .     A
C89    C302    1.400   .     S
C90    C281    1.400   1_455 S
C91    C282    1.400   1_455 A
C92    C483    1.400   1_545 S
C93    C98     1.458   .     S
C93    O142    1.270   .     S
C93    O146    1.270   .     S
C94    C484    1.400   1_545 A
C95    C104    1.457   .     S
C95    C494    1.400   1_545 A
C96    C115    1.458   .     S
C96    C491    1.400   1_545 A
C97    C288    1.400   1_455 S
C98    C293    1.400   1_455 S
C99    C321    1.423   .     S
C99    C329    1.415   .     S
C100   C127    1.415   .     A
C100   C322    1.423   .     S
C101   C119    1.423   .     A
C101   C536    1.415   1_545 S
C102   C129    1.415   .     A
C102   C120    1.423   .     S
C103   C117    1.423   .     A
C103   C334    1.415   1_455 S
C104   O143    1.269   .     S
C104   O147    1.269   .     S
C105   C131    1.415   .     A
C105   C118    1.423   .     A
C106   C527    1.423   .     S
C106   C540    1.415   .     S
C107   C528    1.423   .     A
C107   C133    1.415   .     A
C108   C529    1.423   .     A
C108   C134    1.415   .     A
C109   C135    1.415   .     A
C109   C122    1.423   .     S
C110   C136    1.415   .     A
C110   C123    1.423   .     A
C111   C328    1.423   .     S
C112   C121    1.423   .     S
C113   C530    1.423   .     A
C114   C327    1.423   .     S
C115   O144    1.270   .     S
C115   O149    1.270   .     S
C116   C124    1.423   .     A
C117   C118    1.415   .     A
C117   C303    1.423   1_455 S
C118   C304    1.423   1_455 S
C119   C514    1.423   1_545 S
C119   C120    1.415   .     S
C120   C515    1.423   1_545 A
C121   C516    1.423   1_545 A
C121   C122    1.415   1_556 S
C122   C521    1.423   1_545 A
C122   C121    1.415   1_554 S
C123   C318    1.423   1_455 S
C123   C124    1.415   1_556 S
C124   C315    1.423   1_455 S
C124   C123    1.415   1_554 S
C125   C131    1.398   .     A
C125   C303    1.415   1_455 S
C126   O150    1.275   .     A
C126   O178    1.275   .     A
C127   C130    1.398   .     A
C127   Br214   1.936   .     S
C128   C133    1.398   .     A
C128   C509    1.415   .     S
C129   C132    1.398   .     A
C129   Br421   1.936   1_545 S
C130   C307    1.415   .     S
C131   Br219   1.936   1_455 S
C132   C514    1.415   1_545 S
C133   Br425   1.936   .     S
C134   C37     1.398   1_556 S
C135   C36     1.398   1_554 S
C136   C39     1.398   1_556 S
O137   Zn200   1.934   .     S
O137   Zn192   1.934   .     S
O137   Zn189   1.934   .     S
O137   Zn604   1.934   1_545 S
O138   Zn191   1.945   .     S
O138   C457    1.270   .     A
O139   Zn194   1.945   .     S
O139   C264    1.269   .     S
O140   Zn193   1.945   .     S
O141   Zn203   1.945   .     S
O142   Zn202   1.945   .     S
O143   Zn197   1.945   .     S
O144   Zn189   1.945   .     S
O145   Zn199   1.945   .     S
O146   Zn198   1.945   .     S
O147   Zn201   1.945   .     S
O148   Zn197   1.934   .     S
O148   Zn195   1.934   .     S
O148   Zn201   1.934   .     S
O148   Zn599   1.934   1_545 S
O149   Zn200   1.945   .     S
O150   Zn192   1.916   .     S
O151   Zn191   1.916   .     S
O152   Zn194   1.916   .     S
O153   Zn193   1.916   .     S
O154   Zn196   1.916   .     S
O155   Zn195   1.916   .     S
O156   Zn190   1.916   .     S
O157   Zn204   1.916   .     S
O158   Zn191   1.916   .     S
O159   Zn398   1.934   1_455 S
O159   Zn202   1.934   .     S
O159   Zn190   1.934   .     S
O159   Zn198   1.934   .     S
O160   Zn192   1.916   .     S
O161   Zn204   1.916   .     S
O162   Zn190   1.916   .     S
O163   Zn195   1.916   .     S
O164   Zn196   1.916   .     S
O165   Zn193   1.916   .     S
O166   Zn194   1.916   .     S
O167   Zn403   1.916   .     S
O168   Zn198   1.916   .     S
O169   Zn609   1.916   .     S
O170   Zn408   1.934   1_455 S
O170   Zn199   1.934   .     S
O170   Zn203   1.934   .     S
O170   Zn193   1.934   .     S
O171   Zn200   1.916   .     S
O172   Zn203   1.916   .     S
O173   Zn406   1.916   .     S
O174   Zn197   1.916   .     S
O175   Zn597   1.916   .     S
O176   Zn402   1.916   .     S
O177   Zn199   1.916   .     S
O178   Zn189   1.916   .     S
O179   Zn605   1.916   .     S
O180   Zn202   1.916   .     S
O181   Zn196   1.945   .     S
O181   C441    1.269   .     S
O182   Zn407   1.916   .     S
O183   Zn608   1.916   .     S
O184   Zn201   1.916   .     S
O185   Zn195   1.945   .     S
O186   Zn190   1.945   .     S
O187   Zn204   1.945   .     S
O187   C275    1.270   .     A
O188   Zn192   1.945   .     S
Zn189  O583    1.916   1_545 S
Zn191  O556    1.934   .     S
Zn194  O363    1.934   .     S
Zn196  O545    1.934   .     S
Zn197  O587    1.916   1_545 S
Zn198  O380    1.916   1_455 S
Zn199  O371    1.916   1_455 S
Zn200  O591    1.916   1_545 S
Zn201  O577    1.916   1_545 S
Zn202  O377    1.916   1_455 S
Zn203  O386    1.916   1_455 S
Zn204  O374    1.934   .     S
Br205  C277    1.940   .     S
Br206  C287    1.940   .     S
Br207  C288    1.940   .     S
Br208  C289    1.940   .     S
Br209  C290    1.940   .     S
Br210  C291    1.940   .     S
Br211  C292    1.940   .     S
Br212  C293    1.940   .     S
Br213  C329    1.936   .     S
Br215  C332    1.936   .     S
Br216  C278    1.940   .     S
Br217  C741    1.936   .     S
Br218  C334    1.936   .     S
Br219  C131    1.936   1_655 S
Br220  C336    1.936   .     S
Br221  C745    1.936   1_545 S
Br222  C338    1.936   .     S
Br223  C339    1.936   .     S
Br224  C340    1.936   .     S
Br225  C239    1.936   .     S
Br226  C240    1.936   .     S
Br227  C279    1.940   .     S
Br228  C241    1.936   .     S
Br229  C242    1.936   .     S
Br230  C243    1.936   .     S
Br231  C280    1.940   .     S
Br232  C281    1.940   .     S
Br233  C282    1.940   .     S
Br234  C283    1.940   .     S
Br235  C284    1.940   .     S
Br236  C285    1.940   .     S
C237   C296    1.457   .     S
C237   O392    1.269   .     A
C237   O793    1.269   1_545 S
C238   O383    1.275   .     A
C238   C272    1.423   .     S
C238   O355    1.275   .     A
C239   C315    1.415   .     A
C239   C242    1.398   1_554 S
C240   C316    1.415   .     A
C240   C339    1.398   1_556 S
C241   C317    1.415   .     A
C241   C338    1.398   1_554 S
C242   C318    1.415   .     A
C242   C239    1.398   1_556 S
C243   C320    1.415   .     A
C243   C340    1.398   1_554 S
C244   O356    1.275   .     A
C244   C271    1.423   .     S
C244   O380    1.275   .     A
C245   O381    1.275   .     A
C245   O357    1.275   .     A
C245   C270    1.423   .     S
C246   O358    1.275   .     A
C246   C269    1.423   .     S
C246   O387    1.275   .     A
C247   O388    1.275   .     A
C247   O359    1.275   .     A
C247   C268    1.423   .     S
C248   O384    1.275   .     A
C248   O360    1.275   .     A
C248   C276    1.423   .     S
C249   C274    1.423   .     S
C249   O386    1.275   .     A
C249   O361    1.275   .     A
C250   O362    1.275   .     A
C250   C265    1.423   .     S
C250   O373    1.275   .     A
C251   O364    1.275   .     A
C251   C263    1.423   .     S
C251   O375    1.275   .     A
C252   C262    1.423   .     S
C252   O365    1.275   .     A
C252   O371    1.275   .     A
C253   C298    1.458   .     S
C253   O750    1.270   1_545 A
C253   O389    1.270   .     S
C254   C261    1.423   .     S
C254   O366    1.275   .     A
C254   O372    1.275   .     A
C255   C260    1.423   .     S
C255   O367    1.275   .     A
C255   O378    1.275   .     A
C256   C259    1.423   .     S
C256   O379    1.275   .     A
C256   O368    1.275   .     A
C257   O376    1.275   .     A
C257   O369    1.275   .     A
C257   C267    1.423   .     S
C258   O377    1.275   .     A
C258   O370    1.275   .     A
C258   C266    1.423   .     S
C259   C276    1.198   .     T
C260   C274    1.198   .     T
C261   C273    1.198   .     T
C262   C272    1.198   .     T
C263   C271    1.198   .     T
C264   O390    1.269   .     A
C264   C294    1.457   .     S
C265   C270    1.198   .     T
C266   C269    1.198   .     T
C267   C268    1.198   .     T
C273   C330    1.423   .     S
C275   C295    1.458   .     S
C275   O344    1.270   .     S
C277   C294    1.400   .     A
C277   C307    1.414   .     A
C278   C309    1.414   .     A
C278   C295    1.400   .     S
C279   C310    1.414   .     A
C279   C704    1.400   .     S
C280   C706    1.400   .     A
C280   C311    1.414   .     A
C281   C303    1.414   .     A
C281   C90     1.400   1_655 S
C282   C304    1.414   .     A
C282   C91     1.400   1_655 A
C283   C296    1.400   .     A
C283   C305    1.414   .     A
C284   C306    1.414   .     A
C284   C298    1.400   .     S
C285   C316    1.414   .     A
C285   C299    1.400   .     S
C286   C301    1.457   .     S
C286   O345    1.269   .     S
C286   O349    1.269   .     S
C287   C317    1.414   .     A
C287   C708    1.400   .     A
C288   C318    1.414   .     A
C288   C97     1.400   1_655 S
C289   C302    1.400   .     A
C289   C320    1.414   .     A
C290   C312    1.414   .     A
C290   C707    1.400   .     A
C291   C313    1.414   .     A
C291   C300    1.400   .     S
C292   C301    1.400   .     A
C292   C314    1.414   .     A
C293   C315    1.414   .     A
C293   C98     1.400   1_655 S
C296   C687    1.400   1_545 S
C297   C302    1.458   .     S
C297   O346    1.270   .     S
C297   O350    1.270   .     S
C298   C688    1.400   1_545 A
C299   C308    1.457   .     S
C299   C698    1.400   1_545 A
C300   C319    1.458   .     S
C300   C695    1.400   1_545 A
C303   C117    1.423   1_655 S
C303   C125    1.415   1_655 S
C304   C331    1.415   .     A
C304   C118    1.423   1_655 S
C305   C323    1.423   .     A
C305   C740    1.415   1_545 S
C306   C333    1.415   .     A
C306   C324    1.423   .     S
C307   C321    1.423   .     A
C308   O347    1.269   .     S
C308   O351    1.269   .     S
C309   C335    1.415   .     A
C309   C322    1.423   .     A
C310   C731    1.423   .     S
C310   C744    1.415   .     S
C311   C732    1.423   .     A
C311   C337    1.415   .     A
C312   C733    1.423   .     A
C312   C338    1.415   .     A
C313   C339    1.415   .     A
C313   C326    1.423   .     S
C314   C340    1.415   .     A
C314   C327    1.423   .     A
C315   C124    1.423   1_655 S
C316   C325    1.423   .     S
C317   C734    1.423   .     A
C318   C123    1.423   1_655 S
C319   O348    1.270   .     S
C319   O353    1.270   .     S
C320   C328    1.423   .     A
C321   C322    1.415   .     A
C323   C718    1.423   1_545 S
C323   C324    1.415   .     S
C324   C719    1.423   1_545 A
C325   C720    1.423   1_545 A
C325   C326    1.415   1_556 S
C326   C725    1.423   1_545 A
C326   C325    1.415   1_554 S
C327   C328    1.415   1_556 S
C328   C327    1.415   1_554 S
C329   C335    1.398   .     A
C330   O354    1.275   .     A
C330   O382    1.275   .     A
C331   C334    1.398   .     A
C331   Br10    1.936   1_655 S
C332   C337    1.398   .     A
C332   C713    1.415   .     S
C333   C336    1.398   .     A
C333   Br625   1.936   1_545 S
C334   C103    1.415   1_655 S
C336   C718    1.415   1_545 S
C337   Br629   1.936   .     S
C338   C241    1.398   1_556 S
C339   C240    1.398   1_554 S
C340   C243    1.398   1_556 S
O341   Zn404   1.934   .     S
O341   Zn396   1.934   .     S
O341   Zn393   1.934   .     S
O341   Zn808   1.934   1_545 S
O342   Zn395   1.945   .     S
O342   C661    1.270   .     A
O343   Zn398   1.945   .     S
O343   C60     1.269   1_655 S
O344   Zn397   1.945   .     S
O345   Zn407   1.945   .     S
O346   Zn406   1.945   .     S
O347   Zn401   1.945   .     S
O348   Zn393   1.945   .     S
O349   Zn403   1.945   .     S
O350   Zn402   1.945   .     S
O351   Zn405   1.945   .     S
O352   Zn401   1.934   .     S
O352   Zn399   1.934   .     S
O352   Zn405   1.934   .     S
O352   Zn803   1.934   1_545 S
O353   Zn404   1.945   .     S
O354   Zn396   1.916   .     S
O355   Zn395   1.916   .     S
O356   Zn398   1.916   .     S
O357   Zn397   1.916   .     S
O358   Zn400   1.916   .     S
O359   Zn399   1.916   .     S
O360   Zn394   1.916   .     S
O361   Zn408   1.916   .     S
O362   Zn395   1.916   .     S
O363   Zn406   1.934   .     S
O363   Zn394   1.934   .     S
O363   Zn402   1.934   .     S
O364   Zn396   1.916   .     S
O365   Zn408   1.916   .     S
O366   Zn394   1.916   .     S
O367   Zn399   1.916   .     S
O368   Zn400   1.916   .     S
O369   Zn397   1.916   .     S
O370   Zn398   1.916   .     S
O371   Zn199   1.916   1_655 S
O372   Zn402   1.916   .     S
O373   Zn813   1.916   .     S
O374   Zn403   1.934   .     S
O374   Zn407   1.934   .     S
O374   Zn397   1.934   .     S
O375   Zn404   1.916   .     S
O376   Zn407   1.916   .     S
O377   Zn202   1.916   1_655 S
O378   Zn401   1.916   .     S
O379   Zn801   1.916   .     S
O380   Zn198   1.916   1_655 S
O381   Zn403   1.916   .     S
O382   Zn393   1.916   .     S
O383   Zn809   1.916   .     S
O384   Zn406   1.916   .     S
O385   Zn400   1.945   .     S
O385   C645    1.269   .     S
O386   Zn203   1.916   1_655 S
O387   Zn812   1.916   .     S
O388   Zn405   1.916   .     S
O389   Zn399   1.945   .     S
O390   Zn394   1.945   .     S
O391   Zn408   1.945   .     S
O391   C71     1.270   1_655 A
O392   Zn396   1.945   .     S
Zn393  O787    1.916   1_545 S
Zn395  O760    1.934   .     S
Zn398  O159    1.934   1_655 S
Zn400  O749    1.934   .     S
Zn401  O791    1.916   1_545 S
Zn404  O795    1.916   1_545 S
Zn405  O781    1.916   1_545 S
Zn408  O170    1.934   1_655 S
Br409  C481    1.940   .     S
Br410  C491    1.940   .     S
Br411  C492    1.940   .     S
Br412  C493    1.940   .     S
Br413  C494    1.940   .     S
Br414  C495    1.940   .     S
Br415  C496    1.940   .     S
Br416  C497    1.940   .     S
Br417  C533    1.936   .     S
Br418  C739    1.936   1_455 S
Br419  C536    1.936   .     S
Br420  C482    1.940   .     S
Br421  C129    1.936   1_565 S
Br422  C538    1.936   .     S
Br423  C743    1.936   .     S
Br424  C540    1.936   .     S
Br426  C542    1.936   .     S
Br427  C543    1.936   .     S
Br428  C544    1.936   .     S
Br429  C443    1.936   .     S
Br430  C444    1.936   .     S
Br431  C483    1.940   .     S
Br432  C445    1.936   .     S
Br433  C446    1.936   .     S
Br434  C447    1.936   .     S
Br435  C484    1.940   .     S
Br436  C485    1.940   .     S
Br437  C486    1.940   .     S
Br438  C487    1.940   .     S
Br439  C488    1.940   .     S
Br440  C489    1.940   .     S
C441   C500    1.457   .     S
C441   O596    1.269   .     A
C442   O587    1.275   .     A
C442   C476    1.423   .     S
C442   O559    1.275   .     A
C443   C519    1.415   .     A
C443   C446    1.398   1_554 S
C444   C520    1.415   .     A
C444   C543    1.398   1_556 S
C445   C521    1.415   .     A
C445   C542    1.398   1_554 S
C446   C522    1.415   .     A
C446   C443    1.398   1_556 S
C447   C524    1.415   .     A
C447   C544    1.398   1_554 S
C448   O560    1.275   .     A
C448   C475    1.423   .     S
C448   O584    1.275   .     A
C449   O585    1.275   .     A
C449   O561    1.275   .     A
C449   C474    1.423   .     S
C450   O562    1.275   .     A
C450   C473    1.423   .     S
C450   O591    1.275   .     A
C451   O592    1.275   .     A
C451   O563    1.275   .     A
C451   C472    1.423   .     S
C452   O588    1.275   .     A
C452   O564    1.275   .     A
C452   C480    1.423   .     S
C453   C478    1.423   .     S
C453   O590    1.275   .     A
C453   O565    1.275   .     A
C454   O566    1.275   .     A
C454   C469    1.423   .     S
C454   O577    1.275   .     A
C455   O568    1.275   .     A
C455   C467    1.423   .     S
C455   O579    1.275   .     A
C456   C466    1.423   .     S
C456   O569    1.275   .     A
C456   O575    1.275   .     A
C457   C502    1.458   .     S
C457   O593    1.270   .     S
C458   C465    1.423   .     S
C458   O570    1.275   .     A
C458   O576    1.275   .     A
C459   C464    1.423   .     S
C459   O571    1.275   .     A
C459   O582    1.275   .     A
C460   C463    1.423   .     S
C460   O583    1.275   .     A
C460   O572    1.275   .     A
C461   O580    1.275   .     A
C461   O573    1.275   .     A
C461   C471    1.423   .     S
C462   O581    1.275   .     A
C462   O574    1.275   .     A
C462   C470    1.423   .     S
C463   C480    1.198   .     T
C464   C478    1.198   .     T
C465   C477    1.198   .     T
C466   C476    1.198   .     T
C467   C475    1.198   .     T
C468   O594    1.269   .     A
C468   C498    1.457   .     S
C468   O751    1.269   1_455 S
C469   C474    1.198   .     T
C470   C473    1.198   .     T
C471   C472    1.198   .     T
C477   C534    1.423   .     S
C479   O799    1.270   1_455 A
C479   C499    1.458   .     S
C479   O548    1.270   .     S
C481   C498    1.400   .     A
C481   C511    1.414   .     A
C482   C513    1.414   .     A
C482   C499    1.400   .     S
C483   C514    1.414   .     A
C483   C92     1.400   1_565 S
C484   C94     1.400   1_565 A
C484   C515    1.414   .     A
C485   C507    1.414   .     A
C485   C702    1.400   .     S
C486   C508    1.414   .     A
C486   C703    1.400   .     A
C487   C500    1.400   .     A
C487   C509    1.414   .     A
C488   C510    1.414   .     A
C488   C502    1.400   .     S
C489   C520    1.414   .     A
C489   C503    1.400   .     S
C490   C505    1.457   .     S
C490   O549    1.269   .     S
C490   O553    1.269   .     S
C491   C521    1.414   .     A
C491   C96     1.400   1_565 A
C492   C522    1.414   .     A
C492   C709    1.400   .     S
C493   C506    1.400   .     A
C493   C524    1.414   .     A
C494   C516    1.414   .     A
C494   C95     1.400   1_565 A
C495   C517    1.414   .     A
C495   C504    1.400   .     S
C496   C505    1.400   .     A
C496   C518    1.414   .     A
C497   C519    1.414   .     A
C497   C710    1.400   .     S
C498   C689    1.400   1_455 S
C499   C690    1.400   1_455 A
C501   C506    1.458   .     S
C501   O550    1.270   .     S
C501   O554    1.270   .     S
C503   C512    1.457   .     S
C504   C523    1.458   .     S
C505   C696    1.400   1_455 S
C506   C701    1.400   1_455 S
C507   C729    1.423   .     S
C507   C737    1.415   .     S
C508   C535    1.415   .     A
C508   C730    1.423   .     S
C509   C527    1.423   .     A
C510   C537    1.415   .     A
C510   C528    1.423   .     S
C511   C525    1.423   .     A
C511   C742    1.415   1_455 S
C512   O551    1.269   .     S
C512   O555    1.269   .     S
C513   C539    1.415   .     A
C513   C526    1.423   .     A
C514   C119    1.423   1_565 S
C514   C132    1.415   1_565 S
C515   C120    1.423   1_565 A
C515   C541    1.415   .     A
C516   C121    1.423   1_565 A
C516   C542    1.415   .     A
C517   C543    1.415   .     A
C517   C530    1.423   .     S
C518   C544    1.415   .     A
C518   C531    1.423   .     A
C519   C736    1.423   .     S
C520   C529    1.423   .     S
C521   C122    1.423   1_565 A
C522   C735    1.423   .     S
C523   O552    1.270   .     S
C523   O557    1.270   .     S
C524   C532    1.423   .     A
C525   C526    1.415   .     A
C525   C711    1.423   1_455 S
C526   C712    1.423   1_455 S
C527   C528    1.415   .     S
C529   C530    1.415   1_556 S
C530   C529    1.415   1_554 S
C531   C726    1.423   1_455 S
C531   C532    1.415   1_556 S
C532   C723    1.423   1_455 S
C532   C531    1.415   1_554 S
C533   C539    1.398   .     A
C533   C711    1.415   1_455 S
C534   O558    1.275   .     A
C534   O586    1.275   .     A
C535   C538    1.398   .     A
C535   Br622   1.936   .     S
C536   C541    1.398   .     A
C536   C101    1.415   1_565 S
C537   C540    1.398   .     A
C538   C715    1.415   .     S
C539   Br627   1.936   1_455 S
C541   Br17    1.936   1_565 S
C542   C445    1.398   1_556 S
C543   C444    1.398   1_554 S
C544   C447    1.398   1_556 S
O545   Zn608   1.934   .     S
O545   Zn600   1.934   .     S
O545   Zn597   1.934   .     S
O546   Zn599   1.945   .     S
O546   C49     1.270   1_565 A
O547   Zn602   1.945   .     S
O547   C672    1.269   .     S
O548   Zn601   1.945   .     S
O549   Zn611   1.945   .     S
O550   Zn610   1.945   .     S
O551   Zn605   1.945   .     S
O552   Zn597   1.945   .     S
O553   Zn607   1.945   .     S
O554   Zn606   1.945   .     S
O555   Zn609   1.945   .     S
O556   Zn605   1.934   .     S
O556   Zn603   1.934   .     S
O556   Zn609   1.934   .     S
O557   Zn608   1.945   .     S
O558   Zn600   1.916   .     S
O559   Zn599   1.916   .     S
O560   Zn602   1.916   .     S
O561   Zn601   1.916   .     S
O562   Zn604   1.916   .     S
O563   Zn603   1.916   .     S
O564   Zn598   1.916   .     S
O565   Zn612   1.916   .     S
O566   Zn599   1.916   .     S
O567   Zn806   1.934   1_455 S
O567   Zn610   1.934   .     S
O567   Zn598   1.934   .     S
O567   Zn606   1.934   .     S
O568   Zn600   1.916   .     S
O569   Zn612   1.916   .     S
O570   Zn598   1.916   .     S
O571   Zn603   1.916   .     S
O572   Zn604   1.916   .     S
O573   Zn601   1.916   .     S
O574   Zn602   1.916   .     S
O575   Zn811   1.916   .     S
O576   Zn606   1.916   .     S
O577   Zn201   1.916   1_565 S
O578   Zn816   1.934   1_455 S
O578   Zn607   1.934   .     S
O578   Zn611   1.934   .     S
O578   Zn601   1.934   .     S
O579   Zn608   1.916   .     S
O580   Zn611   1.916   .     S
O581   Zn814   1.916   .     S
O582   Zn605   1.916   .     S
O583   Zn189   1.916   1_565 S
O584   Zn810   1.916   .     S
O585   Zn607   1.916   .     S
O586   Zn597   1.916   .     S
O587   Zn197   1.916   1_565 S
O588   Zn610   1.916   .     S
O589   Zn604   1.945   .     S
O589   C33     1.269   1_565 S
O590   Zn815   1.916   .     S
O591   Zn200   1.916   1_565 S
O592   Zn609   1.916   .     S
O593   Zn603   1.945   .     S
O594   Zn598   1.945   .     S
O595   Zn612   1.945   .     S
O595   C683    1.270   .     A
O596   Zn600   1.945   .     S
Zn599  O148    1.934   1_565 S
Zn602  O771    1.934   .     S
Zn604  O137    1.934   1_565 S
Zn606  O788    1.916   1_455 S
Zn607  O779    1.916   1_455 S
Zn610  O785    1.916   1_455 S
Zn611  O794    1.916   1_455 S
Zn612  O782    1.934   .     S
Br613  C685    1.940   .     S
Br614  C695    1.940   .     S
Br615  C696    1.940   .     S
Br616  C697    1.940   .     S
Br617  C698    1.940   .     S
Br618  C699    1.940   .     S
Br619  C700    1.940   .     S
Br620  C701    1.940   .     S
Br621  C737    1.936   .     S
Br623  C740    1.936   .     S
Br624  C686    1.940   .     S
Br625  C333    1.936   1_565 S
Br626  C742    1.936   .     S
Br627  C539    1.936   1_655 S
Br628  C744    1.936   .     S
Br630  C746    1.936   .     S
Br631  C747    1.936   .     S
Br632  C748    1.936   .     S
Br633  C647    1.936   .     S
Br634  C648    1.936   .     S
Br635  C687    1.940   .     S
Br636  C649    1.936   .     S
Br637  C650    1.936   .     S
Br638  C651    1.936   .     S
Br639  C688    1.940   .     S
Br640  C689    1.940   .     S
Br641  C690    1.940   .     S
Br642  C691    1.940   .     S
Br643  C692    1.940   .     S
Br644  C693    1.940   .     S
C645   C704    1.457   .     S
C645   O800    1.269   .     A
C646   O791    1.275   .     A
C646   C680    1.423   .     S
C646   O763    1.275   .     A
C647   C723    1.415   .     A
C647   C650    1.398   1_554 S
C648   C724    1.415   .     A
C648   C747    1.398   1_556 S
C649   C725    1.415   .     A
C649   C746    1.398   1_554 S
C650   C726    1.415   .     A
C650   C647    1.398   1_556 S
C651   C728    1.415   .     A
C651   C748    1.398   1_554 S
C652   O764    1.275   .     A
C652   C679    1.423   .     S
C652   O788    1.275   .     A
C653   O789    1.275   .     A
C653   O765    1.275   .     A
C653   C678    1.423   .     S
C654   O766    1.275   .     A
C654   C677    1.423   .     S
C654   O795    1.275   .     A
C655   O796    1.275   .     A
C655   O767    1.275   .     A
C655   C676    1.423   .     S
C656   O792    1.275   .     A
C656   O768    1.275   .     A
C656   C684    1.423   .     S
C657   C682    1.423   .     S
C657   O794    1.275   .     A
C657   O769    1.275   .     A
C658   O770    1.275   .     A
C658   C673    1.423   .     S
C658   O781    1.275   .     A
C659   O772    1.275   .     A
C659   C671    1.423   .     S
C659   O783    1.275   .     A
C660   C670    1.423   .     S
C660   O773    1.275   .     A
C660   O779    1.275   .     A
C661   C706    1.458   .     S
C661   O797    1.270   .     S
C662   C669    1.423   .     S
C662   O774    1.275   .     A
C662   O780    1.275   .     A
C663   C668    1.423   .     S
C663   O775    1.275   .     A
C663   O786    1.275   .     A
C664   C667    1.423   .     S
C664   O787    1.275   .     A
C664   O776    1.275   .     A
C665   O784    1.275   .     A
C665   O777    1.275   .     A
C665   C675    1.423   .     S
C666   O785    1.275   .     A
C666   O778    1.275   .     A
C666   C674    1.423   .     S
C667   C684    1.198   .     T
C668   C682    1.198   .     T
C669   C681    1.198   .     T
C670   C680    1.198   .     T
C671   C679    1.198   .     T
C672   O798    1.269   .     A
C672   C702    1.457   .     S
C673   C678    1.198   .     T
C674   C677    1.198   .     T
C675   C676    1.198   .     T
C681   C738    1.423   .     S
C683   C703    1.458   .     S
C683   O752    1.270   .     S
C685   C702    1.400   .     A
C685   C715    1.414   .     A
C686   C717    1.414   .     A
C686   C703    1.400   .     S
C687   C718    1.414   .     A
C687   C296    1.400   1_565 S
C688   C298    1.400   1_565 A
C688   C719    1.414   .     A
C689   C711    1.414   .     A
C689   C498    1.400   1_655 S
C690   C712    1.414   .     A
C690   C499    1.400   1_655 A
C691   C704    1.400   .     A
C691   C713    1.414   .     A
C692   C714    1.414   .     A
C692   C706    1.400   .     S
C693   C724    1.414   .     A
C693   C707    1.400   .     S
C694   C709    1.457   .     S
C694   O753    1.269   .     S
C694   O757    1.269   .     S
C695   C725    1.414   .     A
C695   C300    1.400   1_565 A
C696   C726    1.414   .     A
C696   C505    1.400   1_655 S
C697   C710    1.400   .     A
C697   C728    1.414   .     A
C698   C720    1.414   .     A
C698   C299    1.400   1_565 A
C699   C721    1.414   .     A
C699   C708    1.400   .     S
C700   C709    1.400   .     A
C700   C722    1.414   .     A
C701   C723    1.414   .     A
C701   C506    1.400   1_655 S
C705   C710    1.458   .     S
C705   O754    1.270   .     S
C705   O758    1.270   .     S
C707   C716    1.457   .     S
C708   C727    1.458   .     S
C711   C525    1.423   1_655 S
C711   C533    1.415   1_655 S
C712   C739    1.415   .     A
C712   C526    1.423   1_655 S
C713   C731    1.423   .     A
C714   C741    1.415   .     A
C714   C732    1.423   .     S
C715   C729    1.423   .     A
C716   O755    1.269   .     S
C716   O759    1.269   .     S
C717   C743    1.415   .     A
C717   C730    1.423   .     A
C718   C323    1.423   1_565 S
C718   C336    1.415   1_565 S
C719   C324    1.423   1_565 A
C719   C745    1.415   .     A
C720   C325    1.423   1_565 A
C720   C746    1.415   .     A
C721   C747    1.415   .     A
C721   C734    1.423   .     S
C722   C748    1.415   .     A
C722   C735    1.423   .     A
C723   C532    1.423   1_655 S
C724   C733    1.423   .     S
C725   C326    1.423   1_565 A
C726   C531    1.423   1_655 S
C727   O756    1.270   .     S
C727   O761    1.270   .     S
C728   C736    1.423   .     A
C729   C730    1.415   .     A
C731   C732    1.415   .     S
C733   C734    1.415   1_556 S
C734   C733    1.415   1_554 S
C735   C736    1.415   1_556 S
C736   C735    1.415   1_554 S
C737   C743    1.398   .     A
C738   O762    1.275   .     A
C738   O790    1.275   .     A
C739   C742    1.398   .     A
C739   Br418   1.936   1_655 S
C740   C745    1.398   .     A
C740   C305    1.415   1_565 S
C741   C744    1.398   .     A
C742   C511    1.415   1_655 S
C745   Br221   1.936   1_565 S
C746   C649    1.398   1_556 S
C747   C648    1.398   1_554 S
C748   C651    1.398   1_556 S
O749   Zn812   1.934   .     S
O749   Zn804   1.934   .     S
O749   Zn801   1.934   .     S
O750   Zn803   1.945   .     S
O750   C253    1.270   1_565 A
O751   Zn806   1.945   .     S
O751   C468    1.269   1_655 S
O752   Zn805   1.945   .     S
O753   Zn815   1.945   .     S
O754   Zn814   1.945   .     S
O755   Zn809   1.945   .     S
O756   Zn801   1.945   .     S
O757   Zn811   1.945   .     S
O758   Zn810   1.945   .     S
O759   Zn813   1.945   .     S
O760   Zn809   1.934   .     S
O760   Zn807   1.934   .     S
O760   Zn813   1.934   .     S
O761   Zn812   1.945   .     S
O762   Zn804   1.916   .     S
O763   Zn803   1.916   .     S
O764   Zn806   1.916   .     S
O765   Zn805   1.916   .     S
O766   Zn808   1.916   .     S
O767   Zn807   1.916   .     S
O768   Zn802   1.916   .     S
O769   Zn816   1.916   .     S
O770   Zn803   1.916   .     S
O771   Zn814   1.934   .     S
O771   Zn802   1.934   .     S
O771   Zn810   1.934   .     S
O772   Zn804   1.916   .     S
O773   Zn816   1.916   .     S
O774   Zn802   1.916   .     S
O775   Zn807   1.916   .     S
O776   Zn808   1.916   .     S
O777   Zn805   1.916   .     S
O778   Zn806   1.916   .     S
O779   Zn607   1.916   1_655 S
O780   Zn810   1.916   .     S
O781   Zn405   1.916   1_565 S
O782   Zn811   1.934   .     S
O782   Zn815   1.934   .     S
O782   Zn805   1.934   .     S
O783   Zn812   1.916   .     S
O784   Zn815   1.916   .     S
O785   Zn610   1.916   1_655 S
O786   Zn809   1.916   .     S
O787   Zn393   1.916   1_565 S
O788   Zn606   1.916   1_655 S
O789   Zn811   1.916   .     S
O790   Zn801   1.916   .     S
O791   Zn401   1.916   1_565 S
O792   Zn814   1.916   .     S
O793   Zn808   1.945   .     S
O793   C237    1.269   1_565 S
O794   Zn611   1.916   1_655 S
O795   Zn404   1.916   1_565 S
O796   Zn813   1.916   .     S
O797   Zn807   1.945   .     S
O798   Zn802   1.945   .     S
O799   Zn816   1.945   .     S
O799   C479    1.270   1_655 A
O800   Zn804   1.945   .     S
Zn803  O352    1.934   1_565 S
Zn806  O567    1.934   1_655 S
Zn808  O341    1.934   1_565 S
Zn816  O578    1.934   1_655 S
