data_str_m2_o1_o2_pcu_sym.82
_audit_creation_date              2020-01-03
_audit_creation_method            'Materials Studio'
_symmetry_space_group_name_H-M    'P1'
_symmetry_Int_Tables_number       1
_symmetry_cell_setting            triclinic
loop_
_symmetry_equiv_pos_as_xyz
  x,y,z
_cell_length_a                    32.5086
_cell_length_b                    28.5914
_cell_length_c                    30.2625
_cell_angle_alpha                 90.0023
_cell_angle_beta                  90.5511
_cell_angle_gamma                 89.8314
loop_
_atom_site_label
_atom_site_type_symbol
_atom_site_fract_x
_atom_site_fract_y
_atom_site_fract_z
_atom_site_U_iso_or_equiv
_atom_site_adp_type
_atom_site_occupancy
C1     C     0.08739   0.16672   0.24996   0.00000  Uiso   1.00
C2     C     0.31172   0.20419   0.23105   0.00000  Uiso   1.00
C3     C     0.31236   0.12908   0.26891   0.00000  Uiso   1.00
C4     C     0.02098   0.20427   0.23108   0.00000  Uiso   1.00
C5     C     0.18540   0.20385   0.04762   0.00000  Uiso   1.00
C6     C     0.18567   0.13043   0.45301   0.00000  Uiso   1.00
C7     C     0.14799   0.20393   0.45241   0.00000  Uiso   1.00
C8     C     0.14791   0.13048   0.04697   0.00000  Uiso   1.00
C9     C     0.18530   0.20379   0.09360   0.00000  Uiso   1.00
C10    C     0.18550   0.13009   0.40705   0.00000  Uiso   1.00
C11    C     0.14806   0.20387   0.40642   0.00000  Uiso   1.00
C12    C     0.24594   0.16662   0.25004   0.00000  Uiso   1.00
C13    C     0.14804   0.13013   0.09293   0.00000  Uiso   1.00
C14    C     0.16669   0.16683   0.11659   0.00000  Uiso   1.00
C15    C     0.16672   0.16684   0.38341   0.00000  Uiso   1.00
C16    C     0.16668   0.16724   0.02417   0.00000  Uiso   1.00
C17    C     0.16682   0.16725   0.47583   0.00000  Uiso   1.00
C18    C     0.29055   0.16659   0.24998   0.00000  Uiso   1.00
C19    C     0.04279   0.16675   0.25001   0.00000  Uiso   1.00
C20    C     0.16665   0.16669   0.16494   0.00000  Uiso   1.00
C21    C     0.16671   0.16669   0.33506   0.00000  Uiso   1.00
C22    C     0.14098   0.02485   0.22245   0.00000  Uiso   1.00
C23    C     0.19223   0.30845   0.27768   0.00000  Uiso   1.00
C24    C     0.19227   0.02466   0.27761   0.00000  Uiso   1.00
C25    C     0.14117   0.30865   0.22226   0.00000  Uiso   1.00
C26    C     0.02162   0.12915   0.26892   0.00000  Uiso   1.00
Cu27   Cu    0.16667   0.21355   0.25000   0.00000  Uiso   1.00
Cu28   Cu    0.16667   0.11978   0.25000   0.00000  Uiso   1.00
F29    F     0.11486   0.04812   0.19506   0.00000  Uiso   1.00
F30    F     0.20468   0.09450   0.38580   0.00000  Uiso   1.00
F31    F     0.12894   0.23936   0.38449   0.00000  Uiso   1.00
F32    F     0.12895   0.09459   0.11416   0.00000  Uiso   1.00
F33    F     0.04205   0.09303   0.28847   0.00000  Uiso   1.00
F34    F     0.29128   0.24030   0.21149   0.00000  Uiso   1.00
F35    F     0.29260   0.09294   0.28850   0.00000  Uiso   1.00
F36    F     0.04074   0.24043   0.21153   0.00000  Uiso   1.00
F37    F     0.21795   0.28514   0.30553   0.00000  Uiso   1.00
F38    F     0.21802   0.04771   0.30540   0.00000  Uiso   1.00
F39    F     0.11582   0.28555   0.19403   0.00000  Uiso   1.00
F40    F     0.20446   0.23914   0.02591   0.00000  Uiso   1.00
F41    F     0.20485   0.09525   0.47534   0.00000  Uiso   1.00
F42    F     0.12887   0.23929   0.47413   0.00000  Uiso   1.00
F43    F     0.12884   0.09537   0.02462   0.00000  Uiso   1.00
F44    F     0.20433   0.23920   0.11555   0.00000  Uiso   1.00
N45    N     0.16667   0.28402   0.25000   0.00000  Uiso   1.00
N46    N     0.16667   0.04931   0.25000   0.00000  Uiso   1.00
O47    O     0.10655   0.20625   0.25000   0.00000  Uiso   1.00
O48    O     0.22679   0.12709   0.25001   0.00000  Uiso   1.00
O49    O     0.22679   0.20625   0.25001   0.00000  Uiso   1.00
O50    O     0.10655   0.12709   0.25000   0.00000  Uiso   1.00
O51    O     0.16666   0.20626   0.18573   0.00000  Uiso   1.00
O52    O     0.16667   0.12707   0.31427   0.00000  Uiso   1.00
O53    O     0.16667   0.20626   0.31427   0.00000  Uiso   1.00
O54    O     0.16666   0.12707   0.18573   0.00000  Uiso   1.00
C55    C     0.42073   0.16672   0.24996   0.00000  Uiso   1.00
C56    C     0.64505   0.20419   0.23105   0.00000  Uiso   1.00
C57    C     0.64569   0.12908   0.26891   0.00000  Uiso   1.00
C58    C     0.35431   0.20427   0.23108   0.00000  Uiso   1.00
C59    C     0.51874   0.20385   0.04762   0.00000  Uiso   1.00
C60    C     0.51900   0.13043   0.45301   0.00000  Uiso   1.00
C61    C     0.48132   0.20393   0.45241   0.00000  Uiso   1.00
C62    C     0.48124   0.13048   0.04697   0.00000  Uiso   1.00
C63    C     0.51863   0.20379   0.09360   0.00000  Uiso   1.00
C64    C     0.51883   0.13009   0.40705   0.00000  Uiso   1.00
C65    C     0.48139   0.20387   0.40642   0.00000  Uiso   1.00
C66    C     0.57927   0.16662   0.25004   0.00000  Uiso   1.00
C67    C     0.48137   0.13013   0.09293   0.00000  Uiso   1.00
C68    C     0.50003   0.16683   0.11659   0.00000  Uiso   1.00
C69    C     0.50005   0.16684   0.38341   0.00000  Uiso   1.00
C70    C     0.50001   0.16724   0.02417   0.00000  Uiso   1.00
C71    C     0.50016   0.16725   0.47583   0.00000  Uiso   1.00
C72    C     0.62388   0.16659   0.24998   0.00000  Uiso   1.00
C73    C     0.37612   0.16675   0.25001   0.00000  Uiso   1.00
C74    C     0.49998   0.16669   0.16494   0.00000  Uiso   1.00
C75    C     0.50004   0.16669   0.33506   0.00000  Uiso   1.00
C76    C     0.47432   0.02485   0.22245   0.00000  Uiso   1.00
C77    C     0.52556   0.30845   0.27768   0.00000  Uiso   1.00
C78    C     0.52561   0.02466   0.27761   0.00000  Uiso   1.00
C79    C     0.47450   0.30865   0.22226   0.00000  Uiso   1.00
C80    C     0.35495   0.12915   0.26892   0.00000  Uiso   1.00
Cu81   Cu    0.50000   0.21355   0.25000   0.00000  Uiso   1.00
Cu82   Cu    0.50000   0.11978   0.25000   0.00000  Uiso   1.00
F83    F     0.44819   0.04812   0.19506   0.00000  Uiso   1.00
F84    F     0.53802   0.09450   0.38580   0.00000  Uiso   1.00
F85    F     0.46227   0.23936   0.38449   0.00000  Uiso   1.00
F86    F     0.46228   0.09459   0.11416   0.00000  Uiso   1.00
F87    F     0.37538   0.09303   0.28847   0.00000  Uiso   1.00
F88    F     0.62461   0.24030   0.21149   0.00000  Uiso   1.00
F89    F     0.62594   0.09294   0.28850   0.00000  Uiso   1.00
F90    F     0.37407   0.24043   0.21153   0.00000  Uiso   1.00
F91    F     0.55129   0.28514   0.30553   0.00000  Uiso   1.00
F92    F     0.55136   0.04771   0.30540   0.00000  Uiso   1.00
F93    F     0.44915   0.28555   0.19403   0.00000  Uiso   1.00
F94    F     0.53780   0.23914   0.02591   0.00000  Uiso   1.00
F95    F     0.53818   0.09525   0.47534   0.00000  Uiso   1.00
F96    F     0.46220   0.23929   0.47413   0.00000  Uiso   1.00
F97    F     0.46217   0.09537   0.02462   0.00000  Uiso   1.00
F98    F     0.53766   0.23920   0.11555   0.00000  Uiso   1.00
N99    N     0.50000   0.28402   0.25000   0.00000  Uiso   1.00
N100   N     0.50000   0.04931   0.25000   0.00000  Uiso   1.00
O101   O     0.43988   0.20625   0.25000   0.00000  Uiso   1.00
O102   O     0.56012   0.12709   0.25001   0.00000  Uiso   1.00
O103   O     0.56012   0.20625   0.25001   0.00000  Uiso   1.00
O104   O     0.43988   0.12709   0.25000   0.00000  Uiso   1.00
O105   O     0.50000   0.20626   0.18573   0.00000  Uiso   1.00
O106   O     0.50000   0.12707   0.31427   0.00000  Uiso   1.00
O107   O     0.50000   0.20626   0.31427   0.00000  Uiso   1.00
O108   O     0.50000   0.12707   0.18573   0.00000  Uiso   1.00
C109   C     0.75406   0.16672   0.24996   0.00000  Uiso   1.00
C110   C     0.97838   0.20419   0.23105   0.00000  Uiso   1.00
C111   C     0.97902   0.12908   0.26891   0.00000  Uiso   1.00
C112   C     0.68764   0.20427   0.23108   0.00000  Uiso   1.00
C113   C     0.85207   0.20385   0.04762   0.00000  Uiso   1.00
C114   C     0.85234   0.13043   0.45301   0.00000  Uiso   1.00
C115   C     0.81466   0.20393   0.45241   0.00000  Uiso   1.00
C116   C     0.81458   0.13048   0.04697   0.00000  Uiso   1.00
C117   C     0.85197   0.20379   0.09360   0.00000  Uiso   1.00
C118   C     0.85217   0.13009   0.40705   0.00000  Uiso   1.00
C119   C     0.81472   0.20387   0.40642   0.00000  Uiso   1.00
C120   C     0.91261   0.16662   0.25004   0.00000  Uiso   1.00
C121   C     0.81470   0.13013   0.09293   0.00000  Uiso   1.00
C122   C     0.83336   0.16683   0.11659   0.00000  Uiso   1.00
C123   C     0.83338   0.16684   0.38341   0.00000  Uiso   1.00
C124   C     0.83334   0.16724   0.02417   0.00000  Uiso   1.00
C125   C     0.83349   0.16725   0.47583   0.00000  Uiso   1.00
C126   C     0.95721   0.16659   0.24998   0.00000  Uiso   1.00
C127   C     0.70945   0.16675   0.25001   0.00000  Uiso   1.00
C128   C     0.83331   0.16669   0.16494   0.00000  Uiso   1.00
C129   C     0.83337   0.16669   0.33506   0.00000  Uiso   1.00
C130   C     0.80765   0.02485   0.22245   0.00000  Uiso   1.00
C131   C     0.85890   0.30845   0.27768   0.00000  Uiso   1.00
C132   C     0.85894   0.02466   0.27761   0.00000  Uiso   1.00
C133   C     0.80784   0.30865   0.22226   0.00000  Uiso   1.00
C134   C     0.68828   0.12915   0.26892   0.00000  Uiso   1.00
Cu135  Cu    0.83333   0.21355   0.25000   0.00000  Uiso   1.00
Cu136  Cu    0.83333   0.11978   0.25000   0.00000  Uiso   1.00
F137   F     0.78152   0.04812   0.19506   0.00000  Uiso   1.00
F138   F     0.87135   0.09450   0.38580   0.00000  Uiso   1.00
F139   F     0.79561   0.23936   0.38449   0.00000  Uiso   1.00
F140   F     0.79561   0.09459   0.11416   0.00000  Uiso   1.00
F141   F     0.70871   0.09303   0.28847   0.00000  Uiso   1.00
F142   F     0.95795   0.24030   0.21149   0.00000  Uiso   1.00
F143   F     0.95927   0.09294   0.28850   0.00000  Uiso   1.00
F144   F     0.70740   0.24043   0.21153   0.00000  Uiso   1.00
F145   F     0.88462   0.28514   0.30553   0.00000  Uiso   1.00
F146   F     0.88469   0.04771   0.30540   0.00000  Uiso   1.00
F147   F     0.78249   0.28555   0.19403   0.00000  Uiso   1.00
F148   F     0.87113   0.23914   0.02591   0.00000  Uiso   1.00
F149   F     0.87152   0.09525   0.47534   0.00000  Uiso   1.00
F150   F     0.79553   0.23929   0.47413   0.00000  Uiso   1.00
F151   F     0.79550   0.09537   0.02462   0.00000  Uiso   1.00
F152   F     0.87099   0.23920   0.11555   0.00000  Uiso   1.00
N153   N     0.83333   0.28402   0.25000   0.00000  Uiso   1.00
N154   N     0.83333   0.04931   0.25000   0.00000  Uiso   1.00
O155   O     0.77321   0.20625   0.25000   0.00000  Uiso   1.00
O156   O     0.89345   0.12709   0.25001   0.00000  Uiso   1.00
O157   O     0.89345   0.20625   0.25001   0.00000  Uiso   1.00
O158   O     0.77321   0.12709   0.25000   0.00000  Uiso   1.00
O159   O     0.83333   0.20626   0.18573   0.00000  Uiso   1.00
O160   O     0.83334   0.12707   0.31427   0.00000  Uiso   1.00
O161   O     0.83334   0.20626   0.31427   0.00000  Uiso   1.00
O162   O     0.83333   0.12707   0.18573   0.00000  Uiso   1.00
C163   C     0.08739   0.50005   0.24996   0.00000  Uiso   1.00
C164   C     0.31172   0.53752   0.23105   0.00000  Uiso   1.00
C165   C     0.31236   0.46241   0.26891   0.00000  Uiso   1.00
C166   C     0.02098   0.53760   0.23108   0.00000  Uiso   1.00
C167   C     0.18540   0.53718   0.04762   0.00000  Uiso   1.00
C168   C     0.18567   0.46376   0.45301   0.00000  Uiso   1.00
C169   C     0.14799   0.53726   0.45241   0.00000  Uiso   1.00
C170   C     0.14791   0.46381   0.04697   0.00000  Uiso   1.00
C171   C     0.18530   0.53712   0.09360   0.00000  Uiso   1.00
C172   C     0.18550   0.46342   0.40705   0.00000  Uiso   1.00
C173   C     0.14806   0.53720   0.40642   0.00000  Uiso   1.00
C174   C     0.24594   0.49995   0.25004   0.00000  Uiso   1.00
C175   C     0.14804   0.46347   0.09293   0.00000  Uiso   1.00
C176   C     0.16669   0.50016   0.11659   0.00000  Uiso   1.00
C177   C     0.16672   0.50017   0.38341   0.00000  Uiso   1.00
C178   C     0.16668   0.50057   0.02417   0.00000  Uiso   1.00
C179   C     0.16682   0.50058   0.47583   0.00000  Uiso   1.00
C180   C     0.29055   0.49992   0.24998   0.00000  Uiso   1.00
C181   C     0.04279   0.50009   0.25001   0.00000  Uiso   1.00
C182   C     0.16665   0.50002   0.16494   0.00000  Uiso   1.00
C183   C     0.16671   0.50002   0.33506   0.00000  Uiso   1.00
C184   C     0.14098   0.35819   0.22245   0.00000  Uiso   1.00
C185   C     0.19223   0.64179   0.27768   0.00000  Uiso   1.00
C186   C     0.19227   0.35799   0.27761   0.00000  Uiso   1.00
C187   C     0.14117   0.64198   0.22226   0.00000  Uiso   1.00
C188   C     0.02162   0.46248   0.26892   0.00000  Uiso   1.00
Cu189  Cu    0.16667   0.54689   0.25000   0.00000  Uiso   1.00
Cu190  Cu    0.16667   0.45311   0.25000   0.00000  Uiso   1.00
F191   F     0.11486   0.38145   0.19506   0.00000  Uiso   1.00
F192   F     0.20468   0.42783   0.38580   0.00000  Uiso   1.00
F193   F     0.12894   0.57269   0.38449   0.00000  Uiso   1.00
F194   F     0.12895   0.42793   0.11416   0.00000  Uiso   1.00
F195   F     0.04205   0.42636   0.28847   0.00000  Uiso   1.00
F196   F     0.29128   0.57363   0.21149   0.00000  Uiso   1.00
F197   F     0.29260   0.42627   0.28850   0.00000  Uiso   1.00
F198   F     0.04074   0.57376   0.21153   0.00000  Uiso   1.00
F199   F     0.21795   0.61848   0.30553   0.00000  Uiso   1.00
F200   F     0.21802   0.38104   0.30540   0.00000  Uiso   1.00
F201   F     0.11582   0.61888   0.19403   0.00000  Uiso   1.00
F202   F     0.20446   0.57247   0.02591   0.00000  Uiso   1.00
F203   F     0.20485   0.42859   0.47534   0.00000  Uiso   1.00
F204   F     0.12887   0.57262   0.47413   0.00000  Uiso   1.00
F205   F     0.12884   0.42870   0.02462   0.00000  Uiso   1.00
F206   F     0.20433   0.57253   0.11555   0.00000  Uiso   1.00
N207   N     0.16667   0.61736   0.25000   0.00000  Uiso   1.00
N208   N     0.16667   0.38264   0.25000   0.00000  Uiso   1.00
O209   O     0.10655   0.53958   0.25000   0.00000  Uiso   1.00
O210   O     0.22679   0.46042   0.25001   0.00000  Uiso   1.00
O211   O     0.22679   0.53958   0.25001   0.00000  Uiso   1.00
O212   O     0.10655   0.46042   0.25000   0.00000  Uiso   1.00
O213   O     0.16666   0.53959   0.18573   0.00000  Uiso   1.00
O214   O     0.16667   0.46041   0.31427   0.00000  Uiso   1.00
O215   O     0.16667   0.53959   0.31427   0.00000  Uiso   1.00
O216   O     0.16666   0.46041   0.18573   0.00000  Uiso   1.00
C217   C     0.42073   0.50005   0.24996   0.00000  Uiso   1.00
C218   C     0.64505   0.53752   0.23105   0.00000  Uiso   1.00
C219   C     0.64569   0.46241   0.26891   0.00000  Uiso   1.00
C220   C     0.35431   0.53760   0.23108   0.00000  Uiso   1.00
C221   C     0.51874   0.53718   0.04762   0.00000  Uiso   1.00
C222   C     0.51900   0.46376   0.45301   0.00000  Uiso   1.00
C223   C     0.48132   0.53726   0.45241   0.00000  Uiso   1.00
C224   C     0.48124   0.46381   0.04697   0.00000  Uiso   1.00
C225   C     0.51863   0.53712   0.09360   0.00000  Uiso   1.00
C226   C     0.51883   0.46342   0.40705   0.00000  Uiso   1.00
C227   C     0.48139   0.53720   0.40642   0.00000  Uiso   1.00
C228   C     0.57927   0.49995   0.25004   0.00000  Uiso   1.00
C229   C     0.48137   0.46347   0.09293   0.00000  Uiso   1.00
C230   C     0.50003   0.50016   0.11659   0.00000  Uiso   1.00
C231   C     0.50005   0.50017   0.38341   0.00000  Uiso   1.00
C232   C     0.50001   0.50057   0.02417   0.00000  Uiso   1.00
C233   C     0.50016   0.50058   0.47583   0.00000  Uiso   1.00
C234   C     0.62388   0.49992   0.24998   0.00000  Uiso   1.00
C235   C     0.37612   0.50009   0.25001   0.00000  Uiso   1.00
C236   C     0.49998   0.50002   0.16494   0.00000  Uiso   1.00
C237   C     0.50004   0.50002   0.33506   0.00000  Uiso   1.00
C238   C     0.47432   0.35819   0.22245   0.00000  Uiso   1.00
C239   C     0.52556   0.64179   0.27768   0.00000  Uiso   1.00
C240   C     0.52561   0.35799   0.27761   0.00000  Uiso   1.00
C241   C     0.47450   0.64198   0.22226   0.00000  Uiso   1.00
C242   C     0.35495   0.46248   0.26892   0.00000  Uiso   1.00
Cu243  Cu    0.50000   0.54689   0.25000   0.00000  Uiso   1.00
Cu244  Cu    0.50000   0.45311   0.25000   0.00000  Uiso   1.00
F245   F     0.44819   0.38145   0.19506   0.00000  Uiso   1.00
F246   F     0.53802   0.42783   0.38580   0.00000  Uiso   1.00
F247   F     0.46227   0.57269   0.38449   0.00000  Uiso   1.00
F248   F     0.46228   0.42793   0.11416   0.00000  Uiso   1.00
F249   F     0.37538   0.42636   0.28847   0.00000  Uiso   1.00
F250   F     0.62461   0.57363   0.21149   0.00000  Uiso   1.00
F251   F     0.62594   0.42627   0.28850   0.00000  Uiso   1.00
F252   F     0.37407   0.57376   0.21153   0.00000  Uiso   1.00
F253   F     0.55129   0.61848   0.30553   0.00000  Uiso   1.00
F254   F     0.55136   0.38104   0.30540   0.00000  Uiso   1.00
F255   F     0.44915   0.61888   0.19403   0.00000  Uiso   1.00
F256   F     0.53780   0.57247   0.02591   0.00000  Uiso   1.00
F257   F     0.53818   0.42859   0.47534   0.00000  Uiso   1.00
F258   F     0.46220   0.57262   0.47413   0.00000  Uiso   1.00
F259   F     0.46217   0.42870   0.02462   0.00000  Uiso   1.00
F260   F     0.53766   0.57253   0.11555   0.00000  Uiso   1.00
N261   N     0.50000   0.61736   0.25000   0.00000  Uiso   1.00
N262   N     0.50000   0.38264   0.25000   0.00000  Uiso   1.00
O263   O     0.43988   0.53958   0.25000   0.00000  Uiso   1.00
O264   O     0.56012   0.46042   0.25001   0.00000  Uiso   1.00
O265   O     0.56012   0.53958   0.25001   0.00000  Uiso   1.00
O266   O     0.43988   0.46042   0.25000   0.00000  Uiso   1.00
O267   O     0.50000   0.53959   0.18573   0.00000  Uiso   1.00
O268   O     0.50000   0.46041   0.31427   0.00000  Uiso   1.00
O269   O     0.50000   0.53959   0.31427   0.00000  Uiso   1.00
O270   O     0.50000   0.46041   0.18573   0.00000  Uiso   1.00
C271   C     0.75406   0.50005   0.24996   0.00000  Uiso   1.00
C272   C     0.97838   0.53752   0.23105   0.00000  Uiso   1.00
C273   C     0.97902   0.46241   0.26891   0.00000  Uiso   1.00
C274   C     0.68764   0.53760   0.23108   0.00000  Uiso   1.00
C275   C     0.85207   0.53718   0.04762   0.00000  Uiso   1.00
C276   C     0.85234   0.46376   0.45301   0.00000  Uiso   1.00
C277   C     0.81466   0.53726   0.45241   0.00000  Uiso   1.00
C278   C     0.81458   0.46381   0.04697   0.00000  Uiso   1.00
C279   C     0.85197   0.53712   0.09360   0.00000  Uiso   1.00
C280   C     0.85217   0.46342   0.40705   0.00000  Uiso   1.00
C281   C     0.81472   0.53720   0.40642   0.00000  Uiso   1.00
C282   C     0.91261   0.49995   0.25004   0.00000  Uiso   1.00
C283   C     0.81470   0.46347   0.09293   0.00000  Uiso   1.00
C284   C     0.83336   0.50016   0.11659   0.00000  Uiso   1.00
C285   C     0.83338   0.50017   0.38341   0.00000  Uiso   1.00
C286   C     0.83334   0.50057   0.02417   0.00000  Uiso   1.00
C287   C     0.83349   0.50058   0.47583   0.00000  Uiso   1.00
C288   C     0.95721   0.49992   0.24998   0.00000  Uiso   1.00
C289   C     0.70945   0.50009   0.25001   0.00000  Uiso   1.00
C290   C     0.83331   0.50002   0.16494   0.00000  Uiso   1.00
C291   C     0.83337   0.50002   0.33506   0.00000  Uiso   1.00
C292   C     0.80765   0.35819   0.22245   0.00000  Uiso   1.00
C293   C     0.85890   0.64179   0.27768   0.00000  Uiso   1.00
C294   C     0.85894   0.35799   0.27761   0.00000  Uiso   1.00
C295   C     0.80784   0.64198   0.22226   0.00000  Uiso   1.00
C296   C     0.68828   0.46248   0.26892   0.00000  Uiso   1.00
Cu297  Cu    0.83333   0.54689   0.25000   0.00000  Uiso   1.00
Cu298  Cu    0.83333   0.45311   0.25000   0.00000  Uiso   1.00
F299   F     0.78152   0.38145   0.19506   0.00000  Uiso   1.00
F300   F     0.87135   0.42783   0.38580   0.00000  Uiso   1.00
F301   F     0.79561   0.57269   0.38449   0.00000  Uiso   1.00
F302   F     0.79561   0.42793   0.11416   0.00000  Uiso   1.00
F303   F     0.70871   0.42636   0.28847   0.00000  Uiso   1.00
F304   F     0.95795   0.57363   0.21149   0.00000  Uiso   1.00
F305   F     0.95927   0.42627   0.28850   0.00000  Uiso   1.00
F306   F     0.70740   0.57376   0.21153   0.00000  Uiso   1.00
F307   F     0.88462   0.61848   0.30553   0.00000  Uiso   1.00
F308   F     0.88469   0.38104   0.30540   0.00000  Uiso   1.00
F309   F     0.78249   0.61888   0.19403   0.00000  Uiso   1.00
F310   F     0.87113   0.57247   0.02591   0.00000  Uiso   1.00
F311   F     0.87152   0.42859   0.47534   0.00000  Uiso   1.00
F312   F     0.79553   0.57262   0.47413   0.00000  Uiso   1.00
F313   F     0.79550   0.42870   0.02462   0.00000  Uiso   1.00
F314   F     0.87099   0.57253   0.11555   0.00000  Uiso   1.00
N315   N     0.83333   0.61736   0.25000   0.00000  Uiso   1.00
N316   N     0.83333   0.38264   0.25000   0.00000  Uiso   1.00
O317   O     0.77321   0.53958   0.25000   0.00000  Uiso   1.00
O318   O     0.89345   0.46042   0.25001   0.00000  Uiso   1.00
O319   O     0.89345   0.53958   0.25001   0.00000  Uiso   1.00
O320   O     0.77321   0.46042   0.25000   0.00000  Uiso   1.00
O321   O     0.83333   0.53959   0.18573   0.00000  Uiso   1.00
O322   O     0.83334   0.46041   0.31427   0.00000  Uiso   1.00
O323   O     0.83334   0.53959   0.31427   0.00000  Uiso   1.00
O324   O     0.83333   0.46041   0.18573   0.00000  Uiso   1.00
C325   C     0.08739   0.83338   0.24996   0.00000  Uiso   1.00
C326   C     0.31172   0.87085   0.23105   0.00000  Uiso   1.00
C327   C     0.31236   0.79575   0.26891   0.00000  Uiso   1.00
C328   C     0.02098   0.87094   0.23108   0.00000  Uiso   1.00
C329   C     0.18540   0.87052   0.04762   0.00000  Uiso   1.00
C330   C     0.18567   0.79709   0.45301   0.00000  Uiso   1.00
C331   C     0.14799   0.87060   0.45241   0.00000  Uiso   1.00
C332   C     0.14791   0.79714   0.04697   0.00000  Uiso   1.00
C333   C     0.18530   0.87045   0.09360   0.00000  Uiso   1.00
C334   C     0.18550   0.79675   0.40705   0.00000  Uiso   1.00
C335   C     0.14806   0.87054   0.40642   0.00000  Uiso   1.00
C336   C     0.24594   0.83328   0.25004   0.00000  Uiso   1.00
C337   C     0.14804   0.79680   0.09293   0.00000  Uiso   1.00
C338   C     0.16669   0.83350   0.11659   0.00000  Uiso   1.00
C339   C     0.16672   0.83350   0.38341   0.00000  Uiso   1.00
C340   C     0.16668   0.83390   0.02417   0.00000  Uiso   1.00
C341   C     0.16682   0.83392   0.47583   0.00000  Uiso   1.00
C342   C     0.29055   0.83325   0.24998   0.00000  Uiso   1.00
C343   C     0.04279   0.83342   0.25001   0.00000  Uiso   1.00
C344   C     0.16665   0.83335   0.16494   0.00000  Uiso   1.00
C345   C     0.16671   0.83335   0.33506   0.00000  Uiso   1.00
C346   C     0.14098   0.69152   0.22245   0.00000  Uiso   1.00
C347   C     0.19223   0.97512   0.27768   0.00000  Uiso   1.00
C348   C     0.19227   0.69132   0.27761   0.00000  Uiso   1.00
C349   C     0.14117   0.97531   0.22226   0.00000  Uiso   1.00
C350   C     0.02162   0.79582   0.26892   0.00000  Uiso   1.00
Cu351  Cu    0.16667   0.88022   0.25000   0.00000  Uiso   1.00
Cu352  Cu    0.16667   0.78645   0.25000   0.00000  Uiso   1.00
F353   F     0.11486   0.71479   0.19506   0.00000  Uiso   1.00
F354   F     0.20468   0.76117   0.38580   0.00000  Uiso   1.00
F355   F     0.12894   0.90603   0.38449   0.00000  Uiso   1.00
F356   F     0.12895   0.76126   0.11416   0.00000  Uiso   1.00
F357   F     0.04205   0.75969   0.28847   0.00000  Uiso   1.00
F358   F     0.29128   0.90696   0.21149   0.00000  Uiso   1.00
F359   F     0.29260   0.75961   0.28850   0.00000  Uiso   1.00
F360   F     0.04074   0.90710   0.21153   0.00000  Uiso   1.00
F361   F     0.21795   0.95181   0.30553   0.00000  Uiso   1.00
F362   F     0.21802   0.71438   0.30540   0.00000  Uiso   1.00
F363   F     0.11582   0.95221   0.19403   0.00000  Uiso   1.00
F364   F     0.20446   0.90580   0.02591   0.00000  Uiso   1.00
F365   F     0.20485   0.76192   0.47534   0.00000  Uiso   1.00
F366   F     0.12887   0.90595   0.47413   0.00000  Uiso   1.00
F367   F     0.12884   0.76203   0.02462   0.00000  Uiso   1.00
F368   F     0.20433   0.90587   0.11555   0.00000  Uiso   1.00
N369   N     0.16667   0.95069   0.25000   0.00000  Uiso   1.00
N370   N     0.16667   0.71598   0.25000   0.00000  Uiso   1.00
O371   O     0.10655   0.87291   0.25000   0.00000  Uiso   1.00
O372   O     0.22679   0.79375   0.25001   0.00000  Uiso   1.00
O373   O     0.22679   0.87291   0.25001   0.00000  Uiso   1.00
O374   O     0.10655   0.79375   0.25000   0.00000  Uiso   1.00
O375   O     0.16666   0.87293   0.18573   0.00000  Uiso   1.00
O376   O     0.16667   0.79374   0.31427   0.00000  Uiso   1.00
O377   O     0.16667   0.87293   0.31427   0.00000  Uiso   1.00
O378   O     0.16666   0.79374   0.18573   0.00000  Uiso   1.00
C379   C     0.42073   0.83338   0.24996   0.00000  Uiso   1.00
C380   C     0.64505   0.87085   0.23105   0.00000  Uiso   1.00
C381   C     0.64569   0.79575   0.26891   0.00000  Uiso   1.00
C382   C     0.35431   0.87094   0.23108   0.00000  Uiso   1.00
C383   C     0.51874   0.87052   0.04762   0.00000  Uiso   1.00
C384   C     0.51900   0.79709   0.45301   0.00000  Uiso   1.00
C385   C     0.48132   0.87060   0.45241   0.00000  Uiso   1.00
C386   C     0.48124   0.79714   0.04697   0.00000  Uiso   1.00
C387   C     0.51863   0.87045   0.09360   0.00000  Uiso   1.00
C388   C     0.51883   0.79675   0.40705   0.00000  Uiso   1.00
C389   C     0.48139   0.87054   0.40642   0.00000  Uiso   1.00
C390   C     0.57927   0.83328   0.25004   0.00000  Uiso   1.00
C391   C     0.48137   0.79680   0.09293   0.00000  Uiso   1.00
C392   C     0.50003   0.83350   0.11659   0.00000  Uiso   1.00
C393   C     0.50005   0.83350   0.38341   0.00000  Uiso   1.00
C394   C     0.50001   0.83390   0.02417   0.00000  Uiso   1.00
C395   C     0.50016   0.83392   0.47583   0.00000  Uiso   1.00
C396   C     0.62388   0.83325   0.24998   0.00000  Uiso   1.00
C397   C     0.37612   0.83342   0.25001   0.00000  Uiso   1.00
C398   C     0.49998   0.83335   0.16494   0.00000  Uiso   1.00
C399   C     0.50004   0.83335   0.33506   0.00000  Uiso   1.00
C400   C     0.47432   0.69152   0.22245   0.00000  Uiso   1.00
C401   C     0.52556   0.97512   0.27768   0.00000  Uiso   1.00
C402   C     0.52561   0.69132   0.27761   0.00000  Uiso   1.00
C403   C     0.47450   0.97531   0.22226   0.00000  Uiso   1.00
C404   C     0.35495   0.79582   0.26892   0.00000  Uiso   1.00
Cu405  Cu    0.50000   0.88022   0.25000   0.00000  Uiso   1.00
Cu406  Cu    0.50000   0.78645   0.25000   0.00000  Uiso   1.00
F407   F     0.44819   0.71479   0.19506   0.00000  Uiso   1.00
F408   F     0.53802   0.76117   0.38580   0.00000  Uiso   1.00
F409   F     0.46227   0.90603   0.38449   0.00000  Uiso   1.00
F410   F     0.46228   0.76126   0.11416   0.00000  Uiso   1.00
F411   F     0.37538   0.75969   0.28847   0.00000  Uiso   1.00
F412   F     0.62461   0.90696   0.21149   0.00000  Uiso   1.00
F413   F     0.62594   0.75961   0.28850   0.00000  Uiso   1.00
F414   F     0.37407   0.90710   0.21153   0.00000  Uiso   1.00
F415   F     0.55129   0.95181   0.30553   0.00000  Uiso   1.00
F416   F     0.55136   0.71438   0.30540   0.00000  Uiso   1.00
F417   F     0.44915   0.95221   0.19403   0.00000  Uiso   1.00
F418   F     0.53780   0.90580   0.02591   0.00000  Uiso   1.00
F419   F     0.53818   0.76192   0.47534   0.00000  Uiso   1.00
F420   F     0.46220   0.90595   0.47413   0.00000  Uiso   1.00
F421   F     0.46217   0.76203   0.02462   0.00000  Uiso   1.00
F422   F     0.53766   0.90587   0.11555   0.00000  Uiso   1.00
N423   N     0.50000   0.95069   0.25000   0.00000  Uiso   1.00
N424   N     0.50000   0.71598   0.25000   0.00000  Uiso   1.00
O425   O     0.43988   0.87291   0.25000   0.00000  Uiso   1.00
O426   O     0.56012   0.79375   0.25001   0.00000  Uiso   1.00
O427   O     0.56012   0.87291   0.25001   0.00000  Uiso   1.00
O428   O     0.43988   0.79375   0.25000   0.00000  Uiso   1.00
O429   O     0.50000   0.87293   0.18573   0.00000  Uiso   1.00
O430   O     0.50000   0.79374   0.31427   0.00000  Uiso   1.00
O431   O     0.50000   0.87293   0.31427   0.00000  Uiso   1.00
O432   O     0.50000   0.79374   0.18573   0.00000  Uiso   1.00
C433   C     0.75406   0.83338   0.24996   0.00000  Uiso   1.00
C434   C     0.97838   0.87085   0.23105   0.00000  Uiso   1.00
C435   C     0.97902   0.79575   0.26891   0.00000  Uiso   1.00
C436   C     0.68764   0.87094   0.23108   0.00000  Uiso   1.00
C437   C     0.85207   0.87052   0.04762   0.00000  Uiso   1.00
C438   C     0.85234   0.79709   0.45301   0.00000  Uiso   1.00
C439   C     0.81466   0.87060   0.45241   0.00000  Uiso   1.00
C440   C     0.81458   0.79714   0.04697   0.00000  Uiso   1.00
C441   C     0.85197   0.87045   0.09360   0.00000  Uiso   1.00
C442   C     0.85217   0.79675   0.40705   0.00000  Uiso   1.00
C443   C     0.81472   0.87054   0.40642   0.00000  Uiso   1.00
C444   C     0.91261   0.83328   0.25004   0.00000  Uiso   1.00
C445   C     0.81470   0.79680   0.09293   0.00000  Uiso   1.00
C446   C     0.83336   0.83350   0.11659   0.00000  Uiso   1.00
C447   C     0.83338   0.83350   0.38341   0.00000  Uiso   1.00
C448   C     0.83334   0.83390   0.02417   0.00000  Uiso   1.00
C449   C     0.83349   0.83392   0.47583   0.00000  Uiso   1.00
C450   C     0.95721   0.83325   0.24998   0.00000  Uiso   1.00
C451   C     0.70945   0.83342   0.25001   0.00000  Uiso   1.00
C452   C     0.83331   0.83335   0.16494   0.00000  Uiso   1.00
C453   C     0.83337   0.83335   0.33506   0.00000  Uiso   1.00
C454   C     0.80765   0.69152   0.22245   0.00000  Uiso   1.00
C455   C     0.85890   0.97512   0.27768   0.00000  Uiso   1.00
C456   C     0.85894   0.69132   0.27761   0.00000  Uiso   1.00
C457   C     0.80784   0.97531   0.22226   0.00000  Uiso   1.00
C458   C     0.68828   0.79582   0.26892   0.00000  Uiso   1.00
Cu459  Cu    0.83333   0.88022   0.25000   0.00000  Uiso   1.00
Cu460  Cu    0.83333   0.78645   0.25000   0.00000  Uiso   1.00
F461   F     0.78152   0.71479   0.19506   0.00000  Uiso   1.00
F462   F     0.87135   0.76117   0.38580   0.00000  Uiso   1.00
F463   F     0.79561   0.90603   0.38449   0.00000  Uiso   1.00
F464   F     0.79561   0.76126   0.11416   0.00000  Uiso   1.00
F465   F     0.70871   0.75969   0.28847   0.00000  Uiso   1.00
F466   F     0.95795   0.90696   0.21149   0.00000  Uiso   1.00
F467   F     0.95927   0.75961   0.28850   0.00000  Uiso   1.00
F468   F     0.70740   0.90710   0.21153   0.00000  Uiso   1.00
F469   F     0.88462   0.95181   0.30553   0.00000  Uiso   1.00
F470   F     0.88469   0.71438   0.30540   0.00000  Uiso   1.00
F471   F     0.78249   0.95221   0.19403   0.00000  Uiso   1.00
F472   F     0.87113   0.90580   0.02591   0.00000  Uiso   1.00
F473   F     0.87152   0.76192   0.47534   0.00000  Uiso   1.00
F474   F     0.79553   0.90595   0.47413   0.00000  Uiso   1.00
F475   F     0.79550   0.76203   0.02462   0.00000  Uiso   1.00
F476   F     0.87099   0.90587   0.11555   0.00000  Uiso   1.00
N477   N     0.83333   0.95069   0.25000   0.00000  Uiso   1.00
N478   N     0.83333   0.71598   0.25000   0.00000  Uiso   1.00
O479   O     0.77321   0.87291   0.25000   0.00000  Uiso   1.00
O480   O     0.89345   0.79375   0.25001   0.00000  Uiso   1.00
O481   O     0.89345   0.87291   0.25001   0.00000  Uiso   1.00
O482   O     0.77321   0.79375   0.25000   0.00000  Uiso   1.00
O483   O     0.83333   0.87293   0.18573   0.00000  Uiso   1.00
O484   O     0.83334   0.79374   0.31427   0.00000  Uiso   1.00
O485   O     0.83334   0.87293   0.31427   0.00000  Uiso   1.00
O486   O     0.83333   0.79374   0.18573   0.00000  Uiso   1.00
C487   C     0.08739   0.16672   0.74996   0.00000  Uiso   1.00
C488   C     0.31172   0.20419   0.73105   0.00000  Uiso   1.00
C489   C     0.31236   0.12908   0.76891   0.00000  Uiso   1.00
C490   C     0.02098   0.20427   0.73108   0.00000  Uiso   1.00
C491   C     0.18540   0.20385   0.54762   0.00000  Uiso   1.00
C492   C     0.18567   0.13043   0.95301   0.00000  Uiso   1.00
C493   C     0.14799   0.20393   0.95241   0.00000  Uiso   1.00
C494   C     0.14791   0.13048   0.54697   0.00000  Uiso   1.00
C495   C     0.18530   0.20379   0.59360   0.00000  Uiso   1.00
C496   C     0.18550   0.13009   0.90705   0.00000  Uiso   1.00
C497   C     0.14806   0.20387   0.90642   0.00000  Uiso   1.00
C498   C     0.24594   0.16662   0.75004   0.00000  Uiso   1.00
C499   C     0.14804   0.13013   0.59293   0.00000  Uiso   1.00
C500   C     0.16669   0.16683   0.61659   0.00000  Uiso   1.00
C501   C     0.16672   0.16684   0.88341   0.00000  Uiso   1.00
C502   C     0.16668   0.16724   0.52417   0.00000  Uiso   1.00
C503   C     0.16682   0.16725   0.97583   0.00000  Uiso   1.00
C504   C     0.29055   0.16659   0.74998   0.00000  Uiso   1.00
C505   C     0.04279   0.16675   0.75001   0.00000  Uiso   1.00
C506   C     0.16665   0.16669   0.66494   0.00000  Uiso   1.00
C507   C     0.16671   0.16669   0.83506   0.00000  Uiso   1.00
C508   C     0.14098   0.02485   0.72245   0.00000  Uiso   1.00
C509   C     0.19223   0.30845   0.77768   0.00000  Uiso   1.00
C510   C     0.19227   0.02466   0.77761   0.00000  Uiso   1.00
C511   C     0.14117   0.30865   0.72226   0.00000  Uiso   1.00
C512   C     0.02162   0.12915   0.76892   0.00000  Uiso   1.00
Cu513  Cu    0.16667   0.21355   0.75000   0.00000  Uiso   1.00
Cu514  Cu    0.16667   0.11978   0.75000   0.00000  Uiso   1.00
F515   F     0.11486   0.04812   0.69506   0.00000  Uiso   1.00
F516   F     0.20468   0.09450   0.88580   0.00000  Uiso   1.00
F517   F     0.12894   0.23936   0.88449   0.00000  Uiso   1.00
F518   F     0.12895   0.09459   0.61416   0.00000  Uiso   1.00
F519   F     0.04205   0.09303   0.78847   0.00000  Uiso   1.00
F520   F     0.29128   0.24030   0.71149   0.00000  Uiso   1.00
F521   F     0.29260   0.09294   0.78850   0.00000  Uiso   1.00
F522   F     0.04074   0.24043   0.71153   0.00000  Uiso   1.00
F523   F     0.21795   0.28514   0.80553   0.00000  Uiso   1.00
F524   F     0.21802   0.04771   0.80540   0.00000  Uiso   1.00
F525   F     0.11582   0.28555   0.69403   0.00000  Uiso   1.00
F526   F     0.20446   0.23914   0.52591   0.00000  Uiso   1.00
F527   F     0.20485   0.09525   0.97534   0.00000  Uiso   1.00
F528   F     0.12887   0.23929   0.97413   0.00000  Uiso   1.00
F529   F     0.12884   0.09537   0.52462   0.00000  Uiso   1.00
F530   F     0.20433   0.23920   0.61555   0.00000  Uiso   1.00
N531   N     0.16667   0.28402   0.75000   0.00000  Uiso   1.00
N532   N     0.16667   0.04931   0.75000   0.00000  Uiso   1.00
O533   O     0.10655   0.20625   0.75000   0.00000  Uiso   1.00
O534   O     0.22679   0.12709   0.75001   0.00000  Uiso   1.00
O535   O     0.22679   0.20625   0.75001   0.00000  Uiso   1.00
O536   O     0.10655   0.12709   0.75000   0.00000  Uiso   1.00
O537   O     0.16666   0.20626   0.68573   0.00000  Uiso   1.00
O538   O     0.16667   0.12707   0.81427   0.00000  Uiso   1.00
O539   O     0.16667   0.20626   0.81427   0.00000  Uiso   1.00
O540   O     0.16666   0.12707   0.68573   0.00000  Uiso   1.00
C541   C     0.42073   0.16672   0.74996   0.00000  Uiso   1.00
C542   C     0.64505   0.20419   0.73105   0.00000  Uiso   1.00
C543   C     0.64569   0.12908   0.76891   0.00000  Uiso   1.00
C544   C     0.35431   0.20427   0.73108   0.00000  Uiso   1.00
C545   C     0.51874   0.20385   0.54762   0.00000  Uiso   1.00
C546   C     0.51900   0.13043   0.95301   0.00000  Uiso   1.00
C547   C     0.48132   0.20393   0.95241   0.00000  Uiso   1.00
C548   C     0.48124   0.13048   0.54697   0.00000  Uiso   1.00
C549   C     0.51863   0.20379   0.59360   0.00000  Uiso   1.00
C550   C     0.51883   0.13009   0.90705   0.00000  Uiso   1.00
C551   C     0.48139   0.20387   0.90642   0.00000  Uiso   1.00
C552   C     0.57927   0.16662   0.75004   0.00000  Uiso   1.00
C553   C     0.48137   0.13013   0.59293   0.00000  Uiso   1.00
C554   C     0.50003   0.16683   0.61659   0.00000  Uiso   1.00
C555   C     0.50005   0.16684   0.88341   0.00000  Uiso   1.00
C556   C     0.50001   0.16724   0.52417   0.00000  Uiso   1.00
C557   C     0.50016   0.16725   0.97583   0.00000  Uiso   1.00
C558   C     0.62388   0.16659   0.74998   0.00000  Uiso   1.00
C559   C     0.37612   0.16675   0.75001   0.00000  Uiso   1.00
C560   C     0.49998   0.16669   0.66494   0.00000  Uiso   1.00
C561   C     0.50004   0.16669   0.83506   0.00000  Uiso   1.00
C562   C     0.47432   0.02485   0.72245   0.00000  Uiso   1.00
C563   C     0.52556   0.30845   0.77768   0.00000  Uiso   1.00
C564   C     0.52561   0.02466   0.77761   0.00000  Uiso   1.00
C565   C     0.47450   0.30865   0.72226   0.00000  Uiso   1.00
C566   C     0.35495   0.12915   0.76892   0.00000  Uiso   1.00
Cu567  Cu    0.50000   0.21355   0.75000   0.00000  Uiso   1.00
Cu568  Cu    0.50000   0.11978   0.75000   0.00000  Uiso   1.00
F569   F     0.44819   0.04812   0.69506   0.00000  Uiso   1.00
F570   F     0.53802   0.09450   0.88580   0.00000  Uiso   1.00
F571   F     0.46227   0.23936   0.88449   0.00000  Uiso   1.00
F572   F     0.46228   0.09459   0.61416   0.00000  Uiso   1.00
F573   F     0.37538   0.09303   0.78847   0.00000  Uiso   1.00
F574   F     0.62461   0.24030   0.71149   0.00000  Uiso   1.00
F575   F     0.62594   0.09294   0.78850   0.00000  Uiso   1.00
F576   F     0.37407   0.24043   0.71153   0.00000  Uiso   1.00
F577   F     0.55129   0.28514   0.80553   0.00000  Uiso   1.00
F578   F     0.55136   0.04771   0.80540   0.00000  Uiso   1.00
F579   F     0.44915   0.28555   0.69403   0.00000  Uiso   1.00
F580   F     0.53780   0.23914   0.52591   0.00000  Uiso   1.00
F581   F     0.53818   0.09525   0.97534   0.00000  Uiso   1.00
F582   F     0.46220   0.23929   0.97413   0.00000  Uiso   1.00
F583   F     0.46217   0.09537   0.52462   0.00000  Uiso   1.00
F584   F     0.53766   0.23920   0.61555   0.00000  Uiso   1.00
N585   N     0.50000   0.28402   0.75000   0.00000  Uiso   1.00
N586   N     0.50000   0.04931   0.75000   0.00000  Uiso   1.00
O587   O     0.43988   0.20625   0.75000   0.00000  Uiso   1.00
O588   O     0.56012   0.12709   0.75001   0.00000  Uiso   1.00
O589   O     0.56012   0.20625   0.75001   0.00000  Uiso   1.00
O590   O     0.43988   0.12709   0.75000   0.00000  Uiso   1.00
O591   O     0.50000   0.20626   0.68573   0.00000  Uiso   1.00
O592   O     0.50000   0.12707   0.81427   0.00000  Uiso   1.00
O593   O     0.50000   0.20626   0.81427   0.00000  Uiso   1.00
O594   O     0.50000   0.12707   0.68573   0.00000  Uiso   1.00
C595   C     0.75406   0.16672   0.74996   0.00000  Uiso   1.00
C596   C     0.97838   0.20419   0.73105   0.00000  Uiso   1.00
C597   C     0.97902   0.12908   0.76891   0.00000  Uiso   1.00
C598   C     0.68764   0.20427   0.73108   0.00000  Uiso   1.00
C599   C     0.85207   0.20385   0.54762   0.00000  Uiso   1.00
C600   C     0.85234   0.13043   0.95301   0.00000  Uiso   1.00
C601   C     0.81466   0.20393   0.95241   0.00000  Uiso   1.00
C602   C     0.81458   0.13048   0.54697   0.00000  Uiso   1.00
C603   C     0.85197   0.20379   0.59360   0.00000  Uiso   1.00
C604   C     0.85217   0.13009   0.90705   0.00000  Uiso   1.00
C605   C     0.81472   0.20387   0.90642   0.00000  Uiso   1.00
C606   C     0.91261   0.16662   0.75004   0.00000  Uiso   1.00
C607   C     0.81470   0.13013   0.59293   0.00000  Uiso   1.00
C608   C     0.83336   0.16683   0.61659   0.00000  Uiso   1.00
C609   C     0.83338   0.16684   0.88341   0.00000  Uiso   1.00
C610   C     0.83334   0.16724   0.52417   0.00000  Uiso   1.00
C611   C     0.83349   0.16725   0.97583   0.00000  Uiso   1.00
C612   C     0.95721   0.16659   0.74998   0.00000  Uiso   1.00
C613   C     0.70945   0.16675   0.75001   0.00000  Uiso   1.00
C614   C     0.83331   0.16669   0.66494   0.00000  Uiso   1.00
C615   C     0.83337   0.16669   0.83506   0.00000  Uiso   1.00
C616   C     0.80765   0.02485   0.72245   0.00000  Uiso   1.00
C617   C     0.85890   0.30845   0.77768   0.00000  Uiso   1.00
C618   C     0.85894   0.02466   0.77761   0.00000  Uiso   1.00
C619   C     0.80784   0.30865   0.72226   0.00000  Uiso   1.00
C620   C     0.68828   0.12915   0.76892   0.00000  Uiso   1.00
Cu621  Cu    0.83333   0.21355   0.75000   0.00000  Uiso   1.00
Cu622  Cu    0.83333   0.11978   0.75000   0.00000  Uiso   1.00
F623   F     0.78152   0.04812   0.69506   0.00000  Uiso   1.00
F624   F     0.87135   0.09450   0.88580   0.00000  Uiso   1.00
F625   F     0.79561   0.23936   0.88449   0.00000  Uiso   1.00
F626   F     0.79561   0.09459   0.61416   0.00000  Uiso   1.00
F627   F     0.70871   0.09303   0.78847   0.00000  Uiso   1.00
F628   F     0.95795   0.24030   0.71149   0.00000  Uiso   1.00
F629   F     0.95927   0.09294   0.78850   0.00000  Uiso   1.00
F630   F     0.70740   0.24043   0.71153   0.00000  Uiso   1.00
F631   F     0.88462   0.28514   0.80553   0.00000  Uiso   1.00
F632   F     0.88469   0.04771   0.80540   0.00000  Uiso   1.00
F633   F     0.78249   0.28555   0.69403   0.00000  Uiso   1.00
F634   F     0.87113   0.23914   0.52591   0.00000  Uiso   1.00
F635   F     0.87152   0.09525   0.97534   0.00000  Uiso   1.00
F636   F     0.79553   0.23929   0.97413   0.00000  Uiso   1.00
F637   F     0.79550   0.09537   0.52462   0.00000  Uiso   1.00
F638   F     0.87099   0.23920   0.61555   0.00000  Uiso   1.00
N639   N     0.83333   0.28402   0.75000   0.00000  Uiso   1.00
N640   N     0.83333   0.04931   0.75000   0.00000  Uiso   1.00
O641   O     0.77321   0.20625   0.75000   0.00000  Uiso   1.00
O642   O     0.89345   0.12709   0.75001   0.00000  Uiso   1.00
O643   O     0.89345   0.20625   0.75001   0.00000  Uiso   1.00
O644   O     0.77321   0.12709   0.75000   0.00000  Uiso   1.00
O645   O     0.83333   0.20626   0.68573   0.00000  Uiso   1.00
O646   O     0.83334   0.12707   0.81427   0.00000  Uiso   1.00
O647   O     0.83334   0.20626   0.81427   0.00000  Uiso   1.00
O648   O     0.83333   0.12707   0.68573   0.00000  Uiso   1.00
C649   C     0.08739   0.50005   0.74996   0.00000  Uiso   1.00
C650   C     0.31172   0.53752   0.73105   0.00000  Uiso   1.00
C651   C     0.31236   0.46241   0.76891   0.00000  Uiso   1.00
C652   C     0.02098   0.53760   0.73108   0.00000  Uiso   1.00
C653   C     0.18540   0.53718   0.54762   0.00000  Uiso   1.00
C654   C     0.18567   0.46376   0.95301   0.00000  Uiso   1.00
C655   C     0.14799   0.53726   0.95241   0.00000  Uiso   1.00
C656   C     0.14791   0.46381   0.54697   0.00000  Uiso   1.00
C657   C     0.18530   0.53712   0.59360   0.00000  Uiso   1.00
C658   C     0.18550   0.46342   0.90705   0.00000  Uiso   1.00
C659   C     0.14806   0.53720   0.90642   0.00000  Uiso   1.00
C660   C     0.24594   0.49995   0.75004   0.00000  Uiso   1.00
C661   C     0.14804   0.46347   0.59293   0.00000  Uiso   1.00
C662   C     0.16669   0.50016   0.61659   0.00000  Uiso   1.00
C663   C     0.16672   0.50017   0.88341   0.00000  Uiso   1.00
C664   C     0.16668   0.50057   0.52417   0.00000  Uiso   1.00
C665   C     0.16682   0.50058   0.97583   0.00000  Uiso   1.00
C666   C     0.29055   0.49992   0.74998   0.00000  Uiso   1.00
C667   C     0.04279   0.50009   0.75001   0.00000  Uiso   1.00
C668   C     0.16665   0.50002   0.66494   0.00000  Uiso   1.00
C669   C     0.16671   0.50002   0.83506   0.00000  Uiso   1.00
C670   C     0.14098   0.35819   0.72245   0.00000  Uiso   1.00
C671   C     0.19223   0.64179   0.77768   0.00000  Uiso   1.00
C672   C     0.19227   0.35799   0.77761   0.00000  Uiso   1.00
C673   C     0.14117   0.64198   0.72226   0.00000  Uiso   1.00
C674   C     0.02162   0.46248   0.76892   0.00000  Uiso   1.00
Cu675  Cu    0.16667   0.54689   0.75000   0.00000  Uiso   1.00
Cu676  Cu    0.16667   0.45311   0.75000   0.00000  Uiso   1.00
F677   F     0.11486   0.38145   0.69506   0.00000  Uiso   1.00
F678   F     0.20468   0.42783   0.88580   0.00000  Uiso   1.00
F679   F     0.12894   0.57269   0.88449   0.00000  Uiso   1.00
F680   F     0.12895   0.42793   0.61416   0.00000  Uiso   1.00
F681   F     0.04205   0.42636   0.78847   0.00000  Uiso   1.00
F682   F     0.29128   0.57363   0.71149   0.00000  Uiso   1.00
F683   F     0.29260   0.42627   0.78850   0.00000  Uiso   1.00
F684   F     0.04074   0.57376   0.71153   0.00000  Uiso   1.00
F685   F     0.21795   0.61848   0.80553   0.00000  Uiso   1.00
F686   F     0.21802   0.38104   0.80540   0.00000  Uiso   1.00
F687   F     0.11582   0.61888   0.69403   0.00000  Uiso   1.00
F688   F     0.20446   0.57247   0.52591   0.00000  Uiso   1.00
F689   F     0.20485   0.42859   0.97534   0.00000  Uiso   1.00
F690   F     0.12887   0.57262   0.97413   0.00000  Uiso   1.00
F691   F     0.12884   0.42870   0.52462   0.00000  Uiso   1.00
F692   F     0.20433   0.57253   0.61555   0.00000  Uiso   1.00
N693   N     0.16667   0.61736   0.75000   0.00000  Uiso   1.00
N694   N     0.16667   0.38264   0.75000   0.00000  Uiso   1.00
O695   O     0.10655   0.53958   0.75000   0.00000  Uiso   1.00
O696   O     0.22679   0.46042   0.75001   0.00000  Uiso   1.00
O697   O     0.22679   0.53958   0.75001   0.00000  Uiso   1.00
O698   O     0.10655   0.46042   0.75000   0.00000  Uiso   1.00
O699   O     0.16666   0.53959   0.68573   0.00000  Uiso   1.00
O700   O     0.16667   0.46041   0.81427   0.00000  Uiso   1.00
O701   O     0.16667   0.53959   0.81427   0.00000  Uiso   1.00
O702   O     0.16666   0.46041   0.68573   0.00000  Uiso   1.00
C703   C     0.42073   0.50005   0.74996   0.00000  Uiso   1.00
C704   C     0.64505   0.53752   0.73105   0.00000  Uiso   1.00
C705   C     0.64569   0.46241   0.76891   0.00000  Uiso   1.00
C706   C     0.35431   0.53760   0.73108   0.00000  Uiso   1.00
C707   C     0.51874   0.53718   0.54762   0.00000  Uiso   1.00
C708   C     0.51900   0.46376   0.95301   0.00000  Uiso   1.00
C709   C     0.48132   0.53726   0.95241   0.00000  Uiso   1.00
C710   C     0.48124   0.46381   0.54697   0.00000  Uiso   1.00
C711   C     0.51863   0.53712   0.59360   0.00000  Uiso   1.00
C712   C     0.51883   0.46342   0.90705   0.00000  Uiso   1.00
C713   C     0.48139   0.53720   0.90642   0.00000  Uiso   1.00
C714   C     0.57927   0.49995   0.75004   0.00000  Uiso   1.00
C715   C     0.48137   0.46347   0.59293   0.00000  Uiso   1.00
C716   C     0.50003   0.50016   0.61659   0.00000  Uiso   1.00
C717   C     0.50005   0.50017   0.88341   0.00000  Uiso   1.00
C718   C     0.50001   0.50057   0.52417   0.00000  Uiso   1.00
C719   C     0.50016   0.50058   0.97583   0.00000  Uiso   1.00
C720   C     0.62388   0.49992   0.74998   0.00000  Uiso   1.00
C721   C     0.37612   0.50009   0.75001   0.00000  Uiso   1.00
C722   C     0.49998   0.50002   0.66494   0.00000  Uiso   1.00
C723   C     0.50004   0.50002   0.83506   0.00000  Uiso   1.00
C724   C     0.47432   0.35819   0.72245   0.00000  Uiso   1.00
C725   C     0.52556   0.64179   0.77768   0.00000  Uiso   1.00
C726   C     0.52561   0.35799   0.77761   0.00000  Uiso   1.00
C727   C     0.47450   0.64198   0.72226   0.00000  Uiso   1.00
C728   C     0.35495   0.46248   0.76892   0.00000  Uiso   1.00
Cu729  Cu    0.50000   0.54689   0.75000   0.00000  Uiso   1.00
Cu730  Cu    0.50000   0.45311   0.75000   0.00000  Uiso   1.00
F731   F     0.44819   0.38145   0.69506   0.00000  Uiso   1.00
F732   F     0.53802   0.42783   0.88580   0.00000  Uiso   1.00
F733   F     0.46227   0.57269   0.88449   0.00000  Uiso   1.00
F734   F     0.46228   0.42793   0.61416   0.00000  Uiso   1.00
F735   F     0.37538   0.42636   0.78847   0.00000  Uiso   1.00
F736   F     0.62461   0.57363   0.71149   0.00000  Uiso   1.00
F737   F     0.62594   0.42627   0.78850   0.00000  Uiso   1.00
F738   F     0.37407   0.57376   0.71153   0.00000  Uiso   1.00
F739   F     0.55129   0.61848   0.80553   0.00000  Uiso   1.00
F740   F     0.55136   0.38104   0.80540   0.00000  Uiso   1.00
F741   F     0.44915   0.61888   0.69403   0.00000  Uiso   1.00
F742   F     0.53780   0.57247   0.52591   0.00000  Uiso   1.00
F743   F     0.53818   0.42859   0.97534   0.00000  Uiso   1.00
F744   F     0.46220   0.57262   0.97413   0.00000  Uiso   1.00
F745   F     0.46217   0.42870   0.52462   0.00000  Uiso   1.00
F746   F     0.53766   0.57253   0.61555   0.00000  Uiso   1.00
N747   N     0.50000   0.61736   0.75000   0.00000  Uiso   1.00
N748   N     0.50000   0.38264   0.75000   0.00000  Uiso   1.00
O749   O     0.43988   0.53958   0.75000   0.00000  Uiso   1.00
O750   O     0.56012   0.46042   0.75001   0.00000  Uiso   1.00
O751   O     0.56012   0.53958   0.75001   0.00000  Uiso   1.00
O752   O     0.43988   0.46042   0.75000   0.00000  Uiso   1.00
O753   O     0.50000   0.53959   0.68573   0.00000  Uiso   1.00
O754   O     0.50000   0.46041   0.81427   0.00000  Uiso   1.00
O755   O     0.50000   0.53959   0.81427   0.00000  Uiso   1.00
O756   O     0.50000   0.46041   0.68573   0.00000  Uiso   1.00
C757   C     0.75406   0.50005   0.74996   0.00000  Uiso   1.00
C758   C     0.97838   0.53752   0.73105   0.00000  Uiso   1.00
C759   C     0.97902   0.46241   0.76891   0.00000  Uiso   1.00
C760   C     0.68764   0.53760   0.73108   0.00000  Uiso   1.00
C761   C     0.85207   0.53718   0.54762   0.00000  Uiso   1.00
C762   C     0.85234   0.46376   0.95301   0.00000  Uiso   1.00
C763   C     0.81466   0.53726   0.95241   0.00000  Uiso   1.00
C764   C     0.81458   0.46381   0.54697   0.00000  Uiso   1.00
C765   C     0.85197   0.53712   0.59360   0.00000  Uiso   1.00
C766   C     0.85217   0.46342   0.90705   0.00000  Uiso   1.00
C767   C     0.81472   0.53720   0.90642   0.00000  Uiso   1.00
C768   C     0.91261   0.49995   0.75004   0.00000  Uiso   1.00
C769   C     0.81470   0.46347   0.59293   0.00000  Uiso   1.00
C770   C     0.83336   0.50016   0.61659   0.00000  Uiso   1.00
C771   C     0.83338   0.50017   0.88341   0.00000  Uiso   1.00
C772   C     0.83334   0.50057   0.52417   0.00000  Uiso   1.00
C773   C     0.83349   0.50058   0.97583   0.00000  Uiso   1.00
C774   C     0.95721   0.49992   0.74998   0.00000  Uiso   1.00
C775   C     0.70945   0.50009   0.75001   0.00000  Uiso   1.00
C776   C     0.83331   0.50002   0.66494   0.00000  Uiso   1.00
C777   C     0.83337   0.50002   0.83506   0.00000  Uiso   1.00
C778   C     0.80765   0.35819   0.72245   0.00000  Uiso   1.00
C779   C     0.85890   0.64179   0.77768   0.00000  Uiso   1.00
C780   C     0.85894   0.35799   0.77761   0.00000  Uiso   1.00
C781   C     0.80784   0.64198   0.72226   0.00000  Uiso   1.00
C782   C     0.68828   0.46248   0.76892   0.00000  Uiso   1.00
Cu783  Cu    0.83333   0.54689   0.75000   0.00000  Uiso   1.00
Cu784  Cu    0.83333   0.45311   0.75000   0.00000  Uiso   1.00
F785   F     0.78152   0.38145   0.69506   0.00000  Uiso   1.00
F786   F     0.87135   0.42783   0.88580   0.00000  Uiso   1.00
F787   F     0.79561   0.57269   0.88449   0.00000  Uiso   1.00
F788   F     0.79561   0.42793   0.61416   0.00000  Uiso   1.00
F789   F     0.70871   0.42636   0.78847   0.00000  Uiso   1.00
F790   F     0.95795   0.57363   0.71149   0.00000  Uiso   1.00
F791   F     0.95927   0.42627   0.78850   0.00000  Uiso   1.00
F792   F     0.70740   0.57376   0.71153   0.00000  Uiso   1.00
F793   F     0.88462   0.61848   0.80553   0.00000  Uiso   1.00
F794   F     0.88469   0.38104   0.80540   0.00000  Uiso   1.00
F795   F     0.78249   0.61888   0.69403   0.00000  Uiso   1.00
F796   F     0.87113   0.57247   0.52591   0.00000  Uiso   1.00
F797   F     0.87152   0.42859   0.97534   0.00000  Uiso   1.00
F798   F     0.79553   0.57262   0.97413   0.00000  Uiso   1.00
F799   F     0.79550   0.42870   0.52462   0.00000  Uiso   1.00
F800   F     0.87099   0.57253   0.61555   0.00000  Uiso   1.00
N801   N     0.83333   0.61736   0.75000   0.00000  Uiso   1.00
N802   N     0.83333   0.38264   0.75000   0.00000  Uiso   1.00
O803   O     0.77321   0.53958   0.75000   0.00000  Uiso   1.00
O804   O     0.89345   0.46042   0.75001   0.00000  Uiso   1.00
O805   O     0.89345   0.53958   0.75001   0.00000  Uiso   1.00
O806   O     0.77321   0.46042   0.75000   0.00000  Uiso   1.00
O807   O     0.83333   0.53959   0.68573   0.00000  Uiso   1.00
O808   O     0.83334   0.46041   0.81427   0.00000  Uiso   1.00
O809   O     0.83334   0.53959   0.81427   0.00000  Uiso   1.00
O810   O     0.83333   0.46041   0.68573   0.00000  Uiso   1.00
C811   C     0.08739   0.83338   0.74996   0.00000  Uiso   1.00
C812   C     0.31172   0.87085   0.73105   0.00000  Uiso   1.00
C813   C     0.31236   0.79575   0.76891   0.00000  Uiso   1.00
C814   C     0.02098   0.87094   0.73108   0.00000  Uiso   1.00
C815   C     0.18540   0.87052   0.54762   0.00000  Uiso   1.00
C816   C     0.18567   0.79709   0.95301   0.00000  Uiso   1.00
C817   C     0.14799   0.87060   0.95241   0.00000  Uiso   1.00
C818   C     0.14791   0.79714   0.54697   0.00000  Uiso   1.00
C819   C     0.18530   0.87045   0.59360   0.00000  Uiso   1.00
C820   C     0.18550   0.79675   0.90705   0.00000  Uiso   1.00
C821   C     0.14806   0.87054   0.90642   0.00000  Uiso   1.00
C822   C     0.24594   0.83328   0.75004   0.00000  Uiso   1.00
C823   C     0.14804   0.79680   0.59293   0.00000  Uiso   1.00
C824   C     0.16669   0.83350   0.61659   0.00000  Uiso   1.00
C825   C     0.16672   0.83350   0.88341   0.00000  Uiso   1.00
C826   C     0.16668   0.83390   0.52417   0.00000  Uiso   1.00
C827   C     0.16682   0.83392   0.97583   0.00000  Uiso   1.00
C828   C     0.29055   0.83325   0.74998   0.00000  Uiso   1.00
C829   C     0.04279   0.83342   0.75001   0.00000  Uiso   1.00
C830   C     0.16665   0.83335   0.66494   0.00000  Uiso   1.00
C831   C     0.16671   0.83335   0.83506   0.00000  Uiso   1.00
C832   C     0.14098   0.69152   0.72245   0.00000  Uiso   1.00
C833   C     0.19223   0.97512   0.77768   0.00000  Uiso   1.00
C834   C     0.19227   0.69132   0.77761   0.00000  Uiso   1.00
C835   C     0.14117   0.97531   0.72226   0.00000  Uiso   1.00
C836   C     0.02162   0.79582   0.76892   0.00000  Uiso   1.00
Cu837  Cu    0.16667   0.88022   0.75000   0.00000  Uiso   1.00
Cu838  Cu    0.16667   0.78645   0.75000   0.00000  Uiso   1.00
F839   F     0.11486   0.71479   0.69506   0.00000  Uiso   1.00
F840   F     0.20468   0.76117   0.88580   0.00000  Uiso   1.00
F841   F     0.12894   0.90603   0.88449   0.00000  Uiso   1.00
F842   F     0.12895   0.76126   0.61416   0.00000  Uiso   1.00
F843   F     0.04205   0.75969   0.78847   0.00000  Uiso   1.00
F844   F     0.29128   0.90696   0.71149   0.00000  Uiso   1.00
F845   F     0.29260   0.75961   0.78850   0.00000  Uiso   1.00
F846   F     0.04074   0.90710   0.71153   0.00000  Uiso   1.00
F847   F     0.21795   0.95181   0.80553   0.00000  Uiso   1.00
F848   F     0.21802   0.71438   0.80540   0.00000  Uiso   1.00
F849   F     0.11582   0.95221   0.69403   0.00000  Uiso   1.00
F850   F     0.20446   0.90580   0.52591   0.00000  Uiso   1.00
F851   F     0.20485   0.76192   0.97534   0.00000  Uiso   1.00
F852   F     0.12887   0.90595   0.97413   0.00000  Uiso   1.00
F853   F     0.12884   0.76203   0.52462   0.00000  Uiso   1.00
F854   F     0.20433   0.90587   0.61555   0.00000  Uiso   1.00
N855   N     0.16667   0.95069   0.75000   0.00000  Uiso   1.00
N856   N     0.16667   0.71598   0.75000   0.00000  Uiso   1.00
O857   O     0.10655   0.87291   0.75000   0.00000  Uiso   1.00
O858   O     0.22679   0.79375   0.75001   0.00000  Uiso   1.00
O859   O     0.22679   0.87291   0.75001   0.00000  Uiso   1.00
O860   O     0.10655   0.79375   0.75000   0.00000  Uiso   1.00
O861   O     0.16666   0.87293   0.68573   0.00000  Uiso   1.00
O862   O     0.16667   0.79374   0.81427   0.00000  Uiso   1.00
O863   O     0.16667   0.87293   0.81427   0.00000  Uiso   1.00
O864   O     0.16666   0.79374   0.68573   0.00000  Uiso   1.00
C865   C     0.42073   0.83338   0.74996   0.00000  Uiso   1.00
C866   C     0.64505   0.87085   0.73105   0.00000  Uiso   1.00
C867   C     0.64569   0.79575   0.76891   0.00000  Uiso   1.00
C868   C     0.35431   0.87094   0.73108   0.00000  Uiso   1.00
C869   C     0.51874   0.87052   0.54762   0.00000  Uiso   1.00
C870   C     0.51900   0.79709   0.95301   0.00000  Uiso   1.00
C871   C     0.48132   0.87060   0.95241   0.00000  Uiso   1.00
C872   C     0.48124   0.79714   0.54697   0.00000  Uiso   1.00
C873   C     0.51863   0.87045   0.59360   0.00000  Uiso   1.00
C874   C     0.51883   0.79675   0.90705   0.00000  Uiso   1.00
C875   C     0.48139   0.87054   0.90642   0.00000  Uiso   1.00
C876   C     0.57927   0.83328   0.75004   0.00000  Uiso   1.00
C877   C     0.48137   0.79680   0.59293   0.00000  Uiso   1.00
C878   C     0.50003   0.83350   0.61659   0.00000  Uiso   1.00
C879   C     0.50005   0.83350   0.88341   0.00000  Uiso   1.00
C880   C     0.50001   0.83390   0.52417   0.00000  Uiso   1.00
C881   C     0.50016   0.83392   0.97583   0.00000  Uiso   1.00
C882   C     0.62388   0.83325   0.74998   0.00000  Uiso   1.00
C883   C     0.37612   0.83342   0.75001   0.00000  Uiso   1.00
C884   C     0.49998   0.83335   0.66494   0.00000  Uiso   1.00
C885   C     0.50004   0.83335   0.83506   0.00000  Uiso   1.00
C886   C     0.47432   0.69152   0.72245   0.00000  Uiso   1.00
C887   C     0.52556   0.97512   0.77768   0.00000  Uiso   1.00
C888   C     0.52561   0.69132   0.77761   0.00000  Uiso   1.00
C889   C     0.47450   0.97531   0.72226   0.00000  Uiso   1.00
C890   C     0.35495   0.79582   0.76892   0.00000  Uiso   1.00
Cu891  Cu    0.50000   0.88022   0.75000   0.00000  Uiso   1.00
Cu892  Cu    0.50000   0.78645   0.75000   0.00000  Uiso   1.00
F893   F     0.44819   0.71479   0.69506   0.00000  Uiso   1.00
F894   F     0.53802   0.76117   0.88580   0.00000  Uiso   1.00
F895   F     0.46227   0.90603   0.88449   0.00000  Uiso   1.00
F896   F     0.46228   0.76126   0.61416   0.00000  Uiso   1.00
F897   F     0.37538   0.75969   0.78847   0.00000  Uiso   1.00
F898   F     0.62461   0.90696   0.71149   0.00000  Uiso   1.00
F899   F     0.62594   0.75961   0.78850   0.00000  Uiso   1.00
F900   F     0.37407   0.90710   0.71153   0.00000  Uiso   1.00
F901   F     0.55129   0.95181   0.80553   0.00000  Uiso   1.00
F902   F     0.55136   0.71438   0.80540   0.00000  Uiso   1.00
F903   F     0.44915   0.95221   0.69403   0.00000  Uiso   1.00
F904   F     0.53780   0.90580   0.52591   0.00000  Uiso   1.00
F905   F     0.53818   0.76192   0.97534   0.00000  Uiso   1.00
F906   F     0.46220   0.90595   0.97413   0.00000  Uiso   1.00
F907   F     0.46217   0.76203   0.52462   0.00000  Uiso   1.00
F908   F     0.53766   0.90587   0.61555   0.00000  Uiso   1.00
N909   N     0.50000   0.95069   0.75000   0.00000  Uiso   1.00
N910   N     0.50000   0.71598   0.75000   0.00000  Uiso   1.00
O911   O     0.43988   0.87291   0.75000   0.00000  Uiso   1.00
O912   O     0.56012   0.79375   0.75001   0.00000  Uiso   1.00
O913   O     0.56012   0.87291   0.75001   0.00000  Uiso   1.00
O914   O     0.43988   0.79375   0.75000   0.00000  Uiso   1.00
O915   O     0.50000   0.87293   0.68573   0.00000  Uiso   1.00
O916   O     0.50000   0.79374   0.81427   0.00000  Uiso   1.00
O917   O     0.50000   0.87293   0.81427   0.00000  Uiso   1.00
O918   O     0.50000   0.79374   0.68573   0.00000  Uiso   1.00
C919   C     0.75406   0.83338   0.74996   0.00000  Uiso   1.00
C920   C     0.97838   0.87085   0.73105   0.00000  Uiso   1.00
C921   C     0.97902   0.79575   0.76891   0.00000  Uiso   1.00
C922   C     0.68764   0.87094   0.73108   0.00000  Uiso   1.00
C923   C     0.85207   0.87052   0.54762   0.00000  Uiso   1.00
C924   C     0.85234   0.79709   0.95301   0.00000  Uiso   1.00
C925   C     0.81466   0.87060   0.95241   0.00000  Uiso   1.00
C926   C     0.81458   0.79714   0.54697   0.00000  Uiso   1.00
C927   C     0.85197   0.87045   0.59360   0.00000  Uiso   1.00
C928   C     0.85217   0.79675   0.90705   0.00000  Uiso   1.00
C929   C     0.81472   0.87054   0.90642   0.00000  Uiso   1.00
C930   C     0.91261   0.83328   0.75004   0.00000  Uiso   1.00
C931   C     0.81470   0.79680   0.59293   0.00000  Uiso   1.00
C932   C     0.83336   0.83350   0.61659   0.00000  Uiso   1.00
C933   C     0.83338   0.83350   0.88341   0.00000  Uiso   1.00
C934   C     0.83334   0.83390   0.52417   0.00000  Uiso   1.00
C935   C     0.83349   0.83392   0.97583   0.00000  Uiso   1.00
C936   C     0.95721   0.83325   0.74998   0.00000  Uiso   1.00
C937   C     0.70945   0.83342   0.75001   0.00000  Uiso   1.00
C938   C     0.83331   0.83335   0.66494   0.00000  Uiso   1.00
C939   C     0.83337   0.83335   0.83506   0.00000  Uiso   1.00
C940   C     0.80765   0.69152   0.72245   0.00000  Uiso   1.00
C941   C     0.85890   0.97512   0.77768   0.00000  Uiso   1.00
C942   C     0.85894   0.69132   0.77761   0.00000  Uiso   1.00
C943   C     0.80784   0.97531   0.72226   0.00000  Uiso   1.00
C944   C     0.68828   0.79582   0.76892   0.00000  Uiso   1.00
Cu945  Cu    0.83333   0.88022   0.75000   0.00000  Uiso   1.00
Cu946  Cu    0.83333   0.78645   0.75000   0.00000  Uiso   1.00
F947   F     0.78152   0.71479   0.69506   0.00000  Uiso   1.00
F948   F     0.87135   0.76117   0.88580   0.00000  Uiso   1.00
F949   F     0.79561   0.90603   0.88449   0.00000  Uiso   1.00
F950   F     0.79561   0.76126   0.61416   0.00000  Uiso   1.00
F951   F     0.70871   0.75969   0.78847   0.00000  Uiso   1.00
F952   F     0.95795   0.90696   0.71149   0.00000  Uiso   1.00
F953   F     0.95927   0.75961   0.78850   0.00000  Uiso   1.00
F954   F     0.70740   0.90710   0.71153   0.00000  Uiso   1.00
F955   F     0.88462   0.95181   0.80553   0.00000  Uiso   1.00
F956   F     0.88469   0.71438   0.80540   0.00000  Uiso   1.00
F957   F     0.78249   0.95221   0.69403   0.00000  Uiso   1.00
F958   F     0.87113   0.90580   0.52591   0.00000  Uiso   1.00
F959   F     0.87152   0.76192   0.97534   0.00000  Uiso   1.00
F960   F     0.79553   0.90595   0.97413   0.00000  Uiso   1.00
F961   F     0.79550   0.76203   0.52462   0.00000  Uiso   1.00
F962   F     0.87099   0.90587   0.61555   0.00000  Uiso   1.00
N963   N     0.83333   0.95069   0.75000   0.00000  Uiso   1.00
N964   N     0.83333   0.71598   0.75000   0.00000  Uiso   1.00
O965   O     0.77321   0.87291   0.75000   0.00000  Uiso   1.00
O966   O     0.89345   0.79375   0.75001   0.00000  Uiso   1.00
O967   O     0.89345   0.87291   0.75001   0.00000  Uiso   1.00
O968   O     0.77321   0.79375   0.75000   0.00000  Uiso   1.00
O969   O     0.83333   0.87293   0.68573   0.00000  Uiso   1.00
O970   O     0.83334   0.79374   0.81427   0.00000  Uiso   1.00
O971   O     0.83334   0.87293   0.81427   0.00000  Uiso   1.00
O972   O     0.83333   0.79374   0.68573   0.00000  Uiso   1.00
loop_
_geom_bond_atom_site_label_1
_geom_bond_atom_site_label_2
_geom_bond_distance
_geom_bond_site_symmetry_2
_ccdc_geom_bond_type
C1     O50     1.291   .     A
C1     C19     1.450   .     S
C1     O47     1.292   .     A
C2     C18     1.403   .     A
C2     F34     1.359   .     S
C2     C58     1.385   .     S
C3     F35     1.357   .     S
C3     C18     1.403   .     A
C3     C80     1.385   .     S
C4     F36     1.358   .     S
C4     C19     1.403   .     A
C4     C110    1.385   1_455 S
C5     C9      1.392   .     A
C5     C16     1.402   .     A
C5     F40     1.358   .     S
C6     C10     1.391   .     A
C6     C17     1.402   .     A
C6     F41     1.358   .     S
C7     C11     1.392   .     A
C7     F42     1.358   .     S
C7     C17     1.402   .     A
C8     C13     1.391   .     A
C8     F43     1.358   .     S
C8     C16     1.402   .     A
C9     C14     1.407   .     A
C9     F44     1.358   .     S
C10    F30     1.357   .     S
C10    C15     1.406   .     A
C11    F31     1.358   .     S
C11    C15     1.407   .     A
C12    O48     1.292   .     A
C12    O49     1.291   .     A
C12    C18     1.450   .     S
C13    C14     1.406   .     A
C13    F32     1.357   .     S
C14    C20     1.463   .     S
C15    C21     1.463   .     S
C16    C503    1.463   1_554 S
C17    C502    1.463   .     S
C19    C26     1.403   .     A
C20    O51     1.295   .     A
C20    O54     1.296   .     A
C21    O53     1.295   .     A
C21    O52     1.296   .     A
C22    F29     1.354   .     S
C22    N46     1.368   .     A
C22    C349    1.416   1_545 S
C23    N45     1.367   .     A
C23    F37     1.355   .     S
C23    C186    1.416   .     S
C24    F38     1.353   .     S
C24    N46     1.368   .     A
C24    C347    1.416   1_545 S
C25    N45     1.368   .     A
C25    F39     1.354   .     S
C25    C184    1.416   .     S
C26    F33     1.359   .     S
C26    C111    1.385   1_455 S
Cu27   N45     2.015   .     S
Cu27   O53     1.956   .     S
Cu27   O51     1.956   .     S
Cu27   O47     1.966   .     S
Cu27   Cu28    2.681   .     S
Cu27   O49     1.965   .     S
Cu28   O52     1.956   .     S
Cu28   N46     2.015   .     S
Cu28   O50     1.965   .     S
Cu28   O54     1.956   .     S
Cu28   O48     1.966   .     S
C55    O104    1.291   .     A
C55    C73     1.450   .     S
C55    O101    1.292   .     A
C56    C72     1.403   .     A
C56    F88     1.359   .     S
C56    C112    1.385   .     S
C57    F89     1.357   .     S
C57    C72     1.403   .     A
C57    C134    1.385   .     S
C58    F90     1.358   .     S
C58    C73     1.403   .     A
C59    C63     1.392   .     A
C59    C70     1.402   .     A
C59    F94     1.358   .     S
C60    C64     1.391   .     A
C60    C71     1.402   .     A
C60    F95     1.358   .     S
C61    C65     1.392   .     A
C61    F96     1.358   .     S
C61    C71     1.402   .     A
C62    C67     1.391   .     A
C62    F97     1.358   .     S
C62    C70     1.402   .     A
C63    C68     1.407   .     A
C63    F98     1.358   .     S
C64    F84     1.357   .     S
C64    C69     1.406   .     A
C65    F85     1.358   .     S
C65    C69     1.407   .     A
C66    O102    1.292   .     A
C66    O103    1.291   .     A
C66    C72     1.450   .     S
C67    C68     1.406   .     A
C67    F86     1.357   .     S
C68    C74     1.463   .     S
C69    C75     1.463   .     S
C70    C557    1.463   1_554 S
C71    C556    1.463   .     S
C73    C80     1.403   .     A
C74    O105    1.295   .     A
C74    O108    1.296   .     A
C75    O107    1.295   .     A
C75    O106    1.296   .     A
C76    F83     1.354   .     S
C76    N100    1.368   .     A
C76    C403    1.416   1_545 S
C77    N99     1.367   .     A
C77    F91     1.355   .     S
C77    C240    1.416   .     S
C78    F92     1.353   .     S
C78    N100    1.368   .     A
C78    C401    1.416   1_545 S
C79    N99     1.368   .     A
C79    F93     1.354   .     S
C79    C238    1.416   .     S
C80    F87     1.359   .     S
Cu81   N99     2.015   .     S
Cu81   O107    1.956   .     S
Cu81   O105    1.956   .     S
Cu81   O101    1.966   .     S
Cu81   Cu82    2.681   .     S
Cu81   O103    1.965   .     S
Cu82   O106    1.956   .     S
Cu82   N100    2.015   .     S
Cu82   O104    1.965   .     S
Cu82   O108    1.956   .     S
Cu82   O102    1.966   .     S
C109   O158    1.291   .     A
C109   C127    1.450   .     S
C109   O155    1.292   .     A
C110   C126    1.403   .     A
C110   F142    1.359   .     S
C110   C4      1.385   1_655 S
C111   F143    1.357   .     S
C111   C126    1.403   .     A
C111   C26     1.385   1_655 S
C112   F144    1.358   .     S
C112   C127    1.403   .     A
C113   C117    1.392   .     A
C113   C124    1.402   .     A
C113   F148    1.358   .     S
C114   C118    1.391   .     A
C114   C125    1.402   .     A
C114   F149    1.358   .     S
C115   C119    1.392   .     A
C115   F150    1.358   .     S
C115   C125    1.402   .     A
C116   C121    1.391   .     A
C116   F151    1.358   .     S
C116   C124    1.402   .     A
C117   C122    1.407   .     A
C117   F152    1.358   .     S
C118   F138    1.357   .     S
C118   C123    1.406   .     A
C119   F139    1.358   .     S
C119   C123    1.407   .     A
C120   O156    1.292   .     A
C120   O157    1.291   .     A
C120   C126    1.450   .     S
C121   C122    1.406   .     A
C121   F140    1.357   .     S
C122   C128    1.463   .     S
C123   C129    1.463   .     S
C124   C611    1.463   1_554 S
C125   C610    1.463   .     S
C127   C134    1.403   .     A
C128   O159    1.295   .     A
C128   O162    1.296   .     A
C129   O161    1.295   .     A
C129   O160    1.296   .     A
C130   F137    1.354   .     S
C130   N154    1.368   .     A
C130   C457    1.416   1_545 S
C131   N153    1.367   .     A
C131   F145    1.355   .     S
C131   C294    1.416   .     S
C132   F146    1.353   .     S
C132   N154    1.368   .     A
C132   C455    1.416   1_545 S
C133   N153    1.368   .     A
C133   F147    1.354   .     S
C133   C292    1.416   .     S
C134   F141    1.359   .     S
Cu135  N153    2.015   .     S
Cu135  O161    1.956   .     S
Cu135  O159    1.956   .     S
Cu135  O155    1.966   .     S
Cu135  Cu136   2.681   .     S
Cu135  O157    1.965   .     S
Cu136  O160    1.956   .     S
Cu136  N154    2.015   .     S
Cu136  O158    1.965   .     S
Cu136  O162    1.956   .     S
Cu136  O156    1.966   .     S
C163   O212    1.291   .     A
C163   C181    1.450   .     S
C163   O209    1.292   .     A
C164   C180    1.403   .     A
C164   F196    1.359   .     S
C164   C220    1.385   .     S
C165   F197    1.357   .     S
C165   C180    1.403   .     A
C165   C242    1.385   .     S
C166   F198    1.358   .     S
C166   C181    1.403   .     A
C166   C272    1.385   1_455 S
C167   C171    1.392   .     A
C167   C178    1.402   .     A
C167   F202    1.358   .     S
C168   C172    1.391   .     A
C168   C179    1.402   .     A
C168   F203    1.358   .     S
C169   C173    1.392   .     A
C169   F204    1.358   .     S
C169   C179    1.402   .     A
C170   C175    1.391   .     A
C170   F205    1.358   .     S
C170   C178    1.402   .     A
C171   C176    1.407   .     A
C171   F206    1.358   .     S
C172   F192    1.357   .     S
C172   C177    1.406   .     A
C173   F193    1.358   .     S
C173   C177    1.407   .     A
C174   O210    1.292   .     A
C174   O211    1.291   .     A
C174   C180    1.450   .     S
C175   C176    1.406   .     A
C175   F194    1.357   .     S
C176   C182    1.463   .     S
C177   C183    1.463   .     S
C178   C665    1.463   1_554 S
C179   C664    1.463   .     S
C181   C188    1.403   .     A
C182   O213    1.295   .     A
C182   O216    1.296   .     A
C183   O215    1.295   .     A
C183   O214    1.296   .     A
C184   F191    1.354   .     S
C184   N208    1.368   .     A
C185   N207    1.367   .     A
C185   F199    1.355   .     S
C185   C348    1.416   .     S
C186   F200    1.353   .     S
C186   N208    1.368   .     A
C187   N207    1.368   .     A
C187   F201    1.354   .     S
C187   C346    1.416   .     S
C188   F195    1.359   .     S
C188   C273    1.385   1_455 S
Cu189  N207    2.015   .     S
Cu189  O215    1.956   .     S
Cu189  O213    1.956   .     S
Cu189  O209    1.966   .     S
Cu189  Cu190   2.681   .     S
Cu189  O211    1.965   .     S
Cu190  O214    1.956   .     S
Cu190  N208    2.015   .     S
Cu190  O212    1.965   .     S
Cu190  O216    1.956   .     S
Cu190  O210    1.966   .     S
C217   O266    1.291   .     A
C217   C235    1.450   .     S
C217   O263    1.292   .     A
C218   C234    1.403   .     A
C218   F250    1.359   .     S
C218   C274    1.385   .     S
C219   F251    1.357   .     S
C219   C234    1.403   .     A
C219   C296    1.385   .     S
C220   F252    1.358   .     S
C220   C235    1.403   .     A
C221   C225    1.392   .     A
C221   C232    1.402   .     A
C221   F256    1.358   .     S
C222   C226    1.391   .     A
C222   C233    1.402   .     A
C222   F257    1.358   .     S
C223   C227    1.392   .     A
C223   F258    1.358   .     S
C223   C233    1.402   .     A
C224   C229    1.391   .     A
C224   F259    1.358   .     S
C224   C232    1.402   .     A
C225   C230    1.407   .     A
C225   F260    1.358   .     S
C226   F246    1.357   .     S
C226   C231    1.406   .     A
C227   F247    1.358   .     S
C227   C231    1.407   .     A
C228   O264    1.292   .     A
C228   O265    1.291   .     A
C228   C234    1.450   .     S
C229   C230    1.406   .     A
C229   F248    1.357   .     S
C230   C236    1.463   .     S
C231   C237    1.463   .     S
C232   C719    1.463   1_554 S
C233   C718    1.463   .     S
C235   C242    1.403   .     A
C236   O267    1.295   .     A
C236   O270    1.296   .     A
C237   O269    1.295   .     A
C237   O268    1.296   .     A
C238   F245    1.354   .     S
C238   N262    1.368   .     A
C239   N261    1.367   .     A
C239   F253    1.355   .     S
C239   C402    1.416   .     S
C240   F254    1.353   .     S
C240   N262    1.368   .     A
C241   N261    1.368   .     A
C241   F255    1.354   .     S
C241   C400    1.416   .     S
C242   F249    1.359   .     S
Cu243  N261    2.015   .     S
Cu243  O269    1.956   .     S
Cu243  O267    1.956   .     S
Cu243  O263    1.966   .     S
Cu243  Cu244   2.681   .     S
Cu243  O265    1.965   .     S
Cu244  O268    1.956   .     S
Cu244  N262    2.015   .     S
Cu244  O266    1.965   .     S
Cu244  O270    1.956   .     S
Cu244  O264    1.966   .     S
C271   O320    1.291   .     A
C271   C289    1.450   .     S
C271   O317    1.292   .     A
C272   C288    1.403   .     A
C272   F304    1.359   .     S
C272   C166    1.385   1_655 S
C273   F305    1.357   .     S
C273   C288    1.403   .     A
C273   C188    1.385   1_655 S
C274   F306    1.358   .     S
C274   C289    1.403   .     A
C275   C279    1.392   .     A
C275   C286    1.402   .     A
C275   F310    1.358   .     S
C276   C280    1.391   .     A
C276   C287    1.402   .     A
C276   F311    1.358   .     S
C277   C281    1.392   .     A
C277   F312    1.358   .     S
C277   C287    1.402   .     A
C278   C283    1.391   .     A
C278   F313    1.358   .     S
C278   C286    1.402   .     A
C279   C284    1.407   .     A
C279   F314    1.358   .     S
C280   F300    1.357   .     S
C280   C285    1.406   .     A
C281   F301    1.358   .     S
C281   C285    1.407   .     A
C282   O318    1.292   .     A
C282   O319    1.291   .     A
C282   C288    1.450   .     S
C283   C284    1.406   .     A
C283   F302    1.357   .     S
C284   C290    1.463   .     S
C285   C291    1.463   .     S
C286   C773    1.463   1_554 S
C287   C772    1.463   .     S
C289   C296    1.403   .     A
C290   O321    1.295   .     A
C290   O324    1.296   .     A
C291   O323    1.295   .     A
C291   O322    1.296   .     A
C292   F299    1.354   .     S
C292   N316    1.368   .     A
C293   N315    1.367   .     A
C293   F307    1.355   .     S
C293   C456    1.416   .     S
C294   F308    1.353   .     S
C294   N316    1.368   .     A
C295   N315    1.368   .     A
C295   F309    1.354   .     S
C295   C454    1.416   .     S
C296   F303    1.359   .     S
Cu297  N315    2.015   .     S
Cu297  O323    1.956   .     S
Cu297  O321    1.956   .     S
Cu297  O317    1.966   .     S
Cu297  Cu298   2.681   .     S
Cu297  O319    1.965   .     S
Cu298  O322    1.956   .     S
Cu298  N316    2.015   .     S
Cu298  O320    1.965   .     S
Cu298  O324    1.956   .     S
Cu298  O318    1.966   .     S
C325   O374    1.291   .     A
C325   C343    1.450   .     S
C325   O371    1.292   .     A
C326   C342    1.403   .     A
C326   F358    1.359   .     S
C326   C382    1.385   .     S
C327   F359    1.357   .     S
C327   C342    1.403   .     A
C327   C404    1.385   .     S
C328   F360    1.358   .     S
C328   C343    1.403   .     A
C328   C434    1.385   1_455 S
C329   C333    1.392   .     A
C329   C340    1.402   .     A
C329   F364    1.358   .     S
C330   C334    1.391   .     A
C330   C341    1.402   .     A
C330   F365    1.358   .     S
C331   C335    1.392   .     A
C331   F366    1.358   .     S
C331   C341    1.402   .     A
C332   C337    1.391   .     A
C332   F367    1.358   .     S
C332   C340    1.402   .     A
C333   C338    1.407   .     A
C333   F368    1.358   .     S
C334   F354    1.357   .     S
C334   C339    1.406   .     A
C335   F355    1.358   .     S
C335   C339    1.407   .     A
C336   O372    1.292   .     A
C336   O373    1.291   .     A
C336   C342    1.450   .     S
C337   C338    1.406   .     A
C337   F356    1.357   .     S
C338   C344    1.463   .     S
C339   C345    1.463   .     S
C340   C827    1.463   1_554 S
C341   C826    1.463   .     S
C343   C350    1.403   .     A
C344   O375    1.295   .     A
C344   O378    1.296   .     A
C345   O377    1.295   .     A
C345   O376    1.296   .     A
C346   F353    1.354   .     S
C346   N370    1.368   .     A
C347   N369    1.367   .     A
C347   F361    1.355   .     S
C347   C24     1.416   1_565 S
C348   F362    1.353   .     S
C348   N370    1.368   .     A
C349   N369    1.368   .     A
C349   F363    1.354   .     S
C349   C22     1.416   1_565 S
C350   F357    1.359   .     S
C350   C435    1.385   1_455 S
Cu351  N369    2.015   .     S
Cu351  O377    1.956   .     S
Cu351  O375    1.956   .     S
Cu351  O371    1.966   .     S
Cu351  Cu352   2.681   .     S
Cu351  O373    1.965   .     S
Cu352  O376    1.956   .     S
Cu352  N370    2.015   .     S
Cu352  O374    1.965   .     S
Cu352  O378    1.956   .     S
Cu352  O372    1.966   .     S
C379   O428    1.291   .     A
C379   C397    1.450   .     S
C379   O425    1.292   .     A
C380   C396    1.403   .     A
C380   F412    1.359   .     S
C380   C436    1.385   .     S
C381   F413    1.357   .     S
C381   C396    1.403   .     A
C381   C458    1.385   .     S
C382   F414    1.358   .     S
C382   C397    1.403   .     A
C383   C387    1.392   .     A
C383   C394    1.402   .     A
C383   F418    1.358   .     S
C384   C388    1.391   .     A
C384   C395    1.402   .     A
C384   F419    1.358   .     S
C385   C389    1.392   .     A
C385   F420    1.358   .     S
C385   C395    1.402   .     A
C386   C391    1.391   .     A
C386   F421    1.358   .     S
C386   C394    1.402   .     A
C387   C392    1.407   .     A
C387   F422    1.358   .     S
C388   F408    1.357   .     S
C388   C393    1.406   .     A
C389   F409    1.358   .     S
C389   C393    1.407   .     A
C390   O426    1.292   .     A
C390   O427    1.291   .     A
C390   C396    1.450   .     S
C391   C392    1.406   .     A
C391   F410    1.357   .     S
C392   C398    1.463   .     S
C393   C399    1.463   .     S
C394   C881    1.463   1_554 S
C395   C880    1.463   .     S
C397   C404    1.403   .     A
C398   O429    1.295   .     A
C398   O432    1.296   .     A
C399   O431    1.295   .     A
C399   O430    1.296   .     A
C400   F407    1.354   .     S
C400   N424    1.368   .     A
C401   N423    1.367   .     A
C401   F415    1.355   .     S
C401   C78     1.416   1_565 S
C402   F416    1.353   .     S
C402   N424    1.368   .     A
C403   N423    1.368   .     A
C403   F417    1.354   .     S
C403   C76     1.416   1_565 S
C404   F411    1.359   .     S
Cu405  N423    2.015   .     S
Cu405  O431    1.956   .     S
Cu405  O429    1.956   .     S
Cu405  O425    1.966   .     S
Cu405  Cu406   2.681   .     S
Cu405  O427    1.965   .     S
Cu406  O430    1.956   .     S
Cu406  N424    2.015   .     S
Cu406  O428    1.965   .     S
Cu406  O432    1.956   .     S
Cu406  O426    1.966   .     S
C433   O482    1.291   .     A
C433   C451    1.450   .     S
C433   O479    1.292   .     A
C434   C450    1.403   .     A
C434   F466    1.359   .     S
C434   C328    1.385   1_655 S
C435   F467    1.357   .     S
C435   C450    1.403   .     A
C435   C350    1.385   1_655 S
C436   F468    1.358   .     S
C436   C451    1.403   .     A
C437   C441    1.392   .     A
C437   C448    1.402   .     A
C437   F472    1.358   .     S
C438   C442    1.391   .     A
C438   C449    1.402   .     A
C438   F473    1.358   .     S
C439   C443    1.392   .     A
C439   F474    1.358   .     S
C439   C449    1.402   .     A
C440   C445    1.391   .     A
C440   F475    1.358   .     S
C440   C448    1.402   .     A
C441   C446    1.407   .     A
C441   F476    1.358   .     S
C442   F462    1.357   .     S
C442   C447    1.406   .     A
C443   F463    1.358   .     S
C443   C447    1.407   .     A
C444   O480    1.292   .     A
C444   O481    1.291   .     A
C444   C450    1.450   .     S
C445   C446    1.406   .     A
C445   F464    1.357   .     S
C446   C452    1.463   .     S
C447   C453    1.463   .     S
C448   C935    1.463   1_554 S
C449   C934    1.463   .     S
C451   C458    1.403   .     A
C452   O483    1.295   .     A
C452   O486    1.296   .     A
C453   O485    1.295   .     A
C453   O484    1.296   .     A
C454   F461    1.354   .     S
C454   N478    1.368   .     A
C455   N477    1.367   .     A
C455   F469    1.355   .     S
C455   C132    1.416   1_565 S
C456   F470    1.353   .     S
C456   N478    1.368   .     A
C457   N477    1.368   .     A
C457   F471    1.354   .     S
C457   C130    1.416   1_565 S
C458   F465    1.359   .     S
Cu459  N477    2.015   .     S
Cu459  O485    1.956   .     S
Cu459  O483    1.956   .     S
Cu459  O479    1.966   .     S
Cu459  Cu460   2.681   .     S
Cu459  O481    1.965   .     S
Cu460  O484    1.956   .     S
Cu460  N478    2.015   .     S
Cu460  O482    1.965   .     S
Cu460  O486    1.956   .     S
Cu460  O480    1.966   .     S
C487   O536    1.291   .     A
C487   C505    1.450   .     S
C487   O533    1.292   .     A
C488   C504    1.403   .     A
C488   F520    1.359   .     S
C488   C544    1.385   .     S
C489   F521    1.357   .     S
C489   C504    1.403   .     A
C489   C566    1.385   .     S
C490   F522    1.358   .     S
C490   C505    1.403   .     A
C490   C596    1.385   1_455 S
C491   C495    1.392   .     A
C491   C502    1.402   .     A
C491   F526    1.358   .     S
C492   C496    1.391   .     A
C492   C503    1.402   .     A
C492   F527    1.358   .     S
C493   C497    1.392   .     A
C493   F528    1.358   .     S
C493   C503    1.402   .     A
C494   C499    1.391   .     A
C494   F529    1.358   .     S
C494   C502    1.402   .     A
C495   C500    1.407   .     A
C495   F530    1.358   .     S
C496   F516    1.357   .     S
C496   C501    1.406   .     A
C497   F517    1.358   .     S
C497   C501    1.407   .     A
C498   O534    1.292   .     A
C498   O535    1.291   .     A
C498   C504    1.450   .     S
C499   C500    1.406   .     A
C499   F518    1.357   .     S
C500   C506    1.463   .     S
C501   C507    1.463   .     S
C503   C16     1.463   1_556 S
C505   C512    1.403   .     A
C506   O537    1.295   .     A
C506   O540    1.296   .     A
C507   O539    1.295   .     A
C507   O538    1.296   .     A
C508   F515    1.354   .     S
C508   N532    1.368   .     A
C508   C835    1.416   1_545 S
C509   N531    1.367   .     A
C509   F523    1.355   .     S
C509   C672    1.416   .     S
C510   F524    1.353   .     S
C510   N532    1.368   .     A
C510   C833    1.416   1_545 S
C511   N531    1.368   .     A
C511   F525    1.354   .     S
C511   C670    1.416   .     S
C512   F519    1.359   .     S
C512   C597    1.385   1_455 S
Cu513  N531    2.015   .     S
Cu513  O539    1.956   .     S
Cu513  O537    1.956   .     S
Cu513  O533    1.966   .     S
Cu513  Cu514   2.681   .     S
Cu513  O535    1.965   .     S
Cu514  O538    1.956   .     S
Cu514  N532    2.015   .     S
Cu514  O536    1.965   .     S
Cu514  O540    1.956   .     S
Cu514  O534    1.966   .     S
C541   O590    1.291   .     A
C541   C559    1.450   .     S
C541   O587    1.292   .     A
C542   C558    1.403   .     A
C542   F574    1.359   .     S
C542   C598    1.385   .     S
C543   F575    1.357   .     S
C543   C558    1.403   .     A
C543   C620    1.385   .     S
C544   F576    1.358   .     S
C544   C559    1.403   .     A
C545   C549    1.392   .     A
C545   C556    1.402   .     A
C545   F580    1.358   .     S
C546   C550    1.391   .     A
C546   C557    1.402   .     A
C546   F581    1.358   .     S
C547   C551    1.392   .     A
C547   F582    1.358   .     S
C547   C557    1.402   .     A
C548   C553    1.391   .     A
C548   F583    1.358   .     S
C548   C556    1.402   .     A
C549   C554    1.407   .     A
C549   F584    1.358   .     S
C550   F570    1.357   .     S
C550   C555    1.406   .     A
C551   F571    1.358   .     S
C551   C555    1.407   .     A
C552   O588    1.292   .     A
C552   O589    1.291   .     A
C552   C558    1.450   .     S
C553   C554    1.406   .     A
C553   F572    1.357   .     S
C554   C560    1.463   .     S
C555   C561    1.463   .     S
C557   C70     1.463   1_556 S
C559   C566    1.403   .     A
C560   O591    1.295   .     A
C560   O594    1.296   .     A
C561   O593    1.295   .     A
C561   O592    1.296   .     A
C562   F569    1.354   .     S
C562   N586    1.368   .     A
C562   C889    1.416   1_545 S
C563   N585    1.367   .     A
C563   F577    1.355   .     S
C563   C726    1.416   .     S
C564   F578    1.353   .     S
C564   N586    1.368   .     A
C564   C887    1.416   1_545 S
C565   N585    1.368   .     A
C565   F579    1.354   .     S
C565   C724    1.416   .     S
C566   F573    1.359   .     S
Cu567  N585    2.015   .     S
Cu567  O593    1.956   .     S
Cu567  O591    1.956   .     S
Cu567  O587    1.966   .     S
Cu567  Cu568   2.681   .     S
Cu567  O589    1.965   .     S
Cu568  O592    1.956   .     S
Cu568  N586    2.015   .     S
Cu568  O590    1.965   .     S
Cu568  O594    1.956   .     S
Cu568  O588    1.966   .     S
C595   O644    1.291   .     A
C595   C613    1.450   .     S
C595   O641    1.292   .     A
C596   C612    1.403   .     A
C596   F628    1.359   .     S
C596   C490    1.385   1_655 S
C597   F629    1.357   .     S
C597   C612    1.403   .     A
C597   C512    1.385   1_655 S
C598   F630    1.358   .     S
C598   C613    1.403   .     A
C599   C603    1.392   .     A
C599   C610    1.402   .     A
C599   F634    1.358   .     S
C600   C604    1.391   .     A
C600   C611    1.402   .     A
C600   F635    1.358   .     S
C601   C605    1.392   .     A
C601   F636    1.358   .     S
C601   C611    1.402   .     A
C602   C607    1.391   .     A
C602   F637    1.358   .     S
C602   C610    1.402   .     A
C603   C608    1.407   .     A
C603   F638    1.358   .     S
C604   F624    1.357   .     S
C604   C609    1.406   .     A
C605   F625    1.358   .     S
C605   C609    1.407   .     A
C606   O642    1.292   .     A
C606   O643    1.291   .     A
C606   C612    1.450   .     S
C607   C608    1.406   .     A
C607   F626    1.357   .     S
C608   C614    1.463   .     S
C609   C615    1.463   .     S
C611   C124    1.463   1_556 S
C613   C620    1.403   .     A
C614   O645    1.295   .     A
C614   O648    1.296   .     A
C615   O647    1.295   .     A
C615   O646    1.296   .     A
C616   F623    1.354   .     S
C616   N640    1.368   .     A
C616   C943    1.416   1_545 S
C617   N639    1.367   .     A
C617   F631    1.355   .     S
C617   C780    1.416   .     S
C618   F632    1.353   .     S
C618   N640    1.368   .     A
C618   C941    1.416   1_545 S
C619   N639    1.368   .     A
C619   F633    1.354   .     S
C619   C778    1.416   .     S
C620   F627    1.359   .     S
Cu621  N639    2.015   .     S
Cu621  O647    1.956   .     S
Cu621  O645    1.956   .     S
Cu621  O641    1.966   .     S
Cu621  Cu622   2.681   .     S
Cu621  O643    1.965   .     S
Cu622  O646    1.956   .     S
Cu622  N640    2.015   .     S
Cu622  O644    1.965   .     S
Cu622  O648    1.956   .     S
Cu622  O642    1.966   .     S
C649   O698    1.291   .     A
C649   C667    1.450   .     S
C649   O695    1.292   .     A
C650   C666    1.403   .     A
C650   F682    1.359   .     S
C650   C706    1.385   .     S
C651   F683    1.357   .     S
C651   C666    1.403   .     A
C651   C728    1.385   .     S
C652   F684    1.358   .     S
C652   C667    1.403   .     A
C652   C758    1.385   1_455 S
C653   C657    1.392   .     A
C653   C664    1.402   .     A
C653   F688    1.358   .     S
C654   C658    1.391   .     A
C654   C665    1.402   .     A
C654   F689    1.358   .     S
C655   C659    1.392   .     A
C655   F690    1.358   .     S
C655   C665    1.402   .     A
C656   C661    1.391   .     A
C656   F691    1.358   .     S
C656   C664    1.402   .     A
C657   C662    1.407   .     A
C657   F692    1.358   .     S
C658   F678    1.357   .     S
C658   C663    1.406   .     A
C659   F679    1.358   .     S
C659   C663    1.407   .     A
C660   O696    1.292   .     A
C660   O697    1.291   .     A
C660   C666    1.450   .     S
C661   C662    1.406   .     A
C661   F680    1.357   .     S
C662   C668    1.463   .     S
C663   C669    1.463   .     S
C665   C178    1.463   1_556 S
C667   C674    1.403   .     A
C668   O699    1.295   .     A
C668   O702    1.296   .     A
C669   O701    1.295   .     A
C669   O700    1.296   .     A
C670   F677    1.354   .     S
C670   N694    1.368   .     A
C671   N693    1.367   .     A
C671   F685    1.355   .     S
C671   C834    1.416   .     S
C672   F686    1.353   .     S
C672   N694    1.368   .     A
C673   N693    1.368   .     A
C673   F687    1.354   .     S
C673   C832    1.416   .     S
C674   F681    1.359   .     S
C674   C759    1.385   1_455 S
Cu675  N693    2.015   .     S
Cu675  O701    1.956   .     S
Cu675  O699    1.956   .     S
Cu675  O695    1.966   .     S
Cu675  Cu676   2.681   .     S
Cu675  O697    1.965   .     S
Cu676  O700    1.956   .     S
Cu676  N694    2.015   .     S
Cu676  O698    1.965   .     S
Cu676  O702    1.956   .     S
Cu676  O696    1.966   .     S
C703   O752    1.291   .     A
C703   C721    1.450   .     S
C703   O749    1.292   .     A
C704   C720    1.403   .     A
C704   F736    1.359   .     S
C704   C760    1.385   .     S
C705   F737    1.357   .     S
C705   C720    1.403   .     A
C705   C782    1.385   .     S
C706   F738    1.358   .     S
C706   C721    1.403   .     A
C707   C711    1.392   .     A
C707   C718    1.402   .     A
C707   F742    1.358   .     S
C708   C712    1.391   .     A
C708   C719    1.402   .     A
C708   F743    1.358   .     S
C709   C713    1.392   .     A
C709   F744    1.358   .     S
C709   C719    1.402   .     A
C710   C715    1.391   .     A
C710   F745    1.358   .     S
C710   C718    1.402   .     A
C711   C716    1.407   .     A
C711   F746    1.358   .     S
C712   F732    1.357   .     S
C712   C717    1.406   .     A
C713   F733    1.358   .     S
C713   C717    1.407   .     A
C714   O750    1.292   .     A
C714   O751    1.291   .     A
C714   C720    1.450   .     S
C715   C716    1.406   .     A
C715   F734    1.357   .     S
C716   C722    1.463   .     S
C717   C723    1.463   .     S
C719   C232    1.463   1_556 S
C721   C728    1.403   .     A
C722   O753    1.295   .     A
C722   O756    1.296   .     A
C723   O755    1.295   .     A
C723   O754    1.296   .     A
C724   F731    1.354   .     S
C724   N748    1.368   .     A
C725   N747    1.367   .     A
C725   F739    1.355   .     S
C725   C888    1.416   .     S
C726   F740    1.353   .     S
C726   N748    1.368   .     A
C727   N747    1.368   .     A
C727   F741    1.354   .     S
C727   C886    1.416   .     S
C728   F735    1.359   .     S
Cu729  N747    2.015   .     S
Cu729  O755    1.956   .     S
Cu729  O753    1.956   .     S
Cu729  O749    1.966   .     S
Cu729  Cu730   2.681   .     S
Cu729  O751    1.965   .     S
Cu730  O754    1.956   .     S
Cu730  N748    2.015   .     S
Cu730  O752    1.965   .     S
Cu730  O756    1.956   .     S
Cu730  O750    1.966   .     S
C757   O806    1.291   .     A
C757   C775    1.450   .     S
C757   O803    1.292   .     A
C758   C774    1.403   .     A
C758   F790    1.359   .     S
C758   C652    1.385   1_655 S
C759   F791    1.357   .     S
C759   C774    1.403   .     A
C759   C674    1.385   1_655 S
C760   F792    1.358   .     S
C760   C775    1.403   .     A
C761   C765    1.392   .     A
C761   C772    1.402   .     A
C761   F796    1.358   .     S
C762   C766    1.391   .     A
C762   C773    1.402   .     A
C762   F797    1.358   .     S
C763   C767    1.392   .     A
C763   F798    1.358   .     S
C763   C773    1.402   .     A
C764   C769    1.391   .     A
C764   F799    1.358   .     S
C764   C772    1.402   .     A
C765   C770    1.407   .     A
C765   F800    1.358   .     S
C766   F786    1.357   .     S
C766   C771    1.406   .     A
C767   F787    1.358   .     S
C767   C771    1.407   .     A
C768   O804    1.292   .     A
C768   O805    1.291   .     A
C768   C774    1.450   .     S
C769   C770    1.406   .     A
C769   F788    1.357   .     S
C770   C776    1.463   .     S
C771   C777    1.463   .     S
C773   C286    1.463   1_556 S
C775   C782    1.403   .     A
C776   O807    1.295   .     A
C776   O810    1.296   .     A
C777   O809    1.295   .     A
C777   O808    1.296   .     A
C778   F785    1.354   .     S
C778   N802    1.368   .     A
C779   N801    1.367   .     A
C779   F793    1.355   .     S
C779   C942    1.416   .     S
C780   F794    1.353   .     S
C780   N802    1.368   .     A
C781   N801    1.368   .     A
C781   F795    1.354   .     S
C781   C940    1.416   .     S
C782   F789    1.359   .     S
Cu783  N801    2.015   .     S
Cu783  O809    1.956   .     S
Cu783  O807    1.956   .     S
Cu783  O803    1.966   .     S
Cu783  Cu784   2.681   .     S
Cu783  O805    1.965   .     S
Cu784  O808    1.956   .     S
Cu784  N802    2.015   .     S
Cu784  O806    1.965   .     S
Cu784  O810    1.956   .     S
Cu784  O804    1.966   .     S
C811   O860    1.291   .     A
C811   C829    1.450   .     S
C811   O857    1.292   .     A
C812   C828    1.403   .     A
C812   F844    1.359   .     S
C812   C868    1.385   .     S
C813   F845    1.357   .     S
C813   C828    1.403   .     A
C813   C890    1.385   .     S
C814   F846    1.358   .     S
C814   C829    1.403   .     A
C814   C920    1.385   1_455 S
C815   C819    1.392   .     A
C815   C826    1.402   .     A
C815   F850    1.358   .     S
C816   C820    1.391   .     A
C816   C827    1.402   .     A
C816   F851    1.358   .     S
C817   C821    1.392   .     A
C817   F852    1.358   .     S
C817   C827    1.402   .     A
C818   C823    1.391   .     A
C818   F853    1.358   .     S
C818   C826    1.402   .     A
C819   C824    1.407   .     A
C819   F854    1.358   .     S
C820   F840    1.357   .     S
C820   C825    1.406   .     A
C821   F841    1.358   .     S
C821   C825    1.407   .     A
C822   O858    1.292   .     A
C822   O859    1.291   .     A
C822   C828    1.450   .     S
C823   C824    1.406   .     A
C823   F842    1.357   .     S
C824   C830    1.463   .     S
C825   C831    1.463   .     S
C827   C340    1.463   1_556 S
C829   C836    1.403   .     A
C830   O861    1.295   .     A
C830   O864    1.296   .     A
C831   O863    1.295   .     A
C831   O862    1.296   .     A
C832   F839    1.354   .     S
C832   N856    1.368   .     A
C833   N855    1.367   .     A
C833   F847    1.355   .     S
C833   C510    1.416   1_565 S
C834   F848    1.353   .     S
C834   N856    1.368   .     A
C835   N855    1.368   .     A
C835   F849    1.354   .     S
C835   C508    1.416   1_565 S
C836   F843    1.359   .     S
C836   C921    1.385   1_455 S
Cu837  N855    2.015   .     S
Cu837  O863    1.956   .     S
Cu837  O861    1.956   .     S
Cu837  O857    1.966   .     S
Cu837  Cu838   2.681   .     S
Cu837  O859    1.965   .     S
Cu838  O862    1.956   .     S
Cu838  N856    2.015   .     S
Cu838  O860    1.965   .     S
Cu838  O864    1.956   .     S
Cu838  O858    1.966   .     S
C865   O914    1.291   .     A
C865   C883    1.450   .     S
C865   O911    1.292   .     A
C866   C882    1.403   .     A
C866   F898    1.359   .     S
C866   C922    1.385   .     S
C867   F899    1.357   .     S
C867   C882    1.403   .     A
C867   C944    1.385   .     S
C868   F900    1.358   .     S
C868   C883    1.403   .     A
C869   C873    1.392   .     A
C869   C880    1.402   .     A
C869   F904    1.358   .     S
C870   C874    1.391   .     A
C870   C881    1.402   .     A
C870   F905    1.358   .     S
C871   C875    1.392   .     A
C871   F906    1.358   .     S
C871   C881    1.402   .     A
C872   C877    1.391   .     A
C872   F907    1.358   .     S
C872   C880    1.402   .     A
C873   C878    1.407   .     A
C873   F908    1.358   .     S
C874   F894    1.357   .     S
C874   C879    1.406   .     A
C875   F895    1.358   .     S
C875   C879    1.407   .     A
C876   O912    1.292   .     A
C876   O913    1.291   .     A
C876   C882    1.450   .     S
C877   C878    1.406   .     A
C877   F896    1.357   .     S
C878   C884    1.463   .     S
C879   C885    1.463   .     S
C881   C394    1.463   1_556 S
C883   C890    1.403   .     A
C884   O915    1.295   .     A
C884   O918    1.296   .     A
C885   O917    1.295   .     A
C885   O916    1.296   .     A
C886   F893    1.354   .     S
C886   N910    1.368   .     A
C887   N909    1.367   .     A
C887   F901    1.355   .     S
C887   C564    1.416   1_565 S
C888   F902    1.353   .     S
C888   N910    1.368   .     A
C889   N909    1.368   .     A
C889   F903    1.354   .     S
C889   C562    1.416   1_565 S
C890   F897    1.359   .     S
Cu891  N909    2.015   .     S
Cu891  O917    1.956   .     S
Cu891  O915    1.956   .     S
Cu891  O911    1.966   .     S
Cu891  Cu892   2.681   .     S
Cu891  O913    1.965   .     S
Cu892  O916    1.956   .     S
Cu892  N910    2.015   .     S
Cu892  O914    1.965   .     S
Cu892  O918    1.956   .     S
Cu892  O912    1.966   .     S
C919   O968    1.291   .     A
C919   C937    1.450   .     S
C919   O965    1.292   .     A
C920   C936    1.403   .     A
C920   F952    1.359   .     S
C920   C814    1.385   1_655 S
C921   F953    1.357   .     S
C921   C936    1.403   .     A
C921   C836    1.385   1_655 S
C922   F954    1.358   .     S
C922   C937    1.403   .     A
C923   C927    1.392   .     A
C923   C934    1.402   .     A
C923   F958    1.358   .     S
C924   C928    1.391   .     A
C924   C935    1.402   .     A
C924   F959    1.358   .     S
C925   C929    1.392   .     A
C925   F960    1.358   .     S
C925   C935    1.402   .     A
C926   C931    1.391   .     A
C926   F961    1.358   .     S
C926   C934    1.402   .     A
C927   C932    1.407   .     A
C927   F962    1.358   .     S
C928   F948    1.357   .     S
C928   C933    1.406   .     A
C929   F949    1.358   .     S
C929   C933    1.407   .     A
C930   O966    1.292   .     A
C930   O967    1.291   .     A
C930   C936    1.450   .     S
C931   C932    1.406   .     A
C931   F950    1.357   .     S
C932   C938    1.463   .     S
C933   C939    1.463   .     S
C935   C448    1.463   1_556 S
C937   C944    1.403   .     A
C938   O969    1.295   .     A
C938   O972    1.296   .     A
C939   O971    1.295   .     A
C939   O970    1.296   .     A
C940   F947    1.354   .     S
C940   N964    1.368   .     A
C941   N963    1.367   .     A
C941   F955    1.355   .     S
C941   C618    1.416   1_565 S
C942   F956    1.353   .     S
C942   N964    1.368   .     A
C943   N963    1.368   .     A
C943   F957    1.354   .     S
C943   C616    1.416   1_565 S
C944   F951    1.359   .     S
Cu945  N963    2.015   .     S
Cu945  O971    1.956   .     S
Cu945  O969    1.956   .     S
Cu945  O965    1.966   .     S
Cu945  Cu946   2.681   .     S
Cu945  O967    1.965   .     S
Cu946  O970    1.956   .     S
Cu946  N964    2.015   .     S
Cu946  O968    1.965   .     S
Cu946  O972    1.956   .     S
Cu946  O966    1.966   .     S
