data_str_m3_o1_o16_pcu_sym.116
_audit_creation_date              2020-01-03
_audit_creation_method            'Materials Studio'
_symmetry_space_group_name_H-M    'P1'
_symmetry_Int_Tables_number       1
_symmetry_cell_setting            triclinic
loop_
_symmetry_equiv_pos_as_xyz
  x,y,z
_cell_length_a                    29.5184
_cell_length_b                    32.1503
_cell_length_c                    26.2567
_cell_angle_alpha                 90.0726
_cell_angle_beta                  69.6694
_cell_angle_gamma                 90.0392
loop_
_atom_site_label
_atom_site_type_symbol
_atom_site_fract_x
_atom_site_fract_y
_atom_site_fract_z
_atom_site_U_iso_or_equiv
_atom_site_adp_type
_atom_site_occupancy
C1     C     0.16668   0.24671   0.25004   0.00000  Uiso   1.00
C2     C     0.14328   0.15775   0.49249   0.00000  Uiso   1.00
C3     C     0.15247   0.14618   0.43809   0.00000  Uiso   1.00
C4     C     0.18016   0.15129   0.01456   0.00000  Uiso   1.00
C5     C     0.22164   0.12759   0.48575   0.00000  Uiso   1.00
C6     C     0.22641   0.11101   0.43514   0.00000  Uiso   1.00
C7     C     0.19224   0.12011   0.41153   0.00000  Uiso   1.00
C8     C     0.17738   0.16875   0.06398   0.00000  Uiso   1.00
C9     C     0.25182   0.13448   0.06059   0.00000  Uiso   1.00
C10    C     0.12206   0.16167   0.41131   0.00000  Uiso   1.00
C11    C     0.21039   0.31206   0.23902   0.00000  Uiso   1.00
C12    C     0.13981   0.16465   0.35219   0.00000  Uiso   1.00
C13    C     0.21039   0.02134   0.23890   0.00000  Uiso   1.00
C14    C     0.16669   0.04248   0.24986   0.00000  Uiso   1.00
C15    C     0.12300   0.02129   0.26086   0.00000  Uiso   1.00
C16    C     0.12300   0.31202   0.26096   0.00000  Uiso   1.00
C17    C     0.16669   0.29086   0.25003   0.00000  Uiso   1.00
C18    C     0.31908   0.13921   0.21846   0.00000  Uiso   1.00
C19    C     0.03372   0.13926   0.21841   0.00000  Uiso   1.00
C20    C     0.01421   0.19401   0.28172   0.00000  Uiso   1.00
C21    C     0.29958   0.19402   0.28167   0.00000  Uiso   1.00
C22    C     0.16667   0.08662   0.24991   0.00000  Uiso   1.00
C23    C     0.19363   0.16557   0.14764   0.00000  Uiso   1.00
C24    C     0.25755   0.12026   0.00824   0.00000  Uiso   1.00
C25    C     0.21024   0.15814   0.08908   0.00000  Uiso   1.00
C26    C     0.07746   0.17961   0.44129   0.00000  Uiso   1.00
C27    C     0.06473   0.18499   0.49700   0.00000  Uiso   1.00
C28    C     0.09767   0.17528   0.02241   0.00000  Uiso   1.00
H29    H     0.24445   0.03760   0.22994   0.00000  Uiso   1.00
H30    H     0.08894   0.03751   0.26972   0.00000  Uiso   1.00
H31    H     0.08894   0.29577   0.26989   0.00000  Uiso   1.00
H32    H     0.30869   0.11719   0.19338   0.00000  Uiso   1.00
H33    H     0.05969   0.11735   0.19312   0.00000  Uiso   1.00
H34    H     0.02457   0.21586   0.30708   0.00000  Uiso   1.00
H35    H     0.27360   0.21590   0.30700   0.00000  Uiso   1.00
H36    H     0.25705   0.09162   0.41327   0.00000  Uiso   1.00
H37    H     0.28910   0.10205   0.48579   0.00000  Uiso   1.00
H38    H     0.14849   0.18985   0.08502   0.00000  Uiso   1.00
H39    H     0.05319   0.19073   0.42141   0.00000  Uiso   1.00
H40    H     0.08608   0.18081   0.06560   0.00000  Uiso   1.00
H41    H     0.03009   0.19850   0.02019   0.00000  Uiso   1.00
H42    H     0.19707   0.10620   0.37245   0.00000  Uiso   1.00
H43    H     0.24444   0.29584   0.23016   0.00000  Uiso   1.00
N44    N     0.04760   0.16668   0.25002   0.00000  Uiso   1.00
N45    N     0.28573   0.16665   0.25000   0.00000  Uiso   1.00
O46    O     0.12846   0.22775   0.25001   0.00000  Uiso   1.00
O47    O     0.20490   0.22774   0.25000   0.00000  Uiso   1.00
O48    O     0.10947   0.16666   0.32681   0.00000  Uiso   1.00
O49    O     0.18591   0.16665   0.32681   0.00000  Uiso   1.00
O50    O     0.12843   0.10559   0.24999   0.00000  Uiso   1.00
O51    O     0.20488   0.10558   0.24999   0.00000  Uiso   1.00
O52    O     0.14742   0.16668   0.17319   0.00000  Uiso   1.00
O53    O     0.22387   0.16667   0.17319   0.00000  Uiso   1.00
Zn54   Zn    0.11562   0.16667   0.25000   0.00000  Uiso   1.00
Zn55   Zn    0.21771   0.16666   0.25000   0.00000  Uiso   1.00
C56    C     0.28888   0.12238   0.08543   0.00000  Uiso   1.00
H57    H     0.27181   0.10258   0.12167   0.00000  Uiso   1.00
H58    H     0.31914   0.10444   0.05658   0.00000  Uiso   1.00
H59    H     0.30449   0.15070   0.09712   0.00000  Uiso   1.00
C60    C     0.50001   0.24671   0.25004   0.00000  Uiso   1.00
C61    C     0.47662   0.15775   0.49249   0.00000  Uiso   1.00
C62    C     0.48580   0.14618   0.43809   0.00000  Uiso   1.00
C63    C     0.51350   0.15129   0.01456   0.00000  Uiso   1.00
C64    C     0.55498   0.12759   0.48575   0.00000  Uiso   1.00
C65    C     0.55974   0.11101   0.43514   0.00000  Uiso   1.00
C66    C     0.52557   0.12011   0.41153   0.00000  Uiso   1.00
C67    C     0.51071   0.16875   0.06398   0.00000  Uiso   1.00
C68    C     0.58515   0.13448   0.06059   0.00000  Uiso   1.00
C69    C     0.45539   0.16167   0.41131   0.00000  Uiso   1.00
C70    C     0.54372   0.31206   0.23902   0.00000  Uiso   1.00
C71    C     0.47314   0.16465   0.35219   0.00000  Uiso   1.00
C72    C     0.54373   0.02134   0.23890   0.00000  Uiso   1.00
C73    C     0.50002   0.04248   0.24986   0.00000  Uiso   1.00
C74    C     0.45633   0.02129   0.26086   0.00000  Uiso   1.00
C75    C     0.45633   0.31202   0.26096   0.00000  Uiso   1.00
C76    C     0.50003   0.29086   0.25003   0.00000  Uiso   1.00
C77    C     0.65242   0.13921   0.21846   0.00000  Uiso   1.00
C78    C     0.36706   0.13926   0.21841   0.00000  Uiso   1.00
C79    C     0.34754   0.19401   0.28172   0.00000  Uiso   1.00
C80    C     0.63292   0.19402   0.28167   0.00000  Uiso   1.00
C81    C     0.50000   0.08662   0.24991   0.00000  Uiso   1.00
C82    C     0.52697   0.16557   0.14764   0.00000  Uiso   1.00
C83    C     0.59088   0.12026   0.00824   0.00000  Uiso   1.00
C84    C     0.54357   0.15814   0.08908   0.00000  Uiso   1.00
C85    C     0.41079   0.17961   0.44129   0.00000  Uiso   1.00
C86    C     0.39806   0.18499   0.49700   0.00000  Uiso   1.00
C87    C     0.43100   0.17528   0.02241   0.00000  Uiso   1.00
H88    H     0.57779   0.03760   0.22994   0.00000  Uiso   1.00
H89    H     0.42228   0.03751   0.26972   0.00000  Uiso   1.00
H90    H     0.42227   0.29577   0.26989   0.00000  Uiso   1.00
H91    H     0.64202   0.11719   0.19338   0.00000  Uiso   1.00
H92    H     0.39302   0.11735   0.19312   0.00000  Uiso   1.00
H93    H     0.35790   0.21586   0.30708   0.00000  Uiso   1.00
H94    H     0.60694   0.21590   0.30700   0.00000  Uiso   1.00
H95    H     0.59038   0.09162   0.41327   0.00000  Uiso   1.00
H96    H     0.62244   0.10205   0.48579   0.00000  Uiso   1.00
H97    H     0.48182   0.18985   0.08502   0.00000  Uiso   1.00
H98    H     0.38653   0.19073   0.42141   0.00000  Uiso   1.00
H99    H     0.41941   0.18081   0.06560   0.00000  Uiso   1.00
H100   H     0.36343   0.19850   0.02019   0.00000  Uiso   1.00
H101   H     0.53040   0.10620   0.37245   0.00000  Uiso   1.00
H102   H     0.57778   0.29584   0.23016   0.00000  Uiso   1.00
N103   N     0.38093   0.16668   0.25002   0.00000  Uiso   1.00
N104   N     0.61906   0.16665   0.25000   0.00000  Uiso   1.00
O105   O     0.46179   0.22775   0.25001   0.00000  Uiso   1.00
O106   O     0.53823   0.22774   0.25000   0.00000  Uiso   1.00
O107   O     0.44280   0.16666   0.32681   0.00000  Uiso   1.00
O108   O     0.51924   0.16665   0.32681   0.00000  Uiso   1.00
O109   O     0.46177   0.10559   0.24999   0.00000  Uiso   1.00
O110   O     0.53821   0.10558   0.24999   0.00000  Uiso   1.00
O111   O     0.48076   0.16668   0.17319   0.00000  Uiso   1.00
O112   O     0.55720   0.16667   0.17319   0.00000  Uiso   1.00
Zn113  Zn    0.44896   0.16667   0.25000   0.00000  Uiso   1.00
Zn114  Zn    0.55104   0.16666   0.25000   0.00000  Uiso   1.00
C115   C     0.62221   0.12238   0.08543   0.00000  Uiso   1.00
H116   H     0.60514   0.10258   0.12167   0.00000  Uiso   1.00
H117   H     0.65248   0.10444   0.05658   0.00000  Uiso   1.00
H118   H     0.63783   0.15070   0.09712   0.00000  Uiso   1.00
C119   C     0.83335   0.24671   0.25004   0.00000  Uiso   1.00
C120   C     0.80995   0.15775   0.49249   0.00000  Uiso   1.00
C121   C     0.81914   0.14618   0.43809   0.00000  Uiso   1.00
C122   C     0.84683   0.15129   0.01456   0.00000  Uiso   1.00
C123   C     0.88831   0.12759   0.48575   0.00000  Uiso   1.00
C124   C     0.89307   0.11101   0.43514   0.00000  Uiso   1.00
C125   C     0.85891   0.12011   0.41153   0.00000  Uiso   1.00
C126   C     0.84404   0.16875   0.06398   0.00000  Uiso   1.00
C127   C     0.91849   0.13448   0.06059   0.00000  Uiso   1.00
C128   C     0.78872   0.16167   0.41131   0.00000  Uiso   1.00
C129   C     0.87706   0.31206   0.23902   0.00000  Uiso   1.00
C130   C     0.80647   0.16465   0.35219   0.00000  Uiso   1.00
C131   C     0.87706   0.02134   0.23890   0.00000  Uiso   1.00
C132   C     0.83336   0.04248   0.24986   0.00000  Uiso   1.00
C133   C     0.78967   0.02129   0.26086   0.00000  Uiso   1.00
C134   C     0.78966   0.31202   0.26096   0.00000  Uiso   1.00
C135   C     0.83336   0.29086   0.25003   0.00000  Uiso   1.00
C136   C     0.98575   0.13921   0.21846   0.00000  Uiso   1.00
C137   C     0.70039   0.13926   0.21841   0.00000  Uiso   1.00
C138   C     0.68087   0.19401   0.28172   0.00000  Uiso   1.00
C139   C     0.96625   0.19402   0.28167   0.00000  Uiso   1.00
C140   C     0.83334   0.08662   0.24991   0.00000  Uiso   1.00
C141   C     0.86030   0.16557   0.14764   0.00000  Uiso   1.00
C142   C     0.92422   0.12026   0.00824   0.00000  Uiso   1.00
C143   C     0.87691   0.15814   0.08908   0.00000  Uiso   1.00
C144   C     0.74413   0.17961   0.44129   0.00000  Uiso   1.00
C145   C     0.73140   0.18499   0.49700   0.00000  Uiso   1.00
C146   C     0.76434   0.17528   0.02241   0.00000  Uiso   1.00
H147   H     0.91112   0.03760   0.22994   0.00000  Uiso   1.00
H148   H     0.75561   0.03751   0.26972   0.00000  Uiso   1.00
H149   H     0.75560   0.29577   0.26989   0.00000  Uiso   1.00
H150   H     0.97535   0.11719   0.19338   0.00000  Uiso   1.00
H151   H     0.72635   0.11735   0.19312   0.00000  Uiso   1.00
H152   H     0.69123   0.21586   0.30708   0.00000  Uiso   1.00
H153   H     0.94027   0.21590   0.30700   0.00000  Uiso   1.00
H154   H     0.92371   0.09162   0.41327   0.00000  Uiso   1.00
H155   H     0.95577   0.10205   0.48579   0.00000  Uiso   1.00
H156   H     0.81516   0.18985   0.08502   0.00000  Uiso   1.00
H157   H     0.71986   0.19073   0.42141   0.00000  Uiso   1.00
H158   H     0.75275   0.18081   0.06560   0.00000  Uiso   1.00
H159   H     0.69676   0.19850   0.02019   0.00000  Uiso   1.00
H160   H     0.86373   0.10620   0.37245   0.00000  Uiso   1.00
H161   H     0.91111   0.29584   0.23016   0.00000  Uiso   1.00
N162   N     0.71426   0.16668   0.25002   0.00000  Uiso   1.00
N163   N     0.95239   0.16665   0.25000   0.00000  Uiso   1.00
O164   O     0.79512   0.22775   0.25001   0.00000  Uiso   1.00
O165   O     0.87157   0.22774   0.25000   0.00000  Uiso   1.00
O166   O     0.77613   0.16666   0.32681   0.00000  Uiso   1.00
O167   O     0.85258   0.16665   0.32681   0.00000  Uiso   1.00
O168   O     0.79510   0.10559   0.24999   0.00000  Uiso   1.00
O169   O     0.87154   0.10558   0.24999   0.00000  Uiso   1.00
O170   O     0.81409   0.16668   0.17319   0.00000  Uiso   1.00
O171   O     0.89053   0.16667   0.17319   0.00000  Uiso   1.00
Zn172  Zn    0.78229   0.16667   0.25000   0.00000  Uiso   1.00
Zn173  Zn    0.88438   0.16666   0.25000   0.00000  Uiso   1.00
C174   C     0.95555   0.12238   0.08543   0.00000  Uiso   1.00
H175   H     0.93847   0.10258   0.12167   0.00000  Uiso   1.00
H176   H     0.98581   0.10444   0.05658   0.00000  Uiso   1.00
H177   H     0.97116   0.15070   0.09712   0.00000  Uiso   1.00
C178   C     0.16668   0.58005   0.25004   0.00000  Uiso   1.00
C179   C     0.14328   0.49108   0.49249   0.00000  Uiso   1.00
C180   C     0.15247   0.47951   0.43809   0.00000  Uiso   1.00
C181   C     0.18016   0.48463   0.01456   0.00000  Uiso   1.00
C182   C     0.22164   0.46093   0.48575   0.00000  Uiso   1.00
C183   C     0.22641   0.44434   0.43514   0.00000  Uiso   1.00
C184   C     0.19224   0.45345   0.41153   0.00000  Uiso   1.00
C185   C     0.17738   0.50208   0.06398   0.00000  Uiso   1.00
C186   C     0.25182   0.46781   0.06059   0.00000  Uiso   1.00
C187   C     0.12206   0.49500   0.41131   0.00000  Uiso   1.00
C188   C     0.21039   0.64539   0.23902   0.00000  Uiso   1.00
C189   C     0.13981   0.49798   0.35219   0.00000  Uiso   1.00
C190   C     0.21039   0.35467   0.23890   0.00000  Uiso   1.00
C191   C     0.16669   0.37582   0.24986   0.00000  Uiso   1.00
C192   C     0.12300   0.35463   0.26086   0.00000  Uiso   1.00
C193   C     0.12300   0.64535   0.26096   0.00000  Uiso   1.00
C194   C     0.16669   0.62420   0.25003   0.00000  Uiso   1.00
C195   C     0.31908   0.47255   0.21846   0.00000  Uiso   1.00
C196   C     0.03372   0.47259   0.21841   0.00000  Uiso   1.00
C197   C     0.01421   0.52735   0.28172   0.00000  Uiso   1.00
C198   C     0.29958   0.52736   0.28167   0.00000  Uiso   1.00
C199   C     0.16667   0.41996   0.24991   0.00000  Uiso   1.00
C200   C     0.19363   0.49890   0.14764   0.00000  Uiso   1.00
C201   C     0.25755   0.45359   0.00824   0.00000  Uiso   1.00
C202   C     0.21024   0.49148   0.08908   0.00000  Uiso   1.00
C203   C     0.07746   0.51294   0.44129   0.00000  Uiso   1.00
C204   C     0.06473   0.51833   0.49700   0.00000  Uiso   1.00
C205   C     0.09767   0.50862   0.02241   0.00000  Uiso   1.00
H206   H     0.24445   0.37093   0.22994   0.00000  Uiso   1.00
H207   H     0.08894   0.37084   0.26972   0.00000  Uiso   1.00
H208   H     0.08894   0.62910   0.26989   0.00000  Uiso   1.00
H209   H     0.30869   0.45052   0.19338   0.00000  Uiso   1.00
H210   H     0.05969   0.45068   0.19312   0.00000  Uiso   1.00
H211   H     0.02457   0.54920   0.30708   0.00000  Uiso   1.00
H212   H     0.27360   0.54924   0.30700   0.00000  Uiso   1.00
H213   H     0.25705   0.42496   0.41327   0.00000  Uiso   1.00
H214   H     0.28910   0.43538   0.48579   0.00000  Uiso   1.00
H215   H     0.14849   0.52319   0.08502   0.00000  Uiso   1.00
H216   H     0.05319   0.52406   0.42141   0.00000  Uiso   1.00
H217   H     0.08608   0.51414   0.06560   0.00000  Uiso   1.00
H218   H     0.03009   0.53184   0.02019   0.00000  Uiso   1.00
H219   H     0.19707   0.43954   0.37245   0.00000  Uiso   1.00
H220   H     0.24444   0.62917   0.23016   0.00000  Uiso   1.00
N221   N     0.04760   0.50001   0.25002   0.00000  Uiso   1.00
N222   N     0.28573   0.49998   0.25000   0.00000  Uiso   1.00
O223   O     0.12846   0.56108   0.25001   0.00000  Uiso   1.00
O224   O     0.20490   0.56107   0.25000   0.00000  Uiso   1.00
O225   O     0.10947   0.50000   0.32681   0.00000  Uiso   1.00
O226   O     0.18591   0.49999   0.32681   0.00000  Uiso   1.00
O227   O     0.12843   0.43893   0.24999   0.00000  Uiso   1.00
O228   O     0.20488   0.43892   0.24999   0.00000  Uiso   1.00
O229   O     0.14742   0.50001   0.17319   0.00000  Uiso   1.00
O230   O     0.22387   0.50000   0.17319   0.00000  Uiso   1.00
Zn231  Zn    0.11562   0.50001   0.25000   0.00000  Uiso   1.00
Zn232  Zn    0.21771   0.49999   0.25000   0.00000  Uiso   1.00
C233   C     0.28888   0.45572   0.08543   0.00000  Uiso   1.00
H234   H     0.27181   0.43592   0.12167   0.00000  Uiso   1.00
H235   H     0.31914   0.43777   0.05658   0.00000  Uiso   1.00
H236   H     0.30449   0.48403   0.09712   0.00000  Uiso   1.00
C237   C     0.50001   0.58005   0.25004   0.00000  Uiso   1.00
C238   C     0.47662   0.49108   0.49249   0.00000  Uiso   1.00
C239   C     0.48580   0.47951   0.43809   0.00000  Uiso   1.00
C240   C     0.51350   0.48463   0.01456   0.00000  Uiso   1.00
C241   C     0.55498   0.46093   0.48575   0.00000  Uiso   1.00
C242   C     0.55974   0.44434   0.43514   0.00000  Uiso   1.00
C243   C     0.52557   0.45345   0.41153   0.00000  Uiso   1.00
C244   C     0.51071   0.50208   0.06398   0.00000  Uiso   1.00
C245   C     0.58515   0.46781   0.06059   0.00000  Uiso   1.00
C246   C     0.45539   0.49500   0.41131   0.00000  Uiso   1.00
C247   C     0.54372   0.64539   0.23902   0.00000  Uiso   1.00
C248   C     0.47314   0.49798   0.35219   0.00000  Uiso   1.00
C249   C     0.54373   0.35467   0.23890   0.00000  Uiso   1.00
C250   C     0.50002   0.37582   0.24986   0.00000  Uiso   1.00
C251   C     0.45633   0.35463   0.26086   0.00000  Uiso   1.00
C252   C     0.45633   0.64535   0.26096   0.00000  Uiso   1.00
C253   C     0.50003   0.62420   0.25003   0.00000  Uiso   1.00
C254   C     0.65242   0.47255   0.21846   0.00000  Uiso   1.00
C255   C     0.36706   0.47259   0.21841   0.00000  Uiso   1.00
C256   C     0.34754   0.52735   0.28172   0.00000  Uiso   1.00
C257   C     0.63292   0.52736   0.28167   0.00000  Uiso   1.00
C258   C     0.50000   0.41996   0.24991   0.00000  Uiso   1.00
C259   C     0.52697   0.49890   0.14764   0.00000  Uiso   1.00
C260   C     0.59088   0.45359   0.00824   0.00000  Uiso   1.00
C261   C     0.54357   0.49148   0.08908   0.00000  Uiso   1.00
C262   C     0.41079   0.51294   0.44129   0.00000  Uiso   1.00
C263   C     0.39806   0.51833   0.49700   0.00000  Uiso   1.00
C264   C     0.43100   0.50862   0.02241   0.00000  Uiso   1.00
H265   H     0.57779   0.37093   0.22994   0.00000  Uiso   1.00
H266   H     0.42228   0.37084   0.26972   0.00000  Uiso   1.00
H267   H     0.42227   0.62910   0.26989   0.00000  Uiso   1.00
H268   H     0.64202   0.45052   0.19338   0.00000  Uiso   1.00
H269   H     0.39302   0.45068   0.19312   0.00000  Uiso   1.00
H270   H     0.35790   0.54920   0.30708   0.00000  Uiso   1.00
H271   H     0.60694   0.54924   0.30700   0.00000  Uiso   1.00
H272   H     0.59038   0.42496   0.41327   0.00000  Uiso   1.00
H273   H     0.62244   0.43538   0.48579   0.00000  Uiso   1.00
H274   H     0.48182   0.52319   0.08502   0.00000  Uiso   1.00
H275   H     0.38653   0.52406   0.42141   0.00000  Uiso   1.00
H276   H     0.41941   0.51414   0.06560   0.00000  Uiso   1.00
H277   H     0.36343   0.53184   0.02019   0.00000  Uiso   1.00
H278   H     0.53040   0.43954   0.37245   0.00000  Uiso   1.00
H279   H     0.57778   0.62917   0.23016   0.00000  Uiso   1.00
N280   N     0.38093   0.50001   0.25002   0.00000  Uiso   1.00
N281   N     0.61906   0.49998   0.25000   0.00000  Uiso   1.00
O282   O     0.46179   0.56108   0.25001   0.00000  Uiso   1.00
O283   O     0.53823   0.56107   0.25000   0.00000  Uiso   1.00
O284   O     0.44280   0.50000   0.32681   0.00000  Uiso   1.00
O285   O     0.51924   0.49999   0.32681   0.00000  Uiso   1.00
O286   O     0.46177   0.43893   0.24999   0.00000  Uiso   1.00
O287   O     0.53821   0.43892   0.24999   0.00000  Uiso   1.00
O288   O     0.48076   0.50001   0.17319   0.00000  Uiso   1.00
O289   O     0.55720   0.50000   0.17319   0.00000  Uiso   1.00
Zn290  Zn    0.44896   0.50001   0.25000   0.00000  Uiso   1.00
Zn291  Zn    0.55104   0.49999   0.25000   0.00000  Uiso   1.00
C292   C     0.62221   0.45572   0.08543   0.00000  Uiso   1.00
H293   H     0.60514   0.43592   0.12167   0.00000  Uiso   1.00
H294   H     0.65248   0.43777   0.05658   0.00000  Uiso   1.00
H295   H     0.63783   0.48403   0.09712   0.00000  Uiso   1.00
C296   C     0.83335   0.58005   0.25004   0.00000  Uiso   1.00
C297   C     0.80995   0.49108   0.49249   0.00000  Uiso   1.00
C298   C     0.81914   0.47951   0.43809   0.00000  Uiso   1.00
C299   C     0.84683   0.48463   0.01456   0.00000  Uiso   1.00
C300   C     0.88831   0.46093   0.48575   0.00000  Uiso   1.00
C301   C     0.89307   0.44434   0.43514   0.00000  Uiso   1.00
C302   C     0.85891   0.45345   0.41153   0.00000  Uiso   1.00
C303   C     0.84404   0.50208   0.06398   0.00000  Uiso   1.00
C304   C     0.91849   0.46781   0.06059   0.00000  Uiso   1.00
C305   C     0.78872   0.49500   0.41131   0.00000  Uiso   1.00
C306   C     0.87706   0.64539   0.23902   0.00000  Uiso   1.00
C307   C     0.80647   0.49798   0.35219   0.00000  Uiso   1.00
C308   C     0.87706   0.35467   0.23890   0.00000  Uiso   1.00
C309   C     0.83336   0.37582   0.24986   0.00000  Uiso   1.00
C310   C     0.78967   0.35463   0.26086   0.00000  Uiso   1.00
C311   C     0.78966   0.64535   0.26096   0.00000  Uiso   1.00
C312   C     0.83336   0.62420   0.25003   0.00000  Uiso   1.00
C313   C     0.98575   0.47255   0.21846   0.00000  Uiso   1.00
C314   C     0.70039   0.47259   0.21841   0.00000  Uiso   1.00
C315   C     0.68087   0.52735   0.28172   0.00000  Uiso   1.00
C316   C     0.96625   0.52736   0.28167   0.00000  Uiso   1.00
C317   C     0.83334   0.41996   0.24991   0.00000  Uiso   1.00
C318   C     0.86030   0.49890   0.14764   0.00000  Uiso   1.00
C319   C     0.92422   0.45359   0.00824   0.00000  Uiso   1.00
C320   C     0.87691   0.49148   0.08908   0.00000  Uiso   1.00
C321   C     0.74413   0.51294   0.44129   0.00000  Uiso   1.00
C322   C     0.73140   0.51833   0.49700   0.00000  Uiso   1.00
C323   C     0.76434   0.50862   0.02241   0.00000  Uiso   1.00
H324   H     0.91112   0.37093   0.22994   0.00000  Uiso   1.00
H325   H     0.75561   0.37084   0.26972   0.00000  Uiso   1.00
H326   H     0.75560   0.62910   0.26989   0.00000  Uiso   1.00
H327   H     0.97535   0.45052   0.19338   0.00000  Uiso   1.00
H328   H     0.72635   0.45068   0.19312   0.00000  Uiso   1.00
H329   H     0.69123   0.54920   0.30708   0.00000  Uiso   1.00
H330   H     0.94027   0.54924   0.30700   0.00000  Uiso   1.00
H331   H     0.92371   0.42496   0.41327   0.00000  Uiso   1.00
H332   H     0.95577   0.43538   0.48579   0.00000  Uiso   1.00
H333   H     0.81516   0.52319   0.08502   0.00000  Uiso   1.00
H334   H     0.71986   0.52406   0.42141   0.00000  Uiso   1.00
H335   H     0.75275   0.51414   0.06560   0.00000  Uiso   1.00
H336   H     0.69676   0.53184   0.02019   0.00000  Uiso   1.00
H337   H     0.86373   0.43954   0.37245   0.00000  Uiso   1.00
H338   H     0.91111   0.62917   0.23016   0.00000  Uiso   1.00
N339   N     0.71426   0.50001   0.25002   0.00000  Uiso   1.00
N340   N     0.95239   0.49998   0.25000   0.00000  Uiso   1.00
O341   O     0.79512   0.56108   0.25001   0.00000  Uiso   1.00
O342   O     0.87157   0.56107   0.25000   0.00000  Uiso   1.00
O343   O     0.77613   0.50000   0.32681   0.00000  Uiso   1.00
O344   O     0.85258   0.49999   0.32681   0.00000  Uiso   1.00
O345   O     0.79510   0.43893   0.24999   0.00000  Uiso   1.00
O346   O     0.87154   0.43892   0.24999   0.00000  Uiso   1.00
O347   O     0.81409   0.50001   0.17319   0.00000  Uiso   1.00
O348   O     0.89053   0.50000   0.17319   0.00000  Uiso   1.00
Zn349  Zn    0.78229   0.50001   0.25000   0.00000  Uiso   1.00
Zn350  Zn    0.88438   0.49999   0.25000   0.00000  Uiso   1.00
C351   C     0.95555   0.45572   0.08543   0.00000  Uiso   1.00
H352   H     0.93847   0.43592   0.12167   0.00000  Uiso   1.00
H353   H     0.98581   0.43777   0.05658   0.00000  Uiso   1.00
H354   H     0.97116   0.48403   0.09712   0.00000  Uiso   1.00
C355   C     0.16668   0.91338   0.25004   0.00000  Uiso   1.00
C356   C     0.14328   0.82441   0.49249   0.00000  Uiso   1.00
C357   C     0.15247   0.81284   0.43809   0.00000  Uiso   1.00
C358   C     0.18016   0.81796   0.01456   0.00000  Uiso   1.00
C359   C     0.22164   0.79426   0.48575   0.00000  Uiso   1.00
C360   C     0.22641   0.77767   0.43514   0.00000  Uiso   1.00
C361   C     0.19224   0.78678   0.41153   0.00000  Uiso   1.00
C362   C     0.17738   0.83541   0.06398   0.00000  Uiso   1.00
C363   C     0.25182   0.80114   0.06059   0.00000  Uiso   1.00
C364   C     0.12206   0.82833   0.41131   0.00000  Uiso   1.00
C365   C     0.21039   0.97873   0.23902   0.00000  Uiso   1.00
C366   C     0.13981   0.83132   0.35219   0.00000  Uiso   1.00
C367   C     0.21039   0.68801   0.23890   0.00000  Uiso   1.00
C368   C     0.16669   0.70915   0.24986   0.00000  Uiso   1.00
C369   C     0.12300   0.68796   0.26086   0.00000  Uiso   1.00
C370   C     0.12300   0.97868   0.26096   0.00000  Uiso   1.00
C371   C     0.16669   0.95753   0.25003   0.00000  Uiso   1.00
C372   C     0.31908   0.80588   0.21846   0.00000  Uiso   1.00
C373   C     0.03372   0.80593   0.21841   0.00000  Uiso   1.00
C374   C     0.01421   0.86068   0.28172   0.00000  Uiso   1.00
C375   C     0.29958   0.86069   0.28167   0.00000  Uiso   1.00
C376   C     0.16667   0.75329   0.24991   0.00000  Uiso   1.00
C377   C     0.19363   0.83223   0.14764   0.00000  Uiso   1.00
C378   C     0.25755   0.78693   0.00824   0.00000  Uiso   1.00
C379   C     0.21024   0.82481   0.08908   0.00000  Uiso   1.00
C380   C     0.07746   0.84628   0.44129   0.00000  Uiso   1.00
C381   C     0.06473   0.85166   0.49700   0.00000  Uiso   1.00
C382   C     0.09767   0.84195   0.02241   0.00000  Uiso   1.00
H383   H     0.24445   0.70426   0.22994   0.00000  Uiso   1.00
H384   H     0.08894   0.70418   0.26972   0.00000  Uiso   1.00
H385   H     0.08894   0.96244   0.26989   0.00000  Uiso   1.00
H386   H     0.30869   0.78385   0.19338   0.00000  Uiso   1.00
H387   H     0.05969   0.78402   0.19312   0.00000  Uiso   1.00
H388   H     0.02457   0.88253   0.30708   0.00000  Uiso   1.00
H389   H     0.27360   0.88257   0.30700   0.00000  Uiso   1.00
H390   H     0.25705   0.75829   0.41327   0.00000  Uiso   1.00
H391   H     0.28910   0.76871   0.48579   0.00000  Uiso   1.00
H392   H     0.14849   0.85652   0.08502   0.00000  Uiso   1.00
H393   H     0.05319   0.85739   0.42141   0.00000  Uiso   1.00
H394   H     0.08608   0.84747   0.06560   0.00000  Uiso   1.00
H395   H     0.03009   0.86517   0.02019   0.00000  Uiso   1.00
H396   H     0.19707   0.77287   0.37245   0.00000  Uiso   1.00
H397   H     0.24444   0.96251   0.23016   0.00000  Uiso   1.00
N398   N     0.04760   0.83334   0.25002   0.00000  Uiso   1.00
N399   N     0.28573   0.83331   0.25000   0.00000  Uiso   1.00
O400   O     0.12846   0.89442   0.25001   0.00000  Uiso   1.00
O401   O     0.20490   0.89441   0.25000   0.00000  Uiso   1.00
O402   O     0.10947   0.83333   0.32681   0.00000  Uiso   1.00
O403   O     0.18591   0.83332   0.32681   0.00000  Uiso   1.00
O404   O     0.12843   0.77226   0.24999   0.00000  Uiso   1.00
O405   O     0.20488   0.77225   0.24999   0.00000  Uiso   1.00
O406   O     0.14742   0.83335   0.17319   0.00000  Uiso   1.00
O407   O     0.22387   0.83334   0.17319   0.00000  Uiso   1.00
Zn408  Zn    0.11562   0.83334   0.25000   0.00000  Uiso   1.00
Zn409  Zn    0.21771   0.83333   0.25000   0.00000  Uiso   1.00
C410   C     0.28888   0.78905   0.08543   0.00000  Uiso   1.00
H411   H     0.27181   0.76925   0.12167   0.00000  Uiso   1.00
H412   H     0.31914   0.77111   0.05658   0.00000  Uiso   1.00
H413   H     0.30449   0.81737   0.09712   0.00000  Uiso   1.00
C414   C     0.50001   0.91338   0.25004   0.00000  Uiso   1.00
C415   C     0.47662   0.82441   0.49249   0.00000  Uiso   1.00
C416   C     0.48580   0.81284   0.43809   0.00000  Uiso   1.00
C417   C     0.51350   0.81796   0.01456   0.00000  Uiso   1.00
C418   C     0.55498   0.79426   0.48575   0.00000  Uiso   1.00
C419   C     0.55974   0.77767   0.43514   0.00000  Uiso   1.00
C420   C     0.52557   0.78678   0.41153   0.00000  Uiso   1.00
C421   C     0.51071   0.83541   0.06398   0.00000  Uiso   1.00
C422   C     0.58515   0.80114   0.06059   0.00000  Uiso   1.00
C423   C     0.45539   0.82833   0.41131   0.00000  Uiso   1.00
C424   C     0.54372   0.97873   0.23902   0.00000  Uiso   1.00
C425   C     0.47314   0.83132   0.35219   0.00000  Uiso   1.00
C426   C     0.54373   0.68801   0.23890   0.00000  Uiso   1.00
C427   C     0.50002   0.70915   0.24986   0.00000  Uiso   1.00
C428   C     0.45633   0.68796   0.26086   0.00000  Uiso   1.00
C429   C     0.45633   0.97868   0.26096   0.00000  Uiso   1.00
C430   C     0.50003   0.95753   0.25003   0.00000  Uiso   1.00
C431   C     0.65242   0.80588   0.21846   0.00000  Uiso   1.00
C432   C     0.36706   0.80593   0.21841   0.00000  Uiso   1.00
C433   C     0.34754   0.86068   0.28172   0.00000  Uiso   1.00
C434   C     0.63292   0.86069   0.28167   0.00000  Uiso   1.00
C435   C     0.50000   0.75329   0.24991   0.00000  Uiso   1.00
C436   C     0.52697   0.83223   0.14764   0.00000  Uiso   1.00
C437   C     0.59088   0.78693   0.00824   0.00000  Uiso   1.00
C438   C     0.54357   0.82481   0.08908   0.00000  Uiso   1.00
C439   C     0.41079   0.84628   0.44129   0.00000  Uiso   1.00
C440   C     0.39806   0.85166   0.49700   0.00000  Uiso   1.00
C441   C     0.43100   0.84195   0.02241   0.00000  Uiso   1.00
H442   H     0.57779   0.70426   0.22994   0.00000  Uiso   1.00
H443   H     0.42228   0.70418   0.26972   0.00000  Uiso   1.00
H444   H     0.42227   0.96244   0.26989   0.00000  Uiso   1.00
H445   H     0.64202   0.78385   0.19338   0.00000  Uiso   1.00
H446   H     0.39302   0.78402   0.19312   0.00000  Uiso   1.00
H447   H     0.35790   0.88253   0.30708   0.00000  Uiso   1.00
H448   H     0.60694   0.88257   0.30700   0.00000  Uiso   1.00
H449   H     0.59038   0.75829   0.41327   0.00000  Uiso   1.00
H450   H     0.62244   0.76871   0.48579   0.00000  Uiso   1.00
H451   H     0.48182   0.85652   0.08502   0.00000  Uiso   1.00
H452   H     0.38653   0.85739   0.42141   0.00000  Uiso   1.00
H453   H     0.41941   0.84747   0.06560   0.00000  Uiso   1.00
H454   H     0.36343   0.86517   0.02019   0.00000  Uiso   1.00
H455   H     0.53040   0.77287   0.37245   0.00000  Uiso   1.00
H456   H     0.57778   0.96251   0.23016   0.00000  Uiso   1.00
N457   N     0.38093   0.83334   0.25002   0.00000  Uiso   1.00
N458   N     0.61906   0.83331   0.25000   0.00000  Uiso   1.00
O459   O     0.46179   0.89442   0.25001   0.00000  Uiso   1.00
O460   O     0.53823   0.89441   0.25000   0.00000  Uiso   1.00
O461   O     0.44280   0.83333   0.32681   0.00000  Uiso   1.00
O462   O     0.51924   0.83332   0.32681   0.00000  Uiso   1.00
O463   O     0.46177   0.77226   0.24999   0.00000  Uiso   1.00
O464   O     0.53821   0.77225   0.24999   0.00000  Uiso   1.00
O465   O     0.48076   0.83335   0.17319   0.00000  Uiso   1.00
O466   O     0.55720   0.83334   0.17319   0.00000  Uiso   1.00
Zn467  Zn    0.44896   0.83334   0.25000   0.00000  Uiso   1.00
Zn468  Zn    0.55104   0.83333   0.25000   0.00000  Uiso   1.00
C469   C     0.62221   0.78905   0.08543   0.00000  Uiso   1.00
H470   H     0.60514   0.76925   0.12167   0.00000  Uiso   1.00
H471   H     0.65248   0.77111   0.05658   0.00000  Uiso   1.00
H472   H     0.63783   0.81737   0.09712   0.00000  Uiso   1.00
C473   C     0.83335   0.91338   0.25004   0.00000  Uiso   1.00
C474   C     0.80995   0.82441   0.49249   0.00000  Uiso   1.00
C475   C     0.81914   0.81284   0.43809   0.00000  Uiso   1.00
C476   C     0.84683   0.81796   0.01456   0.00000  Uiso   1.00
C477   C     0.88831   0.79426   0.48575   0.00000  Uiso   1.00
C478   C     0.89307   0.77767   0.43514   0.00000  Uiso   1.00
C479   C     0.85891   0.78678   0.41153   0.00000  Uiso   1.00
C480   C     0.84404   0.83541   0.06398   0.00000  Uiso   1.00
C481   C     0.91849   0.80114   0.06059   0.00000  Uiso   1.00
C482   C     0.78872   0.82833   0.41131   0.00000  Uiso   1.00
C483   C     0.87706   0.97873   0.23902   0.00000  Uiso   1.00
C484   C     0.80647   0.83132   0.35219   0.00000  Uiso   1.00
C485   C     0.87706   0.68801   0.23890   0.00000  Uiso   1.00
C486   C     0.83336   0.70915   0.24986   0.00000  Uiso   1.00
C487   C     0.78967   0.68796   0.26086   0.00000  Uiso   1.00
C488   C     0.78966   0.97868   0.26096   0.00000  Uiso   1.00
C489   C     0.83336   0.95753   0.25003   0.00000  Uiso   1.00
C490   C     0.98575   0.80588   0.21846   0.00000  Uiso   1.00
C491   C     0.70039   0.80593   0.21841   0.00000  Uiso   1.00
C492   C     0.68087   0.86068   0.28172   0.00000  Uiso   1.00
C493   C     0.96625   0.86069   0.28167   0.00000  Uiso   1.00
C494   C     0.83334   0.75329   0.24991   0.00000  Uiso   1.00
C495   C     0.86030   0.83223   0.14764   0.00000  Uiso   1.00
C496   C     0.92422   0.78693   0.00824   0.00000  Uiso   1.00
C497   C     0.87691   0.82481   0.08908   0.00000  Uiso   1.00
C498   C     0.74413   0.84628   0.44129   0.00000  Uiso   1.00
C499   C     0.73140   0.85166   0.49700   0.00000  Uiso   1.00
C500   C     0.76434   0.84195   0.02241   0.00000  Uiso   1.00
H501   H     0.91112   0.70426   0.22994   0.00000  Uiso   1.00
H502   H     0.75561   0.70418   0.26972   0.00000  Uiso   1.00
H503   H     0.75560   0.96244   0.26989   0.00000  Uiso   1.00
H504   H     0.97535   0.78385   0.19338   0.00000  Uiso   1.00
H505   H     0.72635   0.78402   0.19312   0.00000  Uiso   1.00
H506   H     0.69123   0.88253   0.30708   0.00000  Uiso   1.00
H507   H     0.94027   0.88257   0.30700   0.00000  Uiso   1.00
H508   H     0.92371   0.75829   0.41327   0.00000  Uiso   1.00
H509   H     0.95577   0.76871   0.48579   0.00000  Uiso   1.00
H510   H     0.81516   0.85652   0.08502   0.00000  Uiso   1.00
H511   H     0.71986   0.85739   0.42141   0.00000  Uiso   1.00
H512   H     0.75275   0.84747   0.06560   0.00000  Uiso   1.00
H513   H     0.69676   0.86517   0.02019   0.00000  Uiso   1.00
H514   H     0.86373   0.77287   0.37245   0.00000  Uiso   1.00
H515   H     0.91111   0.96251   0.23016   0.00000  Uiso   1.00
N516   N     0.71426   0.83334   0.25002   0.00000  Uiso   1.00
N517   N     0.95239   0.83331   0.25000   0.00000  Uiso   1.00
O518   O     0.79512   0.89442   0.25001   0.00000  Uiso   1.00
O519   O     0.87157   0.89441   0.25000   0.00000  Uiso   1.00
O520   O     0.77613   0.83333   0.32681   0.00000  Uiso   1.00
O521   O     0.85258   0.83332   0.32681   0.00000  Uiso   1.00
O522   O     0.79510   0.77226   0.24999   0.00000  Uiso   1.00
O523   O     0.87154   0.77225   0.24999   0.00000  Uiso   1.00
O524   O     0.81409   0.83335   0.17319   0.00000  Uiso   1.00
O525   O     0.89053   0.83334   0.17319   0.00000  Uiso   1.00
Zn526  Zn    0.78229   0.83334   0.25000   0.00000  Uiso   1.00
Zn527  Zn    0.88438   0.83333   0.25000   0.00000  Uiso   1.00
C528   C     0.95555   0.78905   0.08543   0.00000  Uiso   1.00
H529   H     0.93847   0.76925   0.12167   0.00000  Uiso   1.00
H530   H     0.98581   0.77111   0.05658   0.00000  Uiso   1.00
H531   H     0.97116   0.81737   0.09712   0.00000  Uiso   1.00
C532   C     0.16668   0.24671   0.75004   0.00000  Uiso   1.00
C533   C     0.14328   0.15775   0.99249   0.00000  Uiso   1.00
C534   C     0.15247   0.14618   0.93809   0.00000  Uiso   1.00
C535   C     0.18016   0.15129   0.51456   0.00000  Uiso   1.00
C536   C     0.22164   0.12759   0.98575   0.00000  Uiso   1.00
C537   C     0.22641   0.11101   0.93514   0.00000  Uiso   1.00
C538   C     0.19224   0.12011   0.91153   0.00000  Uiso   1.00
C539   C     0.17738   0.16875   0.56398   0.00000  Uiso   1.00
C540   C     0.25182   0.13448   0.56059   0.00000  Uiso   1.00
C541   C     0.12206   0.16167   0.91131   0.00000  Uiso   1.00
C542   C     0.21039   0.31206   0.73902   0.00000  Uiso   1.00
C543   C     0.13981   0.16465   0.85219   0.00000  Uiso   1.00
C544   C     0.21039   0.02134   0.73890   0.00000  Uiso   1.00
C545   C     0.16669   0.04248   0.74986   0.00000  Uiso   1.00
C546   C     0.12300   0.02129   0.76086   0.00000  Uiso   1.00
C547   C     0.12300   0.31202   0.76096   0.00000  Uiso   1.00
C548   C     0.16669   0.29086   0.75003   0.00000  Uiso   1.00
C549   C     0.31908   0.13921   0.71846   0.00000  Uiso   1.00
C550   C     0.03372   0.13926   0.71841   0.00000  Uiso   1.00
C551   C     0.01421   0.19401   0.78172   0.00000  Uiso   1.00
C552   C     0.29958   0.19402   0.78167   0.00000  Uiso   1.00
C553   C     0.16667   0.08662   0.74991   0.00000  Uiso   1.00
C554   C     0.19363   0.16557   0.64764   0.00000  Uiso   1.00
C555   C     0.25755   0.12026   0.50824   0.00000  Uiso   1.00
C556   C     0.21024   0.15814   0.58908   0.00000  Uiso   1.00
C557   C     0.07746   0.17961   0.94129   0.00000  Uiso   1.00
C558   C     0.06473   0.18499   0.99700   0.00000  Uiso   1.00
C559   C     0.09767   0.17528   0.52241   0.00000  Uiso   1.00
H560   H     0.24445   0.03760   0.72994   0.00000  Uiso   1.00
H561   H     0.08894   0.03751   0.76972   0.00000  Uiso   1.00
H562   H     0.08894   0.29577   0.76989   0.00000  Uiso   1.00
H563   H     0.30869   0.11719   0.69338   0.00000  Uiso   1.00
H564   H     0.05969   0.11735   0.69312   0.00000  Uiso   1.00
H565   H     0.02457   0.21586   0.80708   0.00000  Uiso   1.00
H566   H     0.27360   0.21590   0.80700   0.00000  Uiso   1.00
H567   H     0.25705   0.09162   0.91327   0.00000  Uiso   1.00
H568   H     0.28910   0.10205   0.98579   0.00000  Uiso   1.00
H569   H     0.14849   0.18985   0.58502   0.00000  Uiso   1.00
H570   H     0.05319   0.19073   0.92141   0.00000  Uiso   1.00
H571   H     0.08608   0.18081   0.56560   0.00000  Uiso   1.00
H572   H     0.03009   0.19850   0.52019   0.00000  Uiso   1.00
H573   H     0.19707   0.10620   0.87245   0.00000  Uiso   1.00
H574   H     0.24444   0.29584   0.73016   0.00000  Uiso   1.00
N575   N     0.04760   0.16668   0.75002   0.00000  Uiso   1.00
N576   N     0.28573   0.16665   0.75000   0.00000  Uiso   1.00
O577   O     0.12846   0.22775   0.75001   0.00000  Uiso   1.00
O578   O     0.20490   0.22774   0.75000   0.00000  Uiso   1.00
O579   O     0.10947   0.16666   0.82681   0.00000  Uiso   1.00
O580   O     0.18591   0.16665   0.82681   0.00000  Uiso   1.00
O581   O     0.12843   0.10559   0.74999   0.00000  Uiso   1.00
O582   O     0.20488   0.10558   0.74999   0.00000  Uiso   1.00
O583   O     0.14742   0.16668   0.67319   0.00000  Uiso   1.00
O584   O     0.22387   0.16667   0.67319   0.00000  Uiso   1.00
Zn585  Zn    0.11562   0.16667   0.75000   0.00000  Uiso   1.00
Zn586  Zn    0.21771   0.16666   0.75000   0.00000  Uiso   1.00
C587   C     0.28888   0.12238   0.58543   0.00000  Uiso   1.00
H588   H     0.27181   0.10258   0.62167   0.00000  Uiso   1.00
H589   H     0.31914   0.10444   0.55658   0.00000  Uiso   1.00
H590   H     0.30449   0.15070   0.59712   0.00000  Uiso   1.00
C591   C     0.50001   0.24671   0.75004   0.00000  Uiso   1.00
C592   C     0.47662   0.15775   0.99249   0.00000  Uiso   1.00
C593   C     0.48580   0.14618   0.93809   0.00000  Uiso   1.00
C594   C     0.51350   0.15129   0.51456   0.00000  Uiso   1.00
C595   C     0.55498   0.12759   0.98575   0.00000  Uiso   1.00
C596   C     0.55974   0.11101   0.93514   0.00000  Uiso   1.00
C597   C     0.52557   0.12011   0.91153   0.00000  Uiso   1.00
C598   C     0.51071   0.16875   0.56398   0.00000  Uiso   1.00
C599   C     0.58515   0.13448   0.56059   0.00000  Uiso   1.00
C600   C     0.45539   0.16167   0.91131   0.00000  Uiso   1.00
C601   C     0.54372   0.31206   0.73902   0.00000  Uiso   1.00
C602   C     0.47314   0.16465   0.85219   0.00000  Uiso   1.00
C603   C     0.54373   0.02134   0.73890   0.00000  Uiso   1.00
C604   C     0.50002   0.04248   0.74986   0.00000  Uiso   1.00
C605   C     0.45633   0.02129   0.76086   0.00000  Uiso   1.00
C606   C     0.45633   0.31202   0.76096   0.00000  Uiso   1.00
C607   C     0.50003   0.29086   0.75003   0.00000  Uiso   1.00
C608   C     0.65242   0.13921   0.71846   0.00000  Uiso   1.00
C609   C     0.36706   0.13926   0.71841   0.00000  Uiso   1.00
C610   C     0.34754   0.19401   0.78172   0.00000  Uiso   1.00
C611   C     0.63292   0.19402   0.78167   0.00000  Uiso   1.00
C612   C     0.50000   0.08662   0.74991   0.00000  Uiso   1.00
C613   C     0.52697   0.16557   0.64764   0.00000  Uiso   1.00
C614   C     0.59088   0.12026   0.50824   0.00000  Uiso   1.00
C615   C     0.54357   0.15814   0.58908   0.00000  Uiso   1.00
C616   C     0.41079   0.17961   0.94129   0.00000  Uiso   1.00
C617   C     0.39806   0.18499   0.99700   0.00000  Uiso   1.00
C618   C     0.43100   0.17528   0.52241   0.00000  Uiso   1.00
H619   H     0.57779   0.03760   0.72994   0.00000  Uiso   1.00
H620   H     0.42228   0.03751   0.76972   0.00000  Uiso   1.00
H621   H     0.42227   0.29577   0.76989   0.00000  Uiso   1.00
H622   H     0.64202   0.11719   0.69338   0.00000  Uiso   1.00
H623   H     0.39302   0.11735   0.69312   0.00000  Uiso   1.00
H624   H     0.35790   0.21586   0.80708   0.00000  Uiso   1.00
H625   H     0.60694   0.21590   0.80700   0.00000  Uiso   1.00
H626   H     0.59038   0.09162   0.91327   0.00000  Uiso   1.00
H627   H     0.62244   0.10205   0.98579   0.00000  Uiso   1.00
H628   H     0.48182   0.18985   0.58502   0.00000  Uiso   1.00
H629   H     0.38653   0.19073   0.92141   0.00000  Uiso   1.00
H630   H     0.41941   0.18081   0.56560   0.00000  Uiso   1.00
H631   H     0.36343   0.19850   0.52019   0.00000  Uiso   1.00
H632   H     0.53040   0.10620   0.87245   0.00000  Uiso   1.00
H633   H     0.57778   0.29584   0.73016   0.00000  Uiso   1.00
N634   N     0.38093   0.16668   0.75002   0.00000  Uiso   1.00
N635   N     0.61906   0.16665   0.75000   0.00000  Uiso   1.00
O636   O     0.46179   0.22775   0.75001   0.00000  Uiso   1.00
O637   O     0.53823   0.22774   0.75000   0.00000  Uiso   1.00
O638   O     0.44280   0.16666   0.82681   0.00000  Uiso   1.00
O639   O     0.51924   0.16665   0.82681   0.00000  Uiso   1.00
O640   O     0.46177   0.10559   0.74999   0.00000  Uiso   1.00
O641   O     0.53821   0.10558   0.74999   0.00000  Uiso   1.00
O642   O     0.48076   0.16668   0.67319   0.00000  Uiso   1.00
O643   O     0.55720   0.16667   0.67319   0.00000  Uiso   1.00
Zn644  Zn    0.44896   0.16667   0.75000   0.00000  Uiso   1.00
Zn645  Zn    0.55104   0.16666   0.75000   0.00000  Uiso   1.00
C646   C     0.62221   0.12238   0.58543   0.00000  Uiso   1.00
H647   H     0.60514   0.10258   0.62167   0.00000  Uiso   1.00
H648   H     0.65248   0.10444   0.55658   0.00000  Uiso   1.00
H649   H     0.63783   0.15070   0.59712   0.00000  Uiso   1.00
C650   C     0.83335   0.24671   0.75004   0.00000  Uiso   1.00
C651   C     0.80995   0.15775   0.99249   0.00000  Uiso   1.00
C652   C     0.81914   0.14618   0.93809   0.00000  Uiso   1.00
C653   C     0.84683   0.15129   0.51456   0.00000  Uiso   1.00
C654   C     0.88831   0.12759   0.98575   0.00000  Uiso   1.00
C655   C     0.89307   0.11101   0.93514   0.00000  Uiso   1.00
C656   C     0.85891   0.12011   0.91153   0.00000  Uiso   1.00
C657   C     0.84404   0.16875   0.56398   0.00000  Uiso   1.00
C658   C     0.91849   0.13448   0.56059   0.00000  Uiso   1.00
C659   C     0.78872   0.16167   0.91131   0.00000  Uiso   1.00
C660   C     0.87706   0.31206   0.73902   0.00000  Uiso   1.00
C661   C     0.80647   0.16465   0.85219   0.00000  Uiso   1.00
C662   C     0.87706   0.02134   0.73890   0.00000  Uiso   1.00
C663   C     0.83336   0.04248   0.74986   0.00000  Uiso   1.00
C664   C     0.78967   0.02129   0.76086   0.00000  Uiso   1.00
C665   C     0.78966   0.31202   0.76096   0.00000  Uiso   1.00
C666   C     0.83336   0.29086   0.75003   0.00000  Uiso   1.00
C667   C     0.98575   0.13921   0.71846   0.00000  Uiso   1.00
C668   C     0.70039   0.13926   0.71841   0.00000  Uiso   1.00
C669   C     0.68087   0.19401   0.78172   0.00000  Uiso   1.00
C670   C     0.96625   0.19402   0.78167   0.00000  Uiso   1.00
C671   C     0.83334   0.08662   0.74991   0.00000  Uiso   1.00
C672   C     0.86030   0.16557   0.64764   0.00000  Uiso   1.00
C673   C     0.92422   0.12026   0.50824   0.00000  Uiso   1.00
C674   C     0.87691   0.15814   0.58908   0.00000  Uiso   1.00
C675   C     0.74413   0.17961   0.94129   0.00000  Uiso   1.00
C676   C     0.73140   0.18499   0.99700   0.00000  Uiso   1.00
C677   C     0.76434   0.17528   0.52241   0.00000  Uiso   1.00
H678   H     0.91112   0.03760   0.72994   0.00000  Uiso   1.00
H679   H     0.75561   0.03751   0.76972   0.00000  Uiso   1.00
H680   H     0.75560   0.29577   0.76989   0.00000  Uiso   1.00
H681   H     0.97535   0.11719   0.69338   0.00000  Uiso   1.00
H682   H     0.72635   0.11735   0.69312   0.00000  Uiso   1.00
H683   H     0.69123   0.21586   0.80708   0.00000  Uiso   1.00
H684   H     0.94027   0.21590   0.80700   0.00000  Uiso   1.00
H685   H     0.92371   0.09162   0.91327   0.00000  Uiso   1.00
H686   H     0.95577   0.10205   0.98579   0.00000  Uiso   1.00
H687   H     0.81516   0.18985   0.58502   0.00000  Uiso   1.00
H688   H     0.71986   0.19073   0.92141   0.00000  Uiso   1.00
H689   H     0.75275   0.18081   0.56560   0.00000  Uiso   1.00
H690   H     0.69676   0.19850   0.52019   0.00000  Uiso   1.00
H691   H     0.86373   0.10620   0.87245   0.00000  Uiso   1.00
H692   H     0.91111   0.29584   0.73016   0.00000  Uiso   1.00
N693   N     0.71426   0.16668   0.75002   0.00000  Uiso   1.00
N694   N     0.95239   0.16665   0.75000   0.00000  Uiso   1.00
O695   O     0.79512   0.22775   0.75001   0.00000  Uiso   1.00
O696   O     0.87157   0.22774   0.75000   0.00000  Uiso   1.00
O697   O     0.77613   0.16666   0.82681   0.00000  Uiso   1.00
O698   O     0.85258   0.16665   0.82681   0.00000  Uiso   1.00
O699   O     0.79510   0.10559   0.74999   0.00000  Uiso   1.00
O700   O     0.87154   0.10558   0.74999   0.00000  Uiso   1.00
O701   O     0.81409   0.16668   0.67319   0.00000  Uiso   1.00
O702   O     0.89053   0.16667   0.67319   0.00000  Uiso   1.00
Zn703  Zn    0.78229   0.16667   0.75000   0.00000  Uiso   1.00
Zn704  Zn    0.88438   0.16666   0.75000   0.00000  Uiso   1.00
C705   C     0.95555   0.12238   0.58543   0.00000  Uiso   1.00
H706   H     0.93847   0.10258   0.62167   0.00000  Uiso   1.00
H707   H     0.98581   0.10444   0.55658   0.00000  Uiso   1.00
H708   H     0.97116   0.15070   0.59712   0.00000  Uiso   1.00
C709   C     0.16668   0.58005   0.75004   0.00000  Uiso   1.00
C710   C     0.14328   0.49108   0.99249   0.00000  Uiso   1.00
C711   C     0.15247   0.47951   0.93809   0.00000  Uiso   1.00
C712   C     0.18016   0.48463   0.51456   0.00000  Uiso   1.00
C713   C     0.22164   0.46093   0.98575   0.00000  Uiso   1.00
C714   C     0.22641   0.44434   0.93514   0.00000  Uiso   1.00
C715   C     0.19224   0.45345   0.91153   0.00000  Uiso   1.00
C716   C     0.17738   0.50208   0.56398   0.00000  Uiso   1.00
C717   C     0.25182   0.46781   0.56059   0.00000  Uiso   1.00
C718   C     0.12206   0.49500   0.91131   0.00000  Uiso   1.00
C719   C     0.21039   0.64539   0.73902   0.00000  Uiso   1.00
C720   C     0.13981   0.49798   0.85219   0.00000  Uiso   1.00
C721   C     0.21039   0.35467   0.73890   0.00000  Uiso   1.00
C722   C     0.16669   0.37582   0.74986   0.00000  Uiso   1.00
C723   C     0.12300   0.35463   0.76086   0.00000  Uiso   1.00
C724   C     0.12300   0.64535   0.76096   0.00000  Uiso   1.00
C725   C     0.16669   0.62420   0.75003   0.00000  Uiso   1.00
C726   C     0.31908   0.47255   0.71846   0.00000  Uiso   1.00
C727   C     0.03372   0.47259   0.71841   0.00000  Uiso   1.00
C728   C     0.01421   0.52735   0.78172   0.00000  Uiso   1.00
C729   C     0.29958   0.52736   0.78167   0.00000  Uiso   1.00
C730   C     0.16667   0.41996   0.74991   0.00000  Uiso   1.00
C731   C     0.19363   0.49890   0.64764   0.00000  Uiso   1.00
C732   C     0.25755   0.45359   0.50824   0.00000  Uiso   1.00
C733   C     0.21024   0.49148   0.58908   0.00000  Uiso   1.00
C734   C     0.07746   0.51294   0.94129   0.00000  Uiso   1.00
C735   C     0.06473   0.51833   0.99700   0.00000  Uiso   1.00
C736   C     0.09767   0.50862   0.52241   0.00000  Uiso   1.00
H737   H     0.24445   0.37093   0.72994   0.00000  Uiso   1.00
H738   H     0.08894   0.37084   0.76972   0.00000  Uiso   1.00
H739   H     0.08894   0.62910   0.76989   0.00000  Uiso   1.00
H740   H     0.30869   0.45052   0.69338   0.00000  Uiso   1.00
H741   H     0.05969   0.45068   0.69312   0.00000  Uiso   1.00
H742   H     0.02457   0.54920   0.80708   0.00000  Uiso   1.00
H743   H     0.27360   0.54924   0.80700   0.00000  Uiso   1.00
H744   H     0.25705   0.42496   0.91327   0.00000  Uiso   1.00
H745   H     0.28910   0.43538   0.98579   0.00000  Uiso   1.00
H746   H     0.14849   0.52319   0.58502   0.00000  Uiso   1.00
H747   H     0.05319   0.52406   0.92141   0.00000  Uiso   1.00
H748   H     0.08608   0.51414   0.56560   0.00000  Uiso   1.00
H749   H     0.03009   0.53184   0.52019   0.00000  Uiso   1.00
H750   H     0.19707   0.43954   0.87245   0.00000  Uiso   1.00
H751   H     0.24444   0.62917   0.73016   0.00000  Uiso   1.00
N752   N     0.04760   0.50001   0.75002   0.00000  Uiso   1.00
N753   N     0.28573   0.49998   0.75000   0.00000  Uiso   1.00
O754   O     0.12846   0.56108   0.75001   0.00000  Uiso   1.00
O755   O     0.20490   0.56107   0.75000   0.00000  Uiso   1.00
O756   O     0.10947   0.50000   0.82681   0.00000  Uiso   1.00
O757   O     0.18591   0.49999   0.82681   0.00000  Uiso   1.00
O758   O     0.12843   0.43893   0.74999   0.00000  Uiso   1.00
O759   O     0.20488   0.43892   0.74999   0.00000  Uiso   1.00
O760   O     0.14742   0.50001   0.67319   0.00000  Uiso   1.00
O761   O     0.22387   0.50000   0.67319   0.00000  Uiso   1.00
Zn762  Zn    0.11562   0.50001   0.75000   0.00000  Uiso   1.00
Zn763  Zn    0.21771   0.49999   0.75000   0.00000  Uiso   1.00
C764   C     0.28888   0.45572   0.58543   0.00000  Uiso   1.00
H765   H     0.27181   0.43592   0.62167   0.00000  Uiso   1.00
H766   H     0.31914   0.43777   0.55658   0.00000  Uiso   1.00
H767   H     0.30449   0.48403   0.59712   0.00000  Uiso   1.00
C768   C     0.50001   0.58005   0.75004   0.00000  Uiso   1.00
C769   C     0.47662   0.49108   0.99249   0.00000  Uiso   1.00
C770   C     0.48580   0.47951   0.93809   0.00000  Uiso   1.00
C771   C     0.51350   0.48463   0.51456   0.00000  Uiso   1.00
C772   C     0.55498   0.46093   0.98575   0.00000  Uiso   1.00
C773   C     0.55974   0.44434   0.93514   0.00000  Uiso   1.00
C774   C     0.52557   0.45345   0.91153   0.00000  Uiso   1.00
C775   C     0.51071   0.50208   0.56398   0.00000  Uiso   1.00
C776   C     0.58515   0.46781   0.56059   0.00000  Uiso   1.00
C777   C     0.45539   0.49500   0.91131   0.00000  Uiso   1.00
C778   C     0.54372   0.64539   0.73902   0.00000  Uiso   1.00
C779   C     0.47314   0.49798   0.85219   0.00000  Uiso   1.00
C780   C     0.54373   0.35467   0.73890   0.00000  Uiso   1.00
C781   C     0.50002   0.37582   0.74986   0.00000  Uiso   1.00
C782   C     0.45633   0.35463   0.76086   0.00000  Uiso   1.00
C783   C     0.45633   0.64535   0.76096   0.00000  Uiso   1.00
C784   C     0.50003   0.62420   0.75003   0.00000  Uiso   1.00
C785   C     0.65242   0.47255   0.71846   0.00000  Uiso   1.00
C786   C     0.36706   0.47259   0.71841   0.00000  Uiso   1.00
C787   C     0.34754   0.52735   0.78172   0.00000  Uiso   1.00
C788   C     0.63292   0.52736   0.78167   0.00000  Uiso   1.00
C789   C     0.50000   0.41996   0.74991   0.00000  Uiso   1.00
C790   C     0.52697   0.49890   0.64764   0.00000  Uiso   1.00
C791   C     0.59088   0.45359   0.50824   0.00000  Uiso   1.00
C792   C     0.54357   0.49148   0.58908   0.00000  Uiso   1.00
C793   C     0.41079   0.51294   0.94129   0.00000  Uiso   1.00
C794   C     0.39806   0.51833   0.99700   0.00000  Uiso   1.00
C795   C     0.43100   0.50862   0.52241   0.00000  Uiso   1.00
H796   H     0.57779   0.37093   0.72994   0.00000  Uiso   1.00
H797   H     0.42228   0.37084   0.76972   0.00000  Uiso   1.00
H798   H     0.42227   0.62910   0.76989   0.00000  Uiso   1.00
H799   H     0.64202   0.45052   0.69338   0.00000  Uiso   1.00
H800   H     0.39302   0.45068   0.69312   0.00000  Uiso   1.00
H801   H     0.35790   0.54920   0.80708   0.00000  Uiso   1.00
H802   H     0.60694   0.54924   0.80700   0.00000  Uiso   1.00
H803   H     0.59038   0.42496   0.91327   0.00000  Uiso   1.00
H804   H     0.62244   0.43538   0.98579   0.00000  Uiso   1.00
H805   H     0.48182   0.52319   0.58502   0.00000  Uiso   1.00
H806   H     0.38653   0.52406   0.92141   0.00000  Uiso   1.00
H807   H     0.41941   0.51414   0.56560   0.00000  Uiso   1.00
H808   H     0.36343   0.53184   0.52019   0.00000  Uiso   1.00
H809   H     0.53040   0.43954   0.87245   0.00000  Uiso   1.00
H810   H     0.57778   0.62917   0.73016   0.00000  Uiso   1.00
N811   N     0.38093   0.50001   0.75002   0.00000  Uiso   1.00
N812   N     0.61906   0.49998   0.75000   0.00000  Uiso   1.00
O813   O     0.46179   0.56108   0.75001   0.00000  Uiso   1.00
O814   O     0.53823   0.56107   0.75000   0.00000  Uiso   1.00
O815   O     0.44280   0.50000   0.82681   0.00000  Uiso   1.00
O816   O     0.51924   0.49999   0.82681   0.00000  Uiso   1.00
O817   O     0.46177   0.43893   0.74999   0.00000  Uiso   1.00
O818   O     0.53821   0.43892   0.74999   0.00000  Uiso   1.00
O819   O     0.48076   0.50001   0.67319   0.00000  Uiso   1.00
O820   O     0.55720   0.50000   0.67319   0.00000  Uiso   1.00
Zn821  Zn    0.44896   0.50001   0.75000   0.00000  Uiso   1.00
Zn822  Zn    0.55104   0.49999   0.75000   0.00000  Uiso   1.00
C823   C     0.62221   0.45572   0.58543   0.00000  Uiso   1.00
H824   H     0.60514   0.43592   0.62167   0.00000  Uiso   1.00
H825   H     0.65248   0.43777   0.55658   0.00000  Uiso   1.00
H826   H     0.63783   0.48403   0.59712   0.00000  Uiso   1.00
C827   C     0.83335   0.58005   0.75004   0.00000  Uiso   1.00
C828   C     0.80995   0.49108   0.99249   0.00000  Uiso   1.00
C829   C     0.81914   0.47951   0.93809   0.00000  Uiso   1.00
C830   C     0.84683   0.48463   0.51456   0.00000  Uiso   1.00
C831   C     0.88831   0.46093   0.98575   0.00000  Uiso   1.00
C832   C     0.89307   0.44434   0.93514   0.00000  Uiso   1.00
C833   C     0.85891   0.45345   0.91153   0.00000  Uiso   1.00
C834   C     0.84404   0.50208   0.56398   0.00000  Uiso   1.00
C835   C     0.91849   0.46781   0.56059   0.00000  Uiso   1.00
C836   C     0.78872   0.49500   0.91131   0.00000  Uiso   1.00
C837   C     0.87706   0.64539   0.73902   0.00000  Uiso   1.00
C838   C     0.80647   0.49798   0.85219   0.00000  Uiso   1.00
C839   C     0.87706   0.35467   0.73890   0.00000  Uiso   1.00
C840   C     0.83336   0.37582   0.74986   0.00000  Uiso   1.00
C841   C     0.78967   0.35463   0.76086   0.00000  Uiso   1.00
C842   C     0.78966   0.64535   0.76096   0.00000  Uiso   1.00
C843   C     0.83336   0.62420   0.75003   0.00000  Uiso   1.00
C844   C     0.98575   0.47255   0.71846   0.00000  Uiso   1.00
C845   C     0.70039   0.47259   0.71841   0.00000  Uiso   1.00
C846   C     0.68087   0.52735   0.78172   0.00000  Uiso   1.00
C847   C     0.96625   0.52736   0.78167   0.00000  Uiso   1.00
C848   C     0.83334   0.41996   0.74991   0.00000  Uiso   1.00
C849   C     0.86030   0.49890   0.64764   0.00000  Uiso   1.00
C850   C     0.92422   0.45359   0.50824   0.00000  Uiso   1.00
C851   C     0.87691   0.49148   0.58908   0.00000  Uiso   1.00
C852   C     0.74413   0.51294   0.94129   0.00000  Uiso   1.00
C853   C     0.73140   0.51833   0.99700   0.00000  Uiso   1.00
C854   C     0.76434   0.50862   0.52241   0.00000  Uiso   1.00
H855   H     0.91112   0.37093   0.72994   0.00000  Uiso   1.00
H856   H     0.75561   0.37084   0.76972   0.00000  Uiso   1.00
H857   H     0.75560   0.62910   0.76989   0.00000  Uiso   1.00
H858   H     0.97535   0.45052   0.69338   0.00000  Uiso   1.00
H859   H     0.72635   0.45068   0.69312   0.00000  Uiso   1.00
H860   H     0.69123   0.54920   0.80708   0.00000  Uiso   1.00
H861   H     0.94027   0.54924   0.80700   0.00000  Uiso   1.00
H862   H     0.92371   0.42496   0.91327   0.00000  Uiso   1.00
H863   H     0.95577   0.43538   0.98579   0.00000  Uiso   1.00
H864   H     0.81516   0.52319   0.58502   0.00000  Uiso   1.00
H865   H     0.71986   0.52406   0.92141   0.00000  Uiso   1.00
H866   H     0.75275   0.51414   0.56560   0.00000  Uiso   1.00
H867   H     0.69676   0.53184   0.52019   0.00000  Uiso   1.00
H868   H     0.86373   0.43954   0.87245   0.00000  Uiso   1.00
H869   H     0.91111   0.62917   0.73016   0.00000  Uiso   1.00
N870   N     0.71426   0.50001   0.75002   0.00000  Uiso   1.00
N871   N     0.95239   0.49998   0.75000   0.00000  Uiso   1.00
O872   O     0.79512   0.56108   0.75001   0.00000  Uiso   1.00
O873   O     0.87157   0.56107   0.75000   0.00000  Uiso   1.00
O874   O     0.77613   0.50000   0.82681   0.00000  Uiso   1.00
O875   O     0.85258   0.49999   0.82681   0.00000  Uiso   1.00
O876   O     0.79510   0.43893   0.74999   0.00000  Uiso   1.00
O877   O     0.87154   0.43892   0.74999   0.00000  Uiso   1.00
O878   O     0.81409   0.50001   0.67319   0.00000  Uiso   1.00
O879   O     0.89053   0.50000   0.67319   0.00000  Uiso   1.00
Zn880  Zn    0.78229   0.50001   0.75000   0.00000  Uiso   1.00
Zn881  Zn    0.88438   0.49999   0.75000   0.00000  Uiso   1.00
C882   C     0.95555   0.45572   0.58543   0.00000  Uiso   1.00
H883   H     0.93847   0.43592   0.62167   0.00000  Uiso   1.00
H884   H     0.98581   0.43777   0.55658   0.00000  Uiso   1.00
H885   H     0.97116   0.48403   0.59712   0.00000  Uiso   1.00
C886   C     0.16668   0.91338   0.75004   0.00000  Uiso   1.00
C887   C     0.14328   0.82441   0.99249   0.00000  Uiso   1.00
C888   C     0.15247   0.81284   0.93809   0.00000  Uiso   1.00
C889   C     0.18016   0.81796   0.51456   0.00000  Uiso   1.00
C890   C     0.22164   0.79426   0.98575   0.00000  Uiso   1.00
C891   C     0.22641   0.77767   0.93514   0.00000  Uiso   1.00
C892   C     0.19224   0.78678   0.91153   0.00000  Uiso   1.00
C893   C     0.17738   0.83541   0.56398   0.00000  Uiso   1.00
C894   C     0.25182   0.80114   0.56059   0.00000  Uiso   1.00
C895   C     0.12206   0.82833   0.91131   0.00000  Uiso   1.00
C896   C     0.21039   0.97873   0.73902   0.00000  Uiso   1.00
C897   C     0.13981   0.83132   0.85219   0.00000  Uiso   1.00
C898   C     0.21039   0.68801   0.73890   0.00000  Uiso   1.00
C899   C     0.16669   0.70915   0.74986   0.00000  Uiso   1.00
C900   C     0.12300   0.68796   0.76086   0.00000  Uiso   1.00
C901   C     0.12300   0.97868   0.76096   0.00000  Uiso   1.00
C902   C     0.16669   0.95753   0.75003   0.00000  Uiso   1.00
C903   C     0.31908   0.80588   0.71846   0.00000  Uiso   1.00
C904   C     0.03372   0.80593   0.71841   0.00000  Uiso   1.00
C905   C     0.01421   0.86068   0.78172   0.00000  Uiso   1.00
C906   C     0.29958   0.86069   0.78167   0.00000  Uiso   1.00
C907   C     0.16667   0.75329   0.74991   0.00000  Uiso   1.00
C908   C     0.19363   0.83223   0.64764   0.00000  Uiso   1.00
C909   C     0.25755   0.78693   0.50824   0.00000  Uiso   1.00
C910   C     0.21024   0.82481   0.58908   0.00000  Uiso   1.00
C911   C     0.07746   0.84628   0.94129   0.00000  Uiso   1.00
C912   C     0.06473   0.85166   0.99700   0.00000  Uiso   1.00
C913   C     0.09767   0.84195   0.52241   0.00000  Uiso   1.00
H914   H     0.24445   0.70426   0.72994   0.00000  Uiso   1.00
H915   H     0.08894   0.70418   0.76972   0.00000  Uiso   1.00
H916   H     0.08894   0.96244   0.76989   0.00000  Uiso   1.00
H917   H     0.30869   0.78385   0.69338   0.00000  Uiso   1.00
H918   H     0.05969   0.78402   0.69312   0.00000  Uiso   1.00
H919   H     0.02457   0.88253   0.80708   0.00000  Uiso   1.00
H920   H     0.27360   0.88257   0.80700   0.00000  Uiso   1.00
H921   H     0.25705   0.75829   0.91327   0.00000  Uiso   1.00
H922   H     0.28910   0.76871   0.98579   0.00000  Uiso   1.00
H923   H     0.14849   0.85652   0.58502   0.00000  Uiso   1.00
H924   H     0.05319   0.85739   0.92141   0.00000  Uiso   1.00
H925   H     0.08608   0.84747   0.56560   0.00000  Uiso   1.00
H926   H     0.03009   0.86517   0.52019   0.00000  Uiso   1.00
H927   H     0.19707   0.77287   0.87245   0.00000  Uiso   1.00
H928   H     0.24444   0.96251   0.73016   0.00000  Uiso   1.00
N929   N     0.04760   0.83334   0.75002   0.00000  Uiso   1.00
N930   N     0.28573   0.83331   0.75000   0.00000  Uiso   1.00
O931   O     0.12846   0.89442   0.75001   0.00000  Uiso   1.00
O932   O     0.20490   0.89441   0.75000   0.00000  Uiso   1.00
O933   O     0.10947   0.83333   0.82681   0.00000  Uiso   1.00
O934   O     0.18591   0.83332   0.82681   0.00000  Uiso   1.00
O935   O     0.12843   0.77226   0.74999   0.00000  Uiso   1.00
O936   O     0.20488   0.77225   0.74999   0.00000  Uiso   1.00
O937   O     0.14742   0.83335   0.67319   0.00000  Uiso   1.00
O938   O     0.22387   0.83334   0.67319   0.00000  Uiso   1.00
Zn939  Zn    0.11562   0.83334   0.75000   0.00000  Uiso   1.00
Zn940  Zn    0.21771   0.83333   0.75000   0.00000  Uiso   1.00
C941   C     0.28888   0.78905   0.58543   0.00000  Uiso   1.00
H942   H     0.27181   0.76925   0.62167   0.00000  Uiso   1.00
H943   H     0.31914   0.77111   0.55658   0.00000  Uiso   1.00
H944   H     0.30449   0.81737   0.59712   0.00000  Uiso   1.00
C945   C     0.50001   0.91338   0.75004   0.00000  Uiso   1.00
C946   C     0.47662   0.82441   0.99249   0.00000  Uiso   1.00
C947   C     0.48580   0.81284   0.93809   0.00000  Uiso   1.00
C948   C     0.51350   0.81796   0.51456   0.00000  Uiso   1.00
C949   C     0.55498   0.79426   0.98575   0.00000  Uiso   1.00
C950   C     0.55974   0.77767   0.93514   0.00000  Uiso   1.00
C951   C     0.52557   0.78678   0.91153   0.00000  Uiso   1.00
C952   C     0.51071   0.83541   0.56398   0.00000  Uiso   1.00
C953   C     0.58515   0.80114   0.56059   0.00000  Uiso   1.00
C954   C     0.45539   0.82833   0.91131   0.00000  Uiso   1.00
C955   C     0.54372   0.97873   0.73902   0.00000  Uiso   1.00
C956   C     0.47314   0.83132   0.85219   0.00000  Uiso   1.00
C957   C     0.54373   0.68801   0.73890   0.00000  Uiso   1.00
C958   C     0.50002   0.70915   0.74986   0.00000  Uiso   1.00
C959   C     0.45633   0.68796   0.76086   0.00000  Uiso   1.00
C960   C     0.45633   0.97868   0.76096   0.00000  Uiso   1.00
C961   C     0.50003   0.95753   0.75003   0.00000  Uiso   1.00
C962   C     0.65242   0.80588   0.71846   0.00000  Uiso   1.00
C963   C     0.36706   0.80593   0.71841   0.00000  Uiso   1.00
C964   C     0.34754   0.86068   0.78172   0.00000  Uiso   1.00
C965   C     0.63292   0.86069   0.78167   0.00000  Uiso   1.00
C966   C     0.50000   0.75329   0.74991   0.00000  Uiso   1.00
C967   C     0.52697   0.83223   0.64764   0.00000  Uiso   1.00
C968   C     0.59088   0.78693   0.50824   0.00000  Uiso   1.00
C969   C     0.54357   0.82481   0.58908   0.00000  Uiso   1.00
C970   C     0.41079   0.84628   0.94129   0.00000  Uiso   1.00
C971   C     0.39806   0.85166   0.99700   0.00000  Uiso   1.00
C972   C     0.43100   0.84195   0.52241   0.00000  Uiso   1.00
H973   H     0.57779   0.70426   0.72994   0.00000  Uiso   1.00
H974   H     0.42228   0.70418   0.76972   0.00000  Uiso   1.00
H975   H     0.42227   0.96244   0.76989   0.00000  Uiso   1.00
H976   H     0.64202   0.78385   0.69338   0.00000  Uiso   1.00
H977   H     0.39302   0.78402   0.69312   0.00000  Uiso   1.00
H978   H     0.35790   0.88253   0.80708   0.00000  Uiso   1.00
H979   H     0.60694   0.88257   0.80700   0.00000  Uiso   1.00
H980   H     0.59038   0.75829   0.91327   0.00000  Uiso   1.00
H981   H     0.62244   0.76871   0.98579   0.00000  Uiso   1.00
H982   H     0.48182   0.85652   0.58502   0.00000  Uiso   1.00
H983   H     0.38653   0.85739   0.92141   0.00000  Uiso   1.00
H984   H     0.41941   0.84747   0.56560   0.00000  Uiso   1.00
H985   H     0.36343   0.86517   0.52019   0.00000  Uiso   1.00
H986   H     0.53040   0.77287   0.87245   0.00000  Uiso   1.00
H987   H     0.57778   0.96251   0.73016   0.00000  Uiso   1.00
N988   N     0.38093   0.83334   0.75002   0.00000  Uiso   1.00
N989   N     0.61906   0.83331   0.75000   0.00000  Uiso   1.00
O990   O     0.46179   0.89442   0.75001   0.00000  Uiso   1.00
O991   O     0.53823   0.89441   0.75000   0.00000  Uiso   1.00
O992   O     0.44280   0.83333   0.82681   0.00000  Uiso   1.00
O993   O     0.51924   0.83332   0.82681   0.00000  Uiso   1.00
O994   O     0.46177   0.77226   0.74999   0.00000  Uiso   1.00
O995   O     0.53821   0.77225   0.74999   0.00000  Uiso   1.00
O996   O     0.48076   0.83335   0.67319   0.00000  Uiso   1.00
O997   O     0.55720   0.83334   0.67319   0.00000  Uiso   1.00
Zn998  Zn    0.44896   0.83334   0.75000   0.00000  Uiso   1.00
Zn999  Zn    0.55104   0.83333   0.75000   0.00000  Uiso   1.00
C1000  C     0.62221   0.78905   0.58543   0.00000  Uiso   1.00
H1001  H     0.60514   0.76925   0.62167   0.00000  Uiso   1.00
H1002  H     0.65248   0.77111   0.55658   0.00000  Uiso   1.00
H1003  H     0.63783   0.81737   0.59712   0.00000  Uiso   1.00
C1004  C     0.83335   0.91338   0.75004   0.00000  Uiso   1.00
C1005  C     0.80995   0.82441   0.99249   0.00000  Uiso   1.00
C1006  C     0.81914   0.81284   0.93809   0.00000  Uiso   1.00
C1007  C     0.84683   0.81796   0.51456   0.00000  Uiso   1.00
C1008  C     0.88831   0.79426   0.98575   0.00000  Uiso   1.00
C1009  C     0.89307   0.77767   0.93514   0.00000  Uiso   1.00
C1010  C     0.85891   0.78678   0.91153   0.00000  Uiso   1.00
C1011  C     0.84404   0.83541   0.56398   0.00000  Uiso   1.00
C1012  C     0.91849   0.80114   0.56059   0.00000  Uiso   1.00
C1013  C     0.78872   0.82833   0.91131   0.00000  Uiso   1.00
C1014  C     0.87706   0.97873   0.73902   0.00000  Uiso   1.00
C1015  C     0.80647   0.83132   0.85219   0.00000  Uiso   1.00
C1016  C     0.87706   0.68801   0.73890   0.00000  Uiso   1.00
C1017  C     0.83336   0.70915   0.74986   0.00000  Uiso   1.00
C1018  C     0.78967   0.68796   0.76086   0.00000  Uiso   1.00
C1019  C     0.78966   0.97868   0.76096   0.00000  Uiso   1.00
C1020  C     0.83336   0.95753   0.75003   0.00000  Uiso   1.00
C1021  C     0.98575   0.80588   0.71846   0.00000  Uiso   1.00
C1022  C     0.70039   0.80593   0.71841   0.00000  Uiso   1.00
C1023  C     0.68087   0.86068   0.78172   0.00000  Uiso   1.00
C1024  C     0.96625   0.86069   0.78167   0.00000  Uiso   1.00
C1025  C     0.83334   0.75329   0.74991   0.00000  Uiso   1.00
C1026  C     0.86030   0.83223   0.64764   0.00000  Uiso   1.00
C1027  C     0.92422   0.78693   0.50824   0.00000  Uiso   1.00
C1028  C     0.87691   0.82481   0.58908   0.00000  Uiso   1.00
C1029  C     0.74413   0.84628   0.94129   0.00000  Uiso   1.00
C1030  C     0.73140   0.85166   0.99700   0.00000  Uiso   1.00
C1031  C     0.76434   0.84195   0.52241   0.00000  Uiso   1.00
H1032  H     0.91112   0.70426   0.72994   0.00000  Uiso   1.00
H1033  H     0.75561   0.70418   0.76972   0.00000  Uiso   1.00
H1034  H     0.75560   0.96244   0.76989   0.00000  Uiso   1.00
H1035  H     0.97535   0.78385   0.69338   0.00000  Uiso   1.00
H1036  H     0.72635   0.78402   0.69312   0.00000  Uiso   1.00
H1037  H     0.69123   0.88253   0.80708   0.00000  Uiso   1.00
H1038  H     0.94027   0.88257   0.80700   0.00000  Uiso   1.00
H1039  H     0.92371   0.75829   0.91327   0.00000  Uiso   1.00
H1040  H     0.95577   0.76871   0.98579   0.00000  Uiso   1.00
H1041  H     0.81516   0.85652   0.58502   0.00000  Uiso   1.00
H1042  H     0.71986   0.85739   0.92141   0.00000  Uiso   1.00
H1043  H     0.75275   0.84747   0.56560   0.00000  Uiso   1.00
H1044  H     0.69676   0.86517   0.52019   0.00000  Uiso   1.00
H1045  H     0.86373   0.77287   0.87245   0.00000  Uiso   1.00
H1046  H     0.91111   0.96251   0.73016   0.00000  Uiso   1.00
N1047  N     0.71426   0.83334   0.75002   0.00000  Uiso   1.00
N1048  N     0.95239   0.83331   0.75000   0.00000  Uiso   1.00
O1049  O     0.79512   0.89442   0.75001   0.00000  Uiso   1.00
O1050  O     0.87157   0.89441   0.75000   0.00000  Uiso   1.00
O1051  O     0.77613   0.83333   0.82681   0.00000  Uiso   1.00
O1052  O     0.85258   0.83332   0.82681   0.00000  Uiso   1.00
O1053  O     0.79510   0.77226   0.74999   0.00000  Uiso   1.00
O1054  O     0.87154   0.77225   0.74999   0.00000  Uiso   1.00
O1055  O     0.81409   0.83335   0.67319   0.00000  Uiso   1.00
O1056  O     0.89053   0.83334   0.67319   0.00000  Uiso   1.00
Zn1057 Zn    0.78229   0.83334   0.75000   0.00000  Uiso   1.00
Zn1058 Zn    0.88438   0.83333   0.75000   0.00000  Uiso   1.00
C1059  C     0.95555   0.78905   0.58543   0.00000  Uiso   1.00
H1060  H     0.93847   0.76925   0.62167   0.00000  Uiso   1.00
H1061  H     0.98581   0.77111   0.55658   0.00000  Uiso   1.00
H1062  H     0.97116   0.81737   0.59712   0.00000  Uiso   1.00
loop_
_geom_bond_atom_site_label_1
_geom_bond_atom_site_label_2
_geom_bond_distance
_geom_bond_site_symmetry_2
_ccdc_geom_bond_type
C1     C17     1.419   .     S
C1     O47     1.283   .     A
C1     O46     1.282   .     A
C2     C3      1.408   .     A
C2     C535    1.415   .     S
C2     C559    1.419   .     S
C3     C7      1.413   .     A
C3     C10     1.410   .     A
C4     C8      1.389   .     A
C4     C533    1.415   1_554 S
C4     C536    1.417   1_554 S
C5     C6      1.392   .     A
C5     C535    1.417   .     S
C5     C555    1.401   .     S
C6     H36     1.084   .     S
C6     C7      1.386   .     A
C7     H42     1.082   .     S
C8     C25     1.392   .     A
C8     H38     1.079   .     S
C9     C24     1.401   .     A
C9     C25     1.417   .     A
C9     C56     1.507   .     S
C10    C12     1.459   .     S
C10    C26     1.402   .     A
C11    H43     1.084   .     S
C11    C17     1.397   .     A
C11    C190    1.370   .     S
C12    O48     1.290   .     A
C12    O49     1.292   .     A
C13    C14     1.397   .     A
C13    H29     1.084   .     S
C13    C365    1.370   1_545 S
C14    C22     1.419   .     S
C14    C15     1.397   .     A
C15    H30     1.084   .     S
C15    C370    1.370   1_545 S
C16    H31     1.084   .     S
C16    C17     1.397   .     A
C16    C192    1.370   .     S
C18    H32     1.081   .     S
C18    N45     1.366   .     A
C18    C78     1.416   .     S
C19    N44     1.366   .     A
C19    H33     1.082   .     S
C19    C136    1.416   1_455 S
C20    H34     1.082   .     S
C20    N44     1.366   .     A
C20    C139    1.416   1_455 S
C21    H35     1.082   .     S
C21    N45     1.367   .     A
C21    C79     1.416   .     S
C22    O50     1.283   .     A
C22    O51     1.282   .     A
C23    C25     1.462   .     S
C23    O52     1.295   .     A
C23    O53     1.290   .     A
C24    C536    1.401   1_554 S
C24    H568    1.085   1_554 S
C26    C27     1.389   .     A
C26    H39     1.083   .     S
C27    C559    1.393   .     S
C27    H572    1.083   .     S
C28    H40     1.079   .     S
C28    C558    1.393   1_554 S
C28    C533    1.419   1_554 S
H37    C555    1.085   .     S
H41    C558    1.083   1_554 S
N44    Zn54    2.008   .     S
N45    Zn55    2.008   .     S
O46    Zn54    2.000   .     S
O47    Zn55    2.000   .     S
O48    Zn54    1.961   .     S
O49    Zn55    1.906   .     S
O50    Zn54    2.000   .     S
O51    Zn55    2.000   .     S
O52    Zn54    1.906   .     S
O53    Zn55    1.961   .     S
C56    H59     1.110   .     S
C56    H57     1.110   .     S
C56    H58     1.111   .     S
C60    C76     1.419   .     S
C60    O106    1.283   .     A
C60    O105    1.282   .     A
C61    C62     1.408   .     A
C61    C594    1.415   .     S
C61    C618    1.419   .     S
C62    C66     1.413   .     A
C62    C69     1.410   .     A
C63    C67     1.389   .     A
C63    C592    1.415   1_554 S
C63    C595    1.417   1_554 S
C64    C65     1.392   .     A
C64    C594    1.417   .     S
C64    C614    1.401   .     S
C65    H95     1.084   .     S
C65    C66     1.386   .     A
C66    H101    1.082   .     S
C67    C84     1.392   .     A
C67    H97     1.079   .     S
C68    C83     1.401   .     A
C68    C84     1.417   .     A
C68    C115    1.507   .     S
C69    C71     1.459   .     S
C69    C85     1.402   .     A
C70    H102    1.084   .     S
C70    C76     1.397   .     A
C70    C249    1.370   .     S
C71    O107    1.290   .     A
C71    O108    1.292   .     A
C72    C73     1.397   .     A
C72    H88     1.084   .     S
C72    C424    1.370   1_545 S
C73    C81     1.419   .     S
C73    C74     1.397   .     A
C74    H89     1.084   .     S
C74    C429    1.370   1_545 S
C75    H90     1.084   .     S
C75    C76     1.397   .     A
C75    C251    1.370   .     S
C77    H91     1.081   .     S
C77    N104    1.366   .     A
C77    C137    1.416   .     S
C78    N103    1.366   .     A
C78    H92     1.082   .     S
C79    H93     1.082   .     S
C79    N103    1.366   .     A
C80    H94     1.082   .     S
C80    N104    1.367   .     A
C80    C138    1.416   .     S
C81    O109    1.283   .     A
C81    O110    1.282   .     A
C82    C84     1.462   .     S
C82    O111    1.295   .     A
C82    O112    1.290   .     A
C83    C595    1.401   1_554 S
C83    H627    1.085   1_554 S
C85    C86     1.389   .     A
C85    H98     1.083   .     S
C86    C618    1.393   .     S
C86    H631    1.083   .     S
C87    H99     1.079   .     S
C87    C617    1.393   1_554 S
C87    C592    1.419   1_554 S
H96    C614    1.085   .     S
H100   C617    1.083   1_554 S
N103   Zn113   2.008   .     S
N104   Zn114   2.008   .     S
O105   Zn113   2.000   .     S
O106   Zn114   2.000   .     S
O107   Zn113   1.961   .     S
O108   Zn114   1.906   .     S
O109   Zn113   2.000   .     S
O110   Zn114   2.000   .     S
O111   Zn113   1.906   .     S
O112   Zn114   1.961   .     S
C115   H118    1.110   .     S
C115   H116    1.110   .     S
C115   H117    1.111   .     S
C119   C135    1.419   .     S
C119   O165    1.283   .     A
C119   O164    1.282   .     A
C120   C121    1.408   .     A
C120   C653    1.415   .     S
C120   C677    1.419   .     S
C121   C125    1.413   .     A
C121   C128    1.410   .     A
C122   C126    1.389   .     A
C122   C651    1.415   1_554 S
C122   C654    1.417   1_554 S
C123   C124    1.392   .     A
C123   C653    1.417   .     S
C123   C673    1.401   .     S
C124   H154    1.084   .     S
C124   C125    1.386   .     A
C125   H160    1.082   .     S
C126   C143    1.392   .     A
C126   H156    1.079   .     S
C127   C142    1.401   .     A
C127   C143    1.417   .     A
C127   C174    1.507   .     S
C128   C130    1.459   .     S
C128   C144    1.402   .     A
C129   H161    1.084   .     S
C129   C135    1.397   .     A
C129   C308    1.370   .     S
C130   O166    1.290   .     A
C130   O167    1.292   .     A
C131   C132    1.397   .     A
C131   H147    1.084   .     S
C131   C483    1.370   1_545 S
C132   C140    1.419   .     S
C132   C133    1.397   .     A
C133   H148    1.084   .     S
C133   C488    1.370   1_545 S
C134   H149    1.084   .     S
C134   C135    1.397   .     A
C134   C310    1.370   .     S
C136   H150    1.081   .     S
C136   N163    1.366   .     A
C136   C19     1.416   1_655 S
C137   N162    1.366   .     A
C137   H151    1.082   .     S
C138   H152    1.082   .     S
C138   N162    1.366   .     A
C139   H153    1.082   .     S
C139   N163    1.367   .     A
C139   C20     1.416   1_655 S
C140   O168    1.283   .     A
C140   O169    1.282   .     A
C141   C143    1.462   .     S
C141   O170    1.295   .     A
C141   O171    1.290   .     A
C142   C654    1.401   1_554 S
C142   H686    1.085   1_554 S
C144   C145    1.389   .     A
C144   H157    1.083   .     S
C145   C677    1.393   .     S
C145   H690    1.083   .     S
C146   H158    1.079   .     S
C146   C676    1.393   1_554 S
C146   C651    1.419   1_554 S
H155   C673    1.085   .     S
H159   C676    1.083   1_554 S
N162   Zn172   2.008   .     S
N163   Zn173   2.008   .     S
O164   Zn172   2.000   .     S
O165   Zn173   2.000   .     S
O166   Zn172   1.961   .     S
O167   Zn173   1.906   .     S
O168   Zn172   2.000   .     S
O169   Zn173   2.000   .     S
O170   Zn172   1.906   .     S
O171   Zn173   1.961   .     S
C174   H177    1.110   .     S
C174   H175    1.110   .     S
C174   H176    1.111   .     S
C178   C194    1.419   .     S
C178   O224    1.283   .     A
C178   O223    1.282   .     A
C179   C180    1.408   .     A
C179   C712    1.415   .     S
C179   C736    1.419   .     S
C180   C184    1.413   .     A
C180   C187    1.410   .     A
C181   C185    1.389   .     A
C181   C710    1.415   1_554 S
C181   C713    1.417   1_554 S
C182   C183    1.392   .     A
C182   C712    1.417   .     S
C182   C732    1.401   .     S
C183   H213    1.084   .     S
C183   C184    1.386   .     A
C184   H219    1.082   .     S
C185   C202    1.392   .     A
C185   H215    1.079   .     S
C186   C201    1.401   .     A
C186   C202    1.417   .     A
C186   C233    1.507   .     S
C187   C189    1.459   .     S
C187   C203    1.402   .     A
C188   H220    1.084   .     S
C188   C194    1.397   .     A
C188   C367    1.370   .     S
C189   O225    1.290   .     A
C189   O226    1.292   .     A
C190   C191    1.397   .     A
C190   H206    1.084   .     S
C191   C199    1.419   .     S
C191   C192    1.397   .     A
C192   H207    1.084   .     S
C193   H208    1.084   .     S
C193   C194    1.397   .     A
C193   C369    1.370   .     S
C195   H209    1.081   .     S
C195   N222    1.366   .     A
C195   C255    1.416   .     S
C196   N221    1.366   .     A
C196   H210    1.082   .     S
C196   C313    1.416   1_455 S
C197   H211    1.082   .     S
C197   N221    1.366   .     A
C197   C316    1.416   1_455 S
C198   H212    1.082   .     S
C198   N222    1.367   .     A
C198   C256    1.416   .     S
C199   O227    1.283   .     A
C199   O228    1.282   .     A
C200   C202    1.462   .     S
C200   O229    1.295   .     A
C200   O230    1.290   .     A
C201   C713    1.401   1_554 S
C201   H745    1.085   1_554 S
C203   C204    1.389   .     A
C203   H216    1.083   .     S
C204   C736    1.393   .     S
C204   H749    1.083   .     S
C205   H217    1.079   .     S
C205   C735    1.393   1_554 S
C205   C710    1.419   1_554 S
H214   C732    1.085   .     S
H218   C735    1.083   1_554 S
N221   Zn231   2.008   .     S
N222   Zn232   2.008   .     S
O223   Zn231   2.000   .     S
O224   Zn232   2.000   .     S
O225   Zn231   1.961   .     S
O226   Zn232   1.906   .     S
O227   Zn231   2.000   .     S
O228   Zn232   2.000   .     S
O229   Zn231   1.906   .     S
O230   Zn232   1.961   .     S
C233   H236    1.110   .     S
C233   H234    1.110   .     S
C233   H235    1.111   .     S
C237   C253    1.419   .     S
C237   O283    1.283   .     A
C237   O282    1.282   .     A
C238   C239    1.408   .     A
C238   C771    1.415   .     S
C238   C795    1.419   .     S
C239   C243    1.413   .     A
C239   C246    1.410   .     A
C240   C244    1.389   .     A
C240   C769    1.415   1_554 S
C240   C772    1.417   1_554 S
C241   C242    1.392   .     A
C241   C771    1.417   .     S
C241   C791    1.401   .     S
C242   H272    1.084   .     S
C242   C243    1.386   .     A
C243   H278    1.082   .     S
C244   C261    1.392   .     A
C244   H274    1.079   .     S
C245   C260    1.401   .     A
C245   C261    1.417   .     A
C245   C292    1.507   .     S
C246   C248    1.459   .     S
C246   C262    1.402   .     A
C247   H279    1.084   .     S
C247   C253    1.397   .     A
C247   C426    1.370   .     S
C248   O284    1.290   .     A
C248   O285    1.292   .     A
C249   C250    1.397   .     A
C249   H265    1.084   .     S
C250   C258    1.419   .     S
C250   C251    1.397   .     A
C251   H266    1.084   .     S
C252   H267    1.084   .     S
C252   C253    1.397   .     A
C252   C428    1.370   .     S
C254   H268    1.081   .     S
C254   N281    1.366   .     A
C254   C314    1.416   .     S
C255   N280    1.366   .     A
C255   H269    1.082   .     S
C256   H270    1.082   .     S
C256   N280    1.366   .     A
C257   H271    1.082   .     S
C257   N281    1.367   .     A
C257   C315    1.416   .     S
C258   O286    1.283   .     A
C258   O287    1.282   .     A
C259   C261    1.462   .     S
C259   O288    1.295   .     A
C259   O289    1.290   .     A
C260   C772    1.401   1_554 S
C260   H804    1.085   1_554 S
C262   C263    1.389   .     A
C262   H275    1.083   .     S
C263   C795    1.393   .     S
C263   H808    1.083   .     S
C264   H276    1.079   .     S
C264   C794    1.393   1_554 S
C264   C769    1.419   1_554 S
H273   C791    1.085   .     S
H277   C794    1.083   1_554 S
N280   Zn290   2.008   .     S
N281   Zn291   2.008   .     S
O282   Zn290   2.000   .     S
O283   Zn291   2.000   .     S
O284   Zn290   1.961   .     S
O285   Zn291   1.906   .     S
O286   Zn290   2.000   .     S
O287   Zn291   2.000   .     S
O288   Zn290   1.906   .     S
O289   Zn291   1.961   .     S
C292   H295    1.110   .     S
C292   H293    1.110   .     S
C292   H294    1.111   .     S
C296   C312    1.419   .     S
C296   O342    1.283   .     A
C296   O341    1.282   .     A
C297   C298    1.408   .     A
C297   C830    1.415   .     S
C297   C854    1.419   .     S
C298   C302    1.413   .     A
C298   C305    1.410   .     A
C299   C303    1.389   .     A
C299   C828    1.415   1_554 S
C299   C831    1.417   1_554 S
C300   C301    1.392   .     A
C300   C830    1.417   .     S
C300   C850    1.401   .     S
C301   H331    1.084   .     S
C301   C302    1.386   .     A
C302   H337    1.082   .     S
C303   C320    1.392   .     A
C303   H333    1.079   .     S
C304   C319    1.401   .     A
C304   C320    1.417   .     A
C304   C351    1.507   .     S
C305   C307    1.459   .     S
C305   C321    1.402   .     A
C306   H338    1.084   .     S
C306   C312    1.397   .     A
C306   C485    1.370   .     S
C307   O343    1.290   .     A
C307   O344    1.292   .     A
C308   C309    1.397   .     A
C308   H324    1.084   .     S
C309   C317    1.419   .     S
C309   C310    1.397   .     A
C310   H325    1.084   .     S
C311   H326    1.084   .     S
C311   C312    1.397   .     A
C311   C487    1.370   .     S
C313   H327    1.081   .     S
C313   N340    1.366   .     A
C313   C196    1.416   1_655 S
C314   N339    1.366   .     A
C314   H328    1.082   .     S
C315   H329    1.082   .     S
C315   N339    1.366   .     A
C316   H330    1.082   .     S
C316   N340    1.367   .     A
C316   C197    1.416   1_655 S
C317   O345    1.283   .     A
C317   O346    1.282   .     A
C318   C320    1.462   .     S
C318   O347    1.295   .     A
C318   O348    1.290   .     A
C319   C831    1.401   1_554 S
C319   H863    1.085   1_554 S
C321   C322    1.389   .     A
C321   H334    1.083   .     S
C322   C854    1.393   .     S
C322   H867    1.083   .     S
C323   H335    1.079   .     S
C323   C853    1.393   1_554 S
C323   C828    1.419   1_554 S
H332   C850    1.085   .     S
H336   C853    1.083   1_554 S
N339   Zn349   2.008   .     S
N340   Zn350   2.008   .     S
O341   Zn349   2.000   .     S
O342   Zn350   2.000   .     S
O343   Zn349   1.961   .     S
O344   Zn350   1.906   .     S
O345   Zn349   2.000   .     S
O346   Zn350   2.000   .     S
O347   Zn349   1.906   .     S
O348   Zn350   1.961   .     S
C351   H354    1.110   .     S
C351   H352    1.110   .     S
C351   H353    1.111   .     S
C355   C371    1.419   .     S
C355   O401    1.283   .     A
C355   O400    1.282   .     A
C356   C357    1.408   .     A
C356   C889    1.415   .     S
C356   C913    1.419   .     S
C357   C361    1.413   .     A
C357   C364    1.410   .     A
C358   C362    1.389   .     A
C358   C887    1.415   1_554 S
C358   C890    1.417   1_554 S
C359   C360    1.392   .     A
C359   C889    1.417   .     S
C359   C909    1.401   .     S
C360   H390    1.084   .     S
C360   C361    1.386   .     A
C361   H396    1.082   .     S
C362   C379    1.392   .     A
C362   H392    1.079   .     S
C363   C378    1.401   .     A
C363   C379    1.417   .     A
C363   C410    1.507   .     S
C364   C366    1.459   .     S
C364   C380    1.402   .     A
C365   H397    1.084   .     S
C365   C371    1.397   .     A
C365   C13     1.370   1_565 S
C366   O402    1.290   .     A
C366   O403    1.292   .     A
C367   C368    1.397   .     A
C367   H383    1.084   .     S
C368   C376    1.419   .     S
C368   C369    1.397   .     A
C369   H384    1.084   .     S
C370   H385    1.084   .     S
C370   C371    1.397   .     A
C370   C15     1.370   1_565 S
C372   H386    1.081   .     S
C372   N399    1.366   .     A
C372   C432    1.416   .     S
C373   N398    1.366   .     A
C373   H387    1.082   .     S
C373   C490    1.416   1_455 S
C374   H388    1.082   .     S
C374   N398    1.366   .     A
C374   C493    1.416   1_455 S
C375   H389    1.082   .     S
C375   N399    1.367   .     A
C375   C433    1.416   .     S
C376   O404    1.283   .     A
C376   O405    1.282   .     A
C377   C379    1.462   .     S
C377   O406    1.295   .     A
C377   O407    1.290   .     A
C378   C890    1.401   1_554 S
C378   H922    1.085   1_554 S
C380   C381    1.389   .     A
C380   H393    1.083   .     S
C381   C913    1.393   .     S
C381   H926    1.083   .     S
C382   H394    1.079   .     S
C382   C912    1.393   1_554 S
C382   C887    1.419   1_554 S
H391   C909    1.085   .     S
H395   C912    1.083   1_554 S
N398   Zn408   2.008   .     S
N399   Zn409   2.008   .     S
O400   Zn408   2.000   .     S
O401   Zn409   2.000   .     S
O402   Zn408   1.961   .     S
O403   Zn409   1.906   .     S
O404   Zn408   2.000   .     S
O405   Zn409   2.000   .     S
O406   Zn408   1.906   .     S
O407   Zn409   1.961   .     S
C410   H413    1.110   .     S
C410   H411    1.110   .     S
C410   H412    1.111   .     S
C414   C430    1.419   .     S
C414   O460    1.283   .     A
C414   O459    1.282   .     A
C415   C416    1.408   .     A
C415   C948    1.415   .     S
C415   C972    1.419   .     S
C416   C420    1.413   .     A
C416   C423    1.410   .     A
C417   C421    1.389   .     A
C417   C946    1.415   1_554 S
C417   C949    1.417   1_554 S
C418   C419    1.392   .     A
C418   C948    1.417   .     S
C418   C968    1.401   .     S
C419   H449    1.084   .     S
C419   C420    1.386   .     A
C420   H455    1.082   .     S
C421   C438    1.392   .     A
C421   H451    1.079   .     S
C422   C437    1.401   .     A
C422   C438    1.417   .     A
C422   C469    1.507   .     S
C423   C425    1.459   .     S
C423   C439    1.402   .     A
C424   H456    1.084   .     S
C424   C430    1.397   .     A
C424   C72     1.370   1_565 S
C425   O461    1.290   .     A
C425   O462    1.292   .     A
C426   C427    1.397   .     A
C426   H442    1.084   .     S
C427   C435    1.419   .     S
C427   C428    1.397   .     A
C428   H443    1.084   .     S
C429   H444    1.084   .     S
C429   C430    1.397   .     A
C429   C74     1.370   1_565 S
C431   H445    1.081   .     S
C431   N458    1.366   .     A
C431   C491    1.416   .     S
C432   N457    1.366   .     A
C432   H446    1.082   .     S
C433   H447    1.082   .     S
C433   N457    1.366   .     A
C434   H448    1.082   .     S
C434   N458    1.367   .     A
C434   C492    1.416   .     S
C435   O463    1.283   .     A
C435   O464    1.282   .     A
C436   C438    1.462   .     S
C436   O465    1.295   .     A
C436   O466    1.290   .     A
C437   C949    1.401   1_554 S
C437   H981    1.085   1_554 S
C439   C440    1.389   .     A
C439   H452    1.083   .     S
C440   C972    1.393   .     S
C440   H985    1.083   .     S
C441   H453    1.079   .     S
C441   C971    1.393   1_554 S
C441   C946    1.419   1_554 S
H450   C968    1.085   .     S
H454   C971    1.083   1_554 S
N457   Zn467   2.008   .     S
N458   Zn468   2.008   .     S
O459   Zn467   2.000   .     S
O460   Zn468   2.000   .     S
O461   Zn467   1.961   .     S
O462   Zn468   1.906   .     S
O463   Zn467   2.000   .     S
O464   Zn468   2.000   .     S
O465   Zn467   1.906   .     S
O466   Zn468   1.961   .     S
C469   H472    1.110   .     S
C469   H470    1.110   .     S
C469   H471    1.111   .     S
C473   C489    1.419   .     S
C473   O519    1.283   .     A
C473   O518    1.282   .     A
C474   C475    1.408   .     A
C474   C1007   1.415   .     S
C474   C1031   1.419   .     S
C475   C479    1.413   .     A
C475   C482    1.410   .     A
C476   C480    1.389   .     A
C476   C1005   1.415   1_554 S
C476   C1008   1.417   1_554 S
C477   C478    1.392   .     A
C477   C1007   1.417   .     S
C477   C1027   1.401   .     S
C478   H508    1.084   .     S
C478   C479    1.386   .     A
C479   H514    1.082   .     S
C480   C497    1.392   .     A
C480   H510    1.079   .     S
C481   C496    1.401   .     A
C481   C497    1.417   .     A
C481   C528    1.507   .     S
C482   C484    1.459   .     S
C482   C498    1.402   .     A
C483   H515    1.084   .     S
C483   C489    1.397   .     A
C483   C131    1.370   1_565 S
C484   O520    1.290   .     A
C484   O521    1.292   .     A
C485   C486    1.397   .     A
C485   H501    1.084   .     S
C486   C494    1.419   .     S
C486   C487    1.397   .     A
C487   H502    1.084   .     S
C488   H503    1.084   .     S
C488   C489    1.397   .     A
C488   C133    1.370   1_565 S
C490   H504    1.081   .     S
C490   N517    1.366   .     A
C490   C373    1.416   1_655 S
C491   N516    1.366   .     A
C491   H505    1.082   .     S
C492   H506    1.082   .     S
C492   N516    1.366   .     A
C493   H507    1.082   .     S
C493   N517    1.367   .     A
C493   C374    1.416   1_655 S
C494   O522    1.283   .     A
C494   O523    1.282   .     A
C495   C497    1.462   .     S
C495   O524    1.295   .     A
C495   O525    1.290   .     A
C496   C1008   1.401   1_554 S
C496   H1040   1.085   1_554 S
C498   C499    1.389   .     A
C498   H511    1.083   .     S
C499   C1031   1.393   .     S
C499   H1044   1.083   .     S
C500   H512    1.079   .     S
C500   C1030   1.393   1_554 S
C500   C1005   1.419   1_554 S
H509   C1027   1.085   .     S
H513   C1030   1.083   1_554 S
N516   Zn526   2.008   .     S
N517   Zn527   2.008   .     S
O518   Zn526   2.000   .     S
O519   Zn527   2.000   .     S
O520   Zn526   1.961   .     S
O521   Zn527   1.906   .     S
O522   Zn526   2.000   .     S
O523   Zn527   2.000   .     S
O524   Zn526   1.906   .     S
O525   Zn527   1.961   .     S
C528   H531    1.110   .     S
C528   H529    1.110   .     S
C528   H530    1.111   .     S
C532   C548    1.419   .     S
C532   O578    1.283   .     A
C532   O577    1.282   .     A
C533   C534    1.408   .     A
C533   C4      1.415   1_556 S
C533   C28     1.419   1_556 S
C534   C538    1.413   .     A
C534   C541    1.410   .     A
C535   C539    1.389   .     A
C536   C537    1.392   .     A
C536   C4      1.417   1_556 S
C536   C24     1.401   1_556 S
C537   H567    1.084   .     S
C537   C538    1.386   .     A
C538   H573    1.082   .     S
C539   C556    1.392   .     A
C539   H569    1.079   .     S
C540   C555    1.401   .     A
C540   C556    1.417   .     A
C540   C587    1.507   .     S
C541   C543    1.459   .     S
C541   C557    1.402   .     A
C542   H574    1.084   .     S
C542   C548    1.397   .     A
C542   C721    1.370   .     S
C543   O579    1.290   .     A
C543   O580    1.292   .     A
C544   C545    1.397   .     A
C544   H560    1.084   .     S
C544   C896    1.370   1_545 S
C545   C553    1.419   .     S
C545   C546    1.397   .     A
C546   H561    1.084   .     S
C546   C901    1.370   1_545 S
C547   H562    1.084   .     S
C547   C548    1.397   .     A
C547   C723    1.370   .     S
C549   H563    1.081   .     S
C549   N576    1.366   .     A
C549   C609    1.416   .     S
C550   N575    1.366   .     A
C550   H564    1.082   .     S
C550   C667    1.416   1_455 S
C551   H565    1.082   .     S
C551   N575    1.366   .     A
C551   C670    1.416   1_455 S
C552   H566    1.082   .     S
C552   N576    1.367   .     A
C552   C610    1.416   .     S
C553   O581    1.283   .     A
C553   O582    1.282   .     A
C554   C556    1.462   .     S
C554   O583    1.295   .     A
C554   O584    1.290   .     A
C557   C558    1.389   .     A
C557   H570    1.083   .     S
C558   C28     1.393   1_556 S
C558   H41     1.083   1_556 S
C559   H571    1.079   .     S
H568   C24     1.085   1_556 S
N575   Zn585   2.008   .     S
N576   Zn586   2.008   .     S
O577   Zn585   2.000   .     S
O578   Zn586   2.000   .     S
O579   Zn585   1.961   .     S
O580   Zn586   1.906   .     S
O581   Zn585   2.000   .     S
O582   Zn586   2.000   .     S
O583   Zn585   1.906   .     S
O584   Zn586   1.961   .     S
C587   H590    1.110   .     S
C587   H588    1.110   .     S
C587   H589    1.111   .     S
C591   C607    1.419   .     S
C591   O637    1.283   .     A
C591   O636    1.282   .     A
C592   C593    1.408   .     A
C592   C63     1.415   1_556 S
C592   C87     1.419   1_556 S
C593   C597    1.413   .     A
C593   C600    1.410   .     A
C594   C598    1.389   .     A
C595   C596    1.392   .     A
C595   C63     1.417   1_556 S
C595   C83     1.401   1_556 S
C596   H626    1.084   .     S
C596   C597    1.386   .     A
C597   H632    1.082   .     S
C598   C615    1.392   .     A
C598   H628    1.079   .     S
C599   C614    1.401   .     A
C599   C615    1.417   .     A
C599   C646    1.507   .     S
C600   C602    1.459   .     S
C600   C616    1.402   .     A
C601   H633    1.084   .     S
C601   C607    1.397   .     A
C601   C780    1.370   .     S
C602   O638    1.290   .     A
C602   O639    1.292   .     A
C603   C604    1.397   .     A
C603   H619    1.084   .     S
C603   C955    1.370   1_545 S
C604   C612    1.419   .     S
C604   C605    1.397   .     A
C605   H620    1.084   .     S
C605   C960    1.370   1_545 S
C606   H621    1.084   .     S
C606   C607    1.397   .     A
C606   C782    1.370   .     S
C608   H622    1.081   .     S
C608   N635    1.366   .     A
C608   C668    1.416   .     S
C609   N634    1.366   .     A
C609   H623    1.082   .     S
C610   H624    1.082   .     S
C610   N634    1.366   .     A
C611   H625    1.082   .     S
C611   N635    1.367   .     A
C611   C669    1.416   .     S
C612   O640    1.283   .     A
C612   O641    1.282   .     A
C613   C615    1.462   .     S
C613   O642    1.295   .     A
C613   O643    1.290   .     A
C616   C617    1.389   .     A
C616   H629    1.083   .     S
C617   C87     1.393   1_556 S
C617   H100    1.083   1_556 S
C618   H630    1.079   .     S
H627   C83     1.085   1_556 S
N634   Zn644   2.008   .     S
N635   Zn645   2.008   .     S
O636   Zn644   2.000   .     S
O637   Zn645   2.000   .     S
O638   Zn644   1.961   .     S
O639   Zn645   1.906   .     S
O640   Zn644   2.000   .     S
O641   Zn645   2.000   .     S
O642   Zn644   1.906   .     S
O643   Zn645   1.961   .     S
C646   H649    1.110   .     S
C646   H647    1.110   .     S
C646   H648    1.111   .     S
C650   C666    1.419   .     S
C650   O696    1.283   .     A
C650   O695    1.282   .     A
C651   C652    1.408   .     A
C651   C122    1.415   1_556 S
C651   C146    1.419   1_556 S
C652   C656    1.413   .     A
C652   C659    1.410   .     A
C653   C657    1.389   .     A
C654   C655    1.392   .     A
C654   C122    1.417   1_556 S
C654   C142    1.401   1_556 S
C655   H685    1.084   .     S
C655   C656    1.386   .     A
C656   H691    1.082   .     S
C657   C674    1.392   .     A
C657   H687    1.079   .     S
C658   C673    1.401   .     A
C658   C674    1.417   .     A
C658   C705    1.507   .     S
C659   C661    1.459   .     S
C659   C675    1.402   .     A
C660   H692    1.084   .     S
C660   C666    1.397   .     A
C660   C839    1.370   .     S
C661   O697    1.290   .     A
C661   O698    1.292   .     A
C662   C663    1.397   .     A
C662   H678    1.084   .     S
C662   C1014   1.370   1_545 S
C663   C671    1.419   .     S
C663   C664    1.397   .     A
C664   H679    1.084   .     S
C664   C1019   1.370   1_545 S
C665   H680    1.084   .     S
C665   C666    1.397   .     A
C665   C841    1.370   .     S
C667   H681    1.081   .     S
C667   N694    1.366   .     A
C667   C550    1.416   1_655 S
C668   N693    1.366   .     A
C668   H682    1.082   .     S
C669   H683    1.082   .     S
C669   N693    1.366   .     A
C670   H684    1.082   .     S
C670   N694    1.367   .     A
C670   C551    1.416   1_655 S
C671   O699    1.283   .     A
C671   O700    1.282   .     A
C672   C674    1.462   .     S
C672   O701    1.295   .     A
C672   O702    1.290   .     A
C675   C676    1.389   .     A
C675   H688    1.083   .     S
C676   C146    1.393   1_556 S
C676   H159    1.083   1_556 S
C677   H689    1.079   .     S
H686   C142    1.085   1_556 S
N693   Zn703   2.008   .     S
N694   Zn704   2.008   .     S
O695   Zn703   2.000   .     S
O696   Zn704   2.000   .     S
O697   Zn703   1.961   .     S
O698   Zn704   1.906   .     S
O699   Zn703   2.000   .     S
O700   Zn704   2.000   .     S
O701   Zn703   1.906   .     S
O702   Zn704   1.961   .     S
C705   H708    1.110   .     S
C705   H706    1.110   .     S
C705   H707    1.111   .     S
C709   C725    1.419   .     S
C709   O755    1.283   .     A
C709   O754    1.282   .     A
C710   C711    1.408   .     A
C710   C181    1.415   1_556 S
C710   C205    1.419   1_556 S
C711   C715    1.413   .     A
C711   C718    1.410   .     A
C712   C716    1.389   .     A
C713   C714    1.392   .     A
C713   C181    1.417   1_556 S
C713   C201    1.401   1_556 S
C714   H744    1.084   .     S
C714   C715    1.386   .     A
C715   H750    1.082   .     S
C716   C733    1.392   .     A
C716   H746    1.079   .     S
C717   C732    1.401   .     A
C717   C733    1.417   .     A
C717   C764    1.507   .     S
C718   C720    1.459   .     S
C718   C734    1.402   .     A
C719   H751    1.084   .     S
C719   C725    1.397   .     A
C719   C898    1.370   .     S
C720   O756    1.290   .     A
C720   O757    1.292   .     A
C721   C722    1.397   .     A
C721   H737    1.084   .     S
C722   C730    1.419   .     S
C722   C723    1.397   .     A
C723   H738    1.084   .     S
C724   H739    1.084   .     S
C724   C725    1.397   .     A
C724   C900    1.370   .     S
C726   H740    1.081   .     S
C726   N753    1.366   .     A
C726   C786    1.416   .     S
C727   N752    1.366   .     A
C727   H741    1.082   .     S
C727   C844    1.416   1_455 S
C728   H742    1.082   .     S
C728   N752    1.366   .     A
C728   C847    1.416   1_455 S
C729   H743    1.082   .     S
C729   N753    1.367   .     A
C729   C787    1.416   .     S
C730   O758    1.283   .     A
C730   O759    1.282   .     A
C731   C733    1.462   .     S
C731   O760    1.295   .     A
C731   O761    1.290   .     A
C734   C735    1.389   .     A
C734   H747    1.083   .     S
C735   C205    1.393   1_556 S
C735   H218    1.083   1_556 S
C736   H748    1.079   .     S
H745   C201    1.085   1_556 S
N752   Zn762   2.008   .     S
N753   Zn763   2.008   .     S
O754   Zn762   2.000   .     S
O755   Zn763   2.000   .     S
O756   Zn762   1.961   .     S
O757   Zn763   1.906   .     S
O758   Zn762   2.000   .     S
O759   Zn763   2.000   .     S
O760   Zn762   1.906   .     S
O761   Zn763   1.961   .     S
C764   H767    1.110   .     S
C764   H765    1.110   .     S
C764   H766    1.111   .     S
C768   C784    1.419   .     S
C768   O814    1.283   .     A
C768   O813    1.282   .     A
C769   C770    1.408   .     A
C769   C240    1.415   1_556 S
C769   C264    1.419   1_556 S
C770   C774    1.413   .     A
C770   C777    1.410   .     A
C771   C775    1.389   .     A
C772   C773    1.392   .     A
C772   C240    1.417   1_556 S
C772   C260    1.401   1_556 S
C773   H803    1.084   .     S
C773   C774    1.386   .     A
C774   H809    1.082   .     S
C775   C792    1.392   .     A
C775   H805    1.079   .     S
C776   C791    1.401   .     A
C776   C792    1.417   .     A
C776   C823    1.507   .     S
C777   C779    1.459   .     S
C777   C793    1.402   .     A
C778   H810    1.084   .     S
C778   C784    1.397   .     A
C778   C957    1.370   .     S
C779   O815    1.290   .     A
C779   O816    1.292   .     A
C780   C781    1.397   .     A
C780   H796    1.084   .     S
C781   C789    1.419   .     S
C781   C782    1.397   .     A
C782   H797    1.084   .     S
C783   H798    1.084   .     S
C783   C784    1.397   .     A
C783   C959    1.370   .     S
C785   H799    1.081   .     S
C785   N812    1.366   .     A
C785   C845    1.416   .     S
C786   N811    1.366   .     A
C786   H800    1.082   .     S
C787   H801    1.082   .     S
C787   N811    1.366   .     A
C788   H802    1.082   .     S
C788   N812    1.367   .     A
C788   C846    1.416   .     S
C789   O817    1.283   .     A
C789   O818    1.282   .     A
C790   C792    1.462   .     S
C790   O819    1.295   .     A
C790   O820    1.290   .     A
C793   C794    1.389   .     A
C793   H806    1.083   .     S
C794   C264    1.393   1_556 S
C794   H277    1.083   1_556 S
C795   H807    1.079   .     S
H804   C260    1.085   1_556 S
N811   Zn821   2.008   .     S
N812   Zn822   2.008   .     S
O813   Zn821   2.000   .     S
O814   Zn822   2.000   .     S
O815   Zn821   1.961   .     S
O816   Zn822   1.906   .     S
O817   Zn821   2.000   .     S
O818   Zn822   2.000   .     S
O819   Zn821   1.906   .     S
O820   Zn822   1.961   .     S
C823   H826    1.110   .     S
C823   H824    1.110   .     S
C823   H825    1.111   .     S
C827   C843    1.419   .     S
C827   O873    1.283   .     A
C827   O872    1.282   .     A
C828   C829    1.408   .     A
C828   C299    1.415   1_556 S
C828   C323    1.419   1_556 S
C829   C833    1.413   .     A
C829   C836    1.410   .     A
C830   C834    1.389   .     A
C831   C832    1.392   .     A
C831   C299    1.417   1_556 S
C831   C319    1.401   1_556 S
C832   H862    1.084   .     S
C832   C833    1.386   .     A
C833   H868    1.082   .     S
C834   C851    1.392   .     A
C834   H864    1.079   .     S
C835   C850    1.401   .     A
C835   C851    1.417   .     A
C835   C882    1.507   .     S
C836   C838    1.459   .     S
C836   C852    1.402   .     A
C837   H869    1.084   .     S
C837   C843    1.397   .     A
C837   C1016   1.370   .     S
C838   O874    1.290   .     A
C838   O875    1.292   .     A
C839   C840    1.397   .     A
C839   H855    1.084   .     S
C840   C848    1.419   .     S
C840   C841    1.397   .     A
C841   H856    1.084   .     S
C842   H857    1.084   .     S
C842   C843    1.397   .     A
C842   C1018   1.370   .     S
C844   H858    1.081   .     S
C844   N871    1.366   .     A
C844   C727    1.416   1_655 S
C845   N870    1.366   .     A
C845   H859    1.082   .     S
C846   H860    1.082   .     S
C846   N870    1.366   .     A
C847   H861    1.082   .     S
C847   N871    1.367   .     A
C847   C728    1.416   1_655 S
C848   O876    1.283   .     A
C848   O877    1.282   .     A
C849   C851    1.462   .     S
C849   O878    1.295   .     A
C849   O879    1.290   .     A
C852   C853    1.389   .     A
C852   H865    1.083   .     S
C853   C323    1.393   1_556 S
C853   H336    1.083   1_556 S
C854   H866    1.079   .     S
H863   C319    1.085   1_556 S
N870   Zn880   2.008   .     S
N871   Zn881   2.008   .     S
O872   Zn880   2.000   .     S
O873   Zn881   2.000   .     S
O874   Zn880   1.961   .     S
O875   Zn881   1.906   .     S
O876   Zn880   2.000   .     S
O877   Zn881   2.000   .     S
O878   Zn880   1.906   .     S
O879   Zn881   1.961   .     S
C882   H885    1.110   .     S
C882   H883    1.110   .     S
C882   H884    1.111   .     S
C886   C902    1.419   .     S
C886   O932    1.283   .     A
C886   O931    1.282   .     A
C887   C888    1.408   .     A
C887   C358    1.415   1_556 S
C887   C382    1.419   1_556 S
C888   C892    1.413   .     A
C888   C895    1.410   .     A
C889   C893    1.389   .     A
C890   C891    1.392   .     A
C890   C358    1.417   1_556 S
C890   C378    1.401   1_556 S
C891   H921    1.084   .     S
C891   C892    1.386   .     A
C892   H927    1.082   .     S
C893   C910    1.392   .     A
C893   H923    1.079   .     S
C894   C909    1.401   .     A
C894   C910    1.417   .     A
C894   C941    1.507   .     S
C895   C897    1.459   .     S
C895   C911    1.402   .     A
C896   H928    1.084   .     S
C896   C902    1.397   .     A
C896   C544    1.370   1_565 S
C897   O933    1.290   .     A
C897   O934    1.292   .     A
C898   C899    1.397   .     A
C898   H914    1.084   .     S
C899   C907    1.419   .     S
C899   C900    1.397   .     A
C900   H915    1.084   .     S
C901   H916    1.084   .     S
C901   C902    1.397   .     A
C901   C546    1.370   1_565 S
C903   H917    1.081   .     S
C903   N930    1.366   .     A
C903   C963    1.416   .     S
C904   N929    1.366   .     A
C904   H918    1.082   .     S
C904   C1021   1.416   1_455 S
C905   H919    1.082   .     S
C905   N929    1.366   .     A
C905   C1024   1.416   1_455 S
C906   H920    1.082   .     S
C906   N930    1.367   .     A
C906   C964    1.416   .     S
C907   O935    1.283   .     A
C907   O936    1.282   .     A
C908   C910    1.462   .     S
C908   O937    1.295   .     A
C908   O938    1.290   .     A
C911   C912    1.389   .     A
C911   H924    1.083   .     S
C912   C382    1.393   1_556 S
C912   H395    1.083   1_556 S
C913   H925    1.079   .     S
H922   C378    1.085   1_556 S
N929   Zn939   2.008   .     S
N930   Zn940   2.008   .     S
O931   Zn939   2.000   .     S
O932   Zn940   2.000   .     S
O933   Zn939   1.961   .     S
O934   Zn940   1.906   .     S
O935   Zn939   2.000   .     S
O936   Zn940   2.000   .     S
O937   Zn939   1.906   .     S
O938   Zn940   1.961   .     S
C941   H944    1.110   .     S
C941   H942    1.110   .     S
C941   H943    1.111   .     S
C945   C961    1.419   .     S
C945   O991    1.283   .     A
C945   O990    1.282   .     A
C946   C947    1.408   .     A
C946   C417    1.415   1_556 S
C946   C441    1.419   1_556 S
C947   C951    1.413   .     A
C947   C954    1.410   .     A
C948   C952    1.389   .     A
C949   C950    1.392   .     A
C949   C417    1.417   1_556 S
C949   C437    1.401   1_556 S
C950   H980    1.084   .     S
C950   C951    1.386   .     A
C951   H986    1.082   .     S
C952   C969    1.392   .     A
C952   H982    1.079   .     S
C953   C968    1.401   .     A
C953   C969    1.417   .     A
C953   C1000   1.507   .     S
C954   C956    1.459   .     S
C954   C970    1.402   .     A
C955   H987    1.084   .     S
C955   C961    1.397   .     A
C955   C603    1.370   1_565 S
C956   O992    1.290   .     A
C956   O993    1.292   .     A
C957   C958    1.397   .     A
C957   H973    1.084   .     S
C958   C966    1.419   .     S
C958   C959    1.397   .     A
C959   H974    1.084   .     S
C960   H975    1.084   .     S
C960   C961    1.397   .     A
C960   C605    1.370   1_565 S
C962   H976    1.081   .     S
C962   N989    1.366   .     A
C962   C1022   1.416   .     S
C963   N988    1.366   .     A
C963   H977    1.082   .     S
C964   H978    1.082   .     S
C964   N988    1.366   .     A
C965   H979    1.082   .     S
C965   N989    1.367   .     A
C965   C1023   1.416   .     S
C966   O994    1.283   .     A
C966   O995    1.282   .     A
C967   C969    1.462   .     S
C967   O996    1.295   .     A
C967   O997    1.290   .     A
C970   C971    1.389   .     A
C970   H983    1.083   .     S
C971   C441    1.393   1_556 S
C971   H454    1.083   1_556 S
C972   H984    1.079   .     S
H981   C437    1.085   1_556 S
N988   Zn998   2.008   .     S
N989   Zn999   2.008   .     S
O990   Zn998   2.000   .     S
O991   Zn999   2.000   .     S
O992   Zn998   1.961   .     S
O993   Zn999   1.906   .     S
O994   Zn998   2.000   .     S
O995   Zn999   2.000   .     S
O996   Zn998   1.906   .     S
O997   Zn999   1.961   .     S
C1000  H1003   1.110   .     S
C1000  H1001   1.110   .     S
C1000  H1002   1.111   .     S
C1004  C1020   1.419   .     S
C1004  O1050   1.283   .     A
C1004  O1049   1.282   .     A
C1005  C1006   1.408   .     A
C1005  C476    1.415   1_556 S
C1005  C500    1.419   1_556 S
C1006  C1010   1.413   .     A
C1006  C1013   1.410   .     A
C1007  C1011   1.389   .     A
C1008  C1009   1.392   .     A
C1008  C476    1.417   1_556 S
C1008  C496    1.401   1_556 S
C1009  H1039   1.084   .     S
C1009  C1010   1.386   .     A
C1010  H1045   1.082   .     S
C1011  C1028   1.392   .     A
C1011  H1041   1.079   .     S
C1012  C1027   1.401   .     A
C1012  C1028   1.417   .     A
C1012  C1059   1.507   .     S
C1013  C1015   1.459   .     S
C1013  C1029   1.402   .     A
C1014  H1046   1.084   .     S
C1014  C1020   1.397   .     A
C1014  C662    1.370   1_565 S
C1015  O1051   1.290   .     A
C1015  O1052   1.292   .     A
C1016  C1017   1.397   .     A
C1016  H1032   1.084   .     S
C1017  C1025   1.419   .     S
C1017  C1018   1.397   .     A
C1018  H1033   1.084   .     S
C1019  H1034   1.084   .     S
C1019  C1020   1.397   .     A
C1019  C664    1.370   1_565 S
C1021  H1035   1.081   .     S
C1021  N1048   1.366   .     A
C1021  C904    1.416   1_655 S
C1022  N1047   1.366   .     A
C1022  H1036   1.082   .     S
C1023  H1037   1.082   .     S
C1023  N1047   1.366   .     A
C1024  H1038   1.082   .     S
C1024  N1048   1.367   .     A
C1024  C905    1.416   1_655 S
C1025  O1053   1.283   .     A
C1025  O1054   1.282   .     A
C1026  C1028   1.462   .     S
C1026  O1055   1.295   .     A
C1026  O1056   1.290   .     A
C1029  C1030   1.389   .     A
C1029  H1042   1.083   .     S
C1030  C500    1.393   1_556 S
C1030  H513    1.083   1_556 S
C1031  H1043   1.079   .     S
H1040  C496    1.085   1_556 S
N1047  Zn1057  2.008   .     S
N1048  Zn1058  2.008   .     S
O1049  Zn1057  2.000   .     S
O1050  Zn1058  2.000   .     S
O1051  Zn1057  1.961   .     S
O1052  Zn1058  1.906   .     S
O1053  Zn1057  2.000   .     S
O1054  Zn1058  2.000   .     S
O1055  Zn1057  1.906   .     S
O1056  Zn1058  1.961   .     S
C1059  H1062   1.110   .     S
C1059  H1060   1.110   .     S
C1059  H1061   1.111   .     S
