data_str_m3_o5_o17_pcu_sym.30
_audit_creation_date              2020-01-03
_audit_creation_method            'Materials Studio'
_symmetry_space_group_name_H-M    'P1'
_symmetry_Int_Tables_number       1
_symmetry_cell_setting            triclinic
loop_
_symmetry_equiv_pos_as_xyz
  x,y,z
_cell_length_a                    29.9510
_cell_length_b                    26.7867
_cell_length_c                    24.3595
_cell_angle_alpha                 90.0623
_cell_angle_beta                  89.9999
_cell_angle_gamma                 90.0000
loop_
_atom_site_label
_atom_site_type_symbol
_atom_site_fract_x
_atom_site_fract_y
_atom_site_fract_z
_atom_site_U_iso_or_equiv
_atom_site_adp_type
_atom_site_occupancy
O1     O     0.25000   0.09512   0.21228   0.00000  Uiso   1.00
O2     O     0.25000   0.23822   0.12105   0.00000  Uiso   1.00
O3     O     0.25000   0.23822   0.21228   0.00000  Uiso   1.00
O4     O     0.25000   0.09512   0.12105   0.00000  Uiso   1.00
H5     H     0.46042   0.04588   0.20930   0.00000  Uiso   1.00
H6     H     0.03958   0.28746   0.12407   0.00000  Uiso   1.00
H7     H     0.46042   0.28745   0.12404   0.00000  Uiso   1.00
H8     H     0.03958   0.04587   0.20926   0.00000  Uiso   1.00
C9     C     0.25000   0.07269   0.16664   0.00000  Uiso   1.00
C10    C     0.25000   0.26064   0.16669   0.00000  Uiso   1.00
O11    O     0.18393   0.16667   0.21230   0.00000  Uiso   1.00
O12    O     0.31608   0.16667   0.12104   0.00000  Uiso   1.00
O13    O     0.31608   0.16667   0.21230   0.00000  Uiso   1.00
O14    O     0.18393   0.16667   0.12104   0.00000  Uiso   1.00
C15    C     0.16339   0.16667   0.16667   0.00000  Uiso   1.00
C16    C     0.33661   0.16667   0.16667   0.00000  Uiso   1.00
Zn17   Zn    0.25000   0.16667   0.22759   0.00000  Uiso   1.00
Zn18   Zn    0.25000   0.16667   0.10574   0.00000  Uiso   1.00
N19    N     0.25000   0.16667   0.02455   0.00000  Uiso   1.00
N20    N     0.25000   0.16667   0.30879   0.00000  Uiso   1.00
C21    C     0.40659   0.21013   0.15076   0.00000  Uiso   1.00
C22    C     0.09341   0.12319   0.18252   0.00000  Uiso   1.00
C23    C     0.40659   0.12321   0.18258   0.00000  Uiso   1.00
C24    C     0.09341   0.21014   0.15082   0.00000  Uiso   1.00
C25    C     0.38416   0.16667   0.16667   0.00000  Uiso   1.00
C26    C     0.11584   0.16667   0.16667   0.00000  Uiso   1.00
C27    C     0.45317   0.12295   0.18234   0.00000  Uiso   1.00
C28    C     0.04683   0.21039   0.15102   0.00000  Uiso   1.00
C29    C     0.45317   0.21038   0.15100   0.00000  Uiso   1.00
C30    C     0.04683   0.12294   0.18231   0.00000  Uiso   1.00
C31    C     0.47655   0.16667   0.16667   0.00000  Uiso   1.00
C32    C     0.02345   0.16667   0.16667   0.00000  Uiso   1.00
C33    C     0.47694   0.08003   0.19733   0.00000  Uiso   1.00
C34    C     0.02306   0.25331   0.13603   0.00000  Uiso   1.00
C35    C     0.47694   0.25330   0.13601   0.00000  Uiso   1.00
C36    C     0.02306   0.08002   0.19731   0.00000  Uiso   1.00
C37    C     0.25000   0.02173   0.16663   0.00000  Uiso   1.00
C38    C     0.25000   0.31160   0.16670   0.00000  Uiso   1.00
Br39   Br    0.37263   0.26888   0.13001   0.00000  Uiso   1.00
Br40   Br    0.12738   0.06440   0.20314   0.00000  Uiso   1.00
Br41   Br    0.37263   0.06445   0.20332   0.00000  Uiso   1.00
Br42   Br    0.12738   0.26893   0.13020   0.00000  Uiso   1.00
O43    O     0.75000   0.09512   0.21228   0.00000  Uiso   1.00
O44    O     0.75000   0.23822   0.12105   0.00000  Uiso   1.00
O45    O     0.75000   0.23822   0.21228   0.00000  Uiso   1.00
O46    O     0.75000   0.09512   0.12105   0.00000  Uiso   1.00
H47    H     0.96042   0.04588   0.20930   0.00000  Uiso   1.00
H48    H     0.53958   0.28746   0.12407   0.00000  Uiso   1.00
H49    H     0.96042   0.28745   0.12404   0.00000  Uiso   1.00
H50    H     0.53958   0.04587   0.20926   0.00000  Uiso   1.00
C51    C     0.75000   0.07269   0.16664   0.00000  Uiso   1.00
C52    C     0.75000   0.26064   0.16669   0.00000  Uiso   1.00
O53    O     0.68393   0.16667   0.21230   0.00000  Uiso   1.00
O54    O     0.81608   0.16667   0.12104   0.00000  Uiso   1.00
O55    O     0.81608   0.16667   0.21230   0.00000  Uiso   1.00
O56    O     0.68393   0.16667   0.12104   0.00000  Uiso   1.00
C57    C     0.66339   0.16667   0.16667   0.00000  Uiso   1.00
C58    C     0.83661   0.16667   0.16667   0.00000  Uiso   1.00
Zn59   Zn    0.75000   0.16667   0.22759   0.00000  Uiso   1.00
Zn60   Zn    0.75000   0.16667   0.10574   0.00000  Uiso   1.00
N61    N     0.75000   0.16667   0.02455   0.00000  Uiso   1.00
N62    N     0.75000   0.16667   0.30879   0.00000  Uiso   1.00
C63    C     0.90659   0.21013   0.15076   0.00000  Uiso   1.00
C64    C     0.59341   0.12319   0.18252   0.00000  Uiso   1.00
C65    C     0.90659   0.12321   0.18258   0.00000  Uiso   1.00
C66    C     0.59341   0.21014   0.15082   0.00000  Uiso   1.00
C67    C     0.88416   0.16667   0.16667   0.00000  Uiso   1.00
C68    C     0.61584   0.16667   0.16667   0.00000  Uiso   1.00
C69    C     0.95317   0.12295   0.18234   0.00000  Uiso   1.00
C70    C     0.54683   0.21039   0.15102   0.00000  Uiso   1.00
C71    C     0.95317   0.21038   0.15100   0.00000  Uiso   1.00
C72    C     0.54683   0.12294   0.18231   0.00000  Uiso   1.00
C73    C     0.97655   0.16667   0.16667   0.00000  Uiso   1.00
C74    C     0.52345   0.16667   0.16667   0.00000  Uiso   1.00
C75    C     0.97694   0.08003   0.19733   0.00000  Uiso   1.00
C76    C     0.52306   0.25331   0.13603   0.00000  Uiso   1.00
C77    C     0.97694   0.25330   0.13601   0.00000  Uiso   1.00
C78    C     0.52306   0.08002   0.19731   0.00000  Uiso   1.00
C79    C     0.75000   0.02173   0.16663   0.00000  Uiso   1.00
C80    C     0.75000   0.31160   0.16670   0.00000  Uiso   1.00
Br81   Br    0.87263   0.26888   0.13001   0.00000  Uiso   1.00
Br82   Br    0.62738   0.06440   0.20314   0.00000  Uiso   1.00
Br83   Br    0.87263   0.06445   0.20332   0.00000  Uiso   1.00
Br84   Br    0.62738   0.26893   0.13020   0.00000  Uiso   1.00
O85    O     0.25000   0.42845   0.21228   0.00000  Uiso   1.00
O86    O     0.25000   0.57155   0.12105   0.00000  Uiso   1.00
O87    O     0.25000   0.57155   0.21228   0.00000  Uiso   1.00
O88    O     0.25000   0.42845   0.12105   0.00000  Uiso   1.00
H89    H     0.46042   0.37921   0.20930   0.00000  Uiso   1.00
H90    H     0.03958   0.62080   0.12407   0.00000  Uiso   1.00
H91    H     0.46042   0.62079   0.12404   0.00000  Uiso   1.00
H92    H     0.03958   0.37920   0.20926   0.00000  Uiso   1.00
C93    C     0.25000   0.40602   0.16664   0.00000  Uiso   1.00
C94    C     0.25000   0.59398   0.16669   0.00000  Uiso   1.00
O95    O     0.18393   0.50000   0.21230   0.00000  Uiso   1.00
O96    O     0.31608   0.50000   0.12104   0.00000  Uiso   1.00
O97    O     0.31608   0.50000   0.21230   0.00000  Uiso   1.00
O98    O     0.18393   0.50000   0.12104   0.00000  Uiso   1.00
C99    C     0.16339   0.50000   0.16667   0.00000  Uiso   1.00
C100   C     0.33661   0.50000   0.16667   0.00000  Uiso   1.00
Zn101  Zn    0.25000   0.50000   0.22759   0.00000  Uiso   1.00
Zn102  Zn    0.25000   0.50000   0.10574   0.00000  Uiso   1.00
N103   N     0.25000   0.50000   0.02455   0.00000  Uiso   1.00
N104   N     0.25000   0.50000   0.30879   0.00000  Uiso   1.00
C105   C     0.40659   0.54346   0.15076   0.00000  Uiso   1.00
C106   C     0.09341   0.45652   0.18252   0.00000  Uiso   1.00
C107   C     0.40659   0.45654   0.18258   0.00000  Uiso   1.00
C108   C     0.09341   0.54348   0.15082   0.00000  Uiso   1.00
C109   C     0.38416   0.50000   0.16667   0.00000  Uiso   1.00
C110   C     0.11584   0.50000   0.16667   0.00000  Uiso   1.00
C111   C     0.45317   0.45628   0.18234   0.00000  Uiso   1.00
C112   C     0.04683   0.54373   0.15102   0.00000  Uiso   1.00
C113   C     0.45317   0.54372   0.15100   0.00000  Uiso   1.00
C114   C     0.04683   0.45627   0.18231   0.00000  Uiso   1.00
C115   C     0.47655   0.50000   0.16667   0.00000  Uiso   1.00
C116   C     0.02345   0.50000   0.16667   0.00000  Uiso   1.00
C117   C     0.47694   0.41336   0.19733   0.00000  Uiso   1.00
C118   C     0.02306   0.58664   0.13603   0.00000  Uiso   1.00
C119   C     0.47694   0.58664   0.13601   0.00000  Uiso   1.00
C120   C     0.02306   0.41336   0.19731   0.00000  Uiso   1.00
C121   C     0.25000   0.35507   0.16663   0.00000  Uiso   1.00
C122   C     0.25000   0.64493   0.16670   0.00000  Uiso   1.00
Br123  Br    0.37263   0.60221   0.13001   0.00000  Uiso   1.00
Br124  Br    0.12738   0.39773   0.20314   0.00000  Uiso   1.00
Br125  Br    0.37263   0.39779   0.20332   0.00000  Uiso   1.00
Br126  Br    0.12738   0.60227   0.13020   0.00000  Uiso   1.00
O127   O     0.75000   0.42845   0.21228   0.00000  Uiso   1.00
O128   O     0.75000   0.57155   0.12105   0.00000  Uiso   1.00
O129   O     0.75000   0.57155   0.21228   0.00000  Uiso   1.00
O130   O     0.75000   0.42845   0.12105   0.00000  Uiso   1.00
H131   H     0.96042   0.37921   0.20930   0.00000  Uiso   1.00
H132   H     0.53958   0.62080   0.12407   0.00000  Uiso   1.00
H133   H     0.96042   0.62079   0.12404   0.00000  Uiso   1.00
H134   H     0.53958   0.37920   0.20926   0.00000  Uiso   1.00
C135   C     0.75000   0.40602   0.16664   0.00000  Uiso   1.00
C136   C     0.75000   0.59398   0.16669   0.00000  Uiso   1.00
O137   O     0.68393   0.50000   0.21230   0.00000  Uiso   1.00
O138   O     0.81608   0.50000   0.12104   0.00000  Uiso   1.00
O139   O     0.81608   0.50000   0.21230   0.00000  Uiso   1.00
O140   O     0.68393   0.50000   0.12104   0.00000  Uiso   1.00
C141   C     0.66339   0.50000   0.16667   0.00000  Uiso   1.00
C142   C     0.83661   0.50000   0.16667   0.00000  Uiso   1.00
Zn143  Zn    0.75000   0.50000   0.22759   0.00000  Uiso   1.00
Zn144  Zn    0.75000   0.50000   0.10574   0.00000  Uiso   1.00
N145   N     0.75000   0.50000   0.02455   0.00000  Uiso   1.00
N146   N     0.75000   0.50000   0.30879   0.00000  Uiso   1.00
C147   C     0.90659   0.54346   0.15076   0.00000  Uiso   1.00
C148   C     0.59341   0.45652   0.18252   0.00000  Uiso   1.00
C149   C     0.90659   0.45654   0.18258   0.00000  Uiso   1.00
C150   C     0.59341   0.54348   0.15082   0.00000  Uiso   1.00
C151   C     0.88416   0.50000   0.16667   0.00000  Uiso   1.00
C152   C     0.61584   0.50000   0.16667   0.00000  Uiso   1.00
C153   C     0.95317   0.45628   0.18234   0.00000  Uiso   1.00
C154   C     0.54683   0.54373   0.15102   0.00000  Uiso   1.00
C155   C     0.95317   0.54372   0.15100   0.00000  Uiso   1.00
C156   C     0.54683   0.45627   0.18231   0.00000  Uiso   1.00
C157   C     0.97655   0.50000   0.16667   0.00000  Uiso   1.00
C158   C     0.52345   0.50000   0.16667   0.00000  Uiso   1.00
C159   C     0.97694   0.41336   0.19733   0.00000  Uiso   1.00
C160   C     0.52306   0.58664   0.13603   0.00000  Uiso   1.00
C161   C     0.97694   0.58664   0.13601   0.00000  Uiso   1.00
C162   C     0.52306   0.41336   0.19731   0.00000  Uiso   1.00
C163   C     0.75000   0.35507   0.16663   0.00000  Uiso   1.00
C164   C     0.75000   0.64493   0.16670   0.00000  Uiso   1.00
Br165  Br    0.87263   0.60221   0.13001   0.00000  Uiso   1.00
Br166  Br    0.62738   0.39773   0.20314   0.00000  Uiso   1.00
Br167  Br    0.87263   0.39779   0.20332   0.00000  Uiso   1.00
Br168  Br    0.62738   0.60227   0.13020   0.00000  Uiso   1.00
O169   O     0.25000   0.76178   0.21228   0.00000  Uiso   1.00
O170   O     0.25000   0.90488   0.12105   0.00000  Uiso   1.00
O171   O     0.25000   0.90488   0.21228   0.00000  Uiso   1.00
O172   O     0.25000   0.76178   0.12105   0.00000  Uiso   1.00
H173   H     0.46042   0.71255   0.20930   0.00000  Uiso   1.00
H174   H     0.03958   0.95413   0.12407   0.00000  Uiso   1.00
H175   H     0.46042   0.95412   0.12404   0.00000  Uiso   1.00
H176   H     0.03958   0.71254   0.20926   0.00000  Uiso   1.00
C177   C     0.25000   0.73936   0.16664   0.00000  Uiso   1.00
C178   C     0.25000   0.92731   0.16669   0.00000  Uiso   1.00
O179   O     0.18393   0.83333   0.21230   0.00000  Uiso   1.00
O180   O     0.31608   0.83333   0.12104   0.00000  Uiso   1.00
O181   O     0.31608   0.83333   0.21230   0.00000  Uiso   1.00
O182   O     0.18393   0.83333   0.12104   0.00000  Uiso   1.00
C183   C     0.16339   0.83333   0.16667   0.00000  Uiso   1.00
C184   C     0.33661   0.83333   0.16667   0.00000  Uiso   1.00
Zn185  Zn    0.25000   0.83333   0.22759   0.00000  Uiso   1.00
Zn186  Zn    0.25000   0.83333   0.10574   0.00000  Uiso   1.00
N187   N     0.25000   0.83333   0.02455   0.00000  Uiso   1.00
N188   N     0.25000   0.83333   0.30879   0.00000  Uiso   1.00
C189   C     0.40659   0.87679   0.15076   0.00000  Uiso   1.00
C190   C     0.09341   0.78985   0.18252   0.00000  Uiso   1.00
C191   C     0.40659   0.78987   0.18258   0.00000  Uiso   1.00
C192   C     0.09341   0.87681   0.15082   0.00000  Uiso   1.00
C193   C     0.38416   0.83333   0.16667   0.00000  Uiso   1.00
C194   C     0.11584   0.83333   0.16667   0.00000  Uiso   1.00
C195   C     0.45317   0.78962   0.18234   0.00000  Uiso   1.00
C196   C     0.04683   0.87706   0.15102   0.00000  Uiso   1.00
C197   C     0.45317   0.87705   0.15100   0.00000  Uiso   1.00
C198   C     0.04683   0.78961   0.18231   0.00000  Uiso   1.00
C199   C     0.47655   0.83333   0.16667   0.00000  Uiso   1.00
C200   C     0.02345   0.83333   0.16667   0.00000  Uiso   1.00
C201   C     0.47694   0.74670   0.19733   0.00000  Uiso   1.00
C202   C     0.02306   0.91998   0.13603   0.00000  Uiso   1.00
C203   C     0.47694   0.91997   0.13601   0.00000  Uiso   1.00
C204   C     0.02306   0.74669   0.19731   0.00000  Uiso   1.00
C205   C     0.25000   0.68840   0.16663   0.00000  Uiso   1.00
C206   C     0.25000   0.97827   0.16670   0.00000  Uiso   1.00
Br207  Br    0.37263   0.93554   0.13001   0.00000  Uiso   1.00
Br208  Br    0.12738   0.73107   0.20314   0.00000  Uiso   1.00
Br209  Br    0.37263   0.73112   0.20332   0.00000  Uiso   1.00
Br210  Br    0.12738   0.93560   0.13020   0.00000  Uiso   1.00
O211   O     0.75000   0.76178   0.21228   0.00000  Uiso   1.00
O212   O     0.75000   0.90488   0.12105   0.00000  Uiso   1.00
O213   O     0.75000   0.90488   0.21228   0.00000  Uiso   1.00
O214   O     0.75000   0.76178   0.12105   0.00000  Uiso   1.00
H215   H     0.96042   0.71255   0.20930   0.00000  Uiso   1.00
H216   H     0.53958   0.95413   0.12407   0.00000  Uiso   1.00
H217   H     0.96042   0.95412   0.12404   0.00000  Uiso   1.00
H218   H     0.53958   0.71254   0.20926   0.00000  Uiso   1.00
C219   C     0.75000   0.73936   0.16664   0.00000  Uiso   1.00
C220   C     0.75000   0.92731   0.16669   0.00000  Uiso   1.00
O221   O     0.68393   0.83333   0.21230   0.00000  Uiso   1.00
O222   O     0.81608   0.83333   0.12104   0.00000  Uiso   1.00
O223   O     0.81608   0.83333   0.21230   0.00000  Uiso   1.00
O224   O     0.68393   0.83333   0.12104   0.00000  Uiso   1.00
C225   C     0.66339   0.83333   0.16667   0.00000  Uiso   1.00
C226   C     0.83661   0.83333   0.16667   0.00000  Uiso   1.00
Zn227  Zn    0.75000   0.83333   0.22759   0.00000  Uiso   1.00
Zn228  Zn    0.75000   0.83333   0.10574   0.00000  Uiso   1.00
N229   N     0.75000   0.83333   0.02455   0.00000  Uiso   1.00
N230   N     0.75000   0.83333   0.30879   0.00000  Uiso   1.00
C231   C     0.90659   0.87679   0.15076   0.00000  Uiso   1.00
C232   C     0.59341   0.78985   0.18252   0.00000  Uiso   1.00
C233   C     0.90659   0.78987   0.18258   0.00000  Uiso   1.00
C234   C     0.59341   0.87681   0.15082   0.00000  Uiso   1.00
C235   C     0.88416   0.83333   0.16667   0.00000  Uiso   1.00
C236   C     0.61584   0.83333   0.16667   0.00000  Uiso   1.00
C237   C     0.95317   0.78962   0.18234   0.00000  Uiso   1.00
C238   C     0.54683   0.87706   0.15102   0.00000  Uiso   1.00
C239   C     0.95317   0.87705   0.15100   0.00000  Uiso   1.00
C240   C     0.54683   0.78961   0.18231   0.00000  Uiso   1.00
C241   C     0.97655   0.83333   0.16667   0.00000  Uiso   1.00
C242   C     0.52345   0.83333   0.16667   0.00000  Uiso   1.00
C243   C     0.97694   0.74670   0.19733   0.00000  Uiso   1.00
C244   C     0.52306   0.91998   0.13603   0.00000  Uiso   1.00
C245   C     0.97694   0.91997   0.13601   0.00000  Uiso   1.00
C246   C     0.52306   0.74669   0.19731   0.00000  Uiso   1.00
C247   C     0.75000   0.68840   0.16663   0.00000  Uiso   1.00
C248   C     0.75000   0.97827   0.16670   0.00000  Uiso   1.00
Br249  Br    0.87263   0.93554   0.13001   0.00000  Uiso   1.00
Br250  Br    0.62738   0.73107   0.20314   0.00000  Uiso   1.00
Br251  Br    0.87263   0.73112   0.20332   0.00000  Uiso   1.00
Br252  Br    0.62738   0.93560   0.13020   0.00000  Uiso   1.00
O253   O     0.25000   0.09512   0.54562   0.00000  Uiso   1.00
O254   O     0.25000   0.23822   0.45438   0.00000  Uiso   1.00
O255   O     0.25000   0.23822   0.54562   0.00000  Uiso   1.00
O256   O     0.25000   0.09512   0.45438   0.00000  Uiso   1.00
H257   H     0.46042   0.04588   0.54263   0.00000  Uiso   1.00
H258   H     0.03958   0.28746   0.45740   0.00000  Uiso   1.00
H259   H     0.46042   0.28745   0.45737   0.00000  Uiso   1.00
H260   H     0.03958   0.04587   0.54260   0.00000  Uiso   1.00
C261   C     0.25000   0.07269   0.49998   0.00000  Uiso   1.00
C262   C     0.25000   0.26064   0.50002   0.00000  Uiso   1.00
O263   O     0.18393   0.16667   0.54563   0.00000  Uiso   1.00
O264   O     0.31608   0.16667   0.45437   0.00000  Uiso   1.00
O265   O     0.31608   0.16667   0.54563   0.00000  Uiso   1.00
O266   O     0.18393   0.16667   0.45437   0.00000  Uiso   1.00
C267   C     0.16339   0.16667   0.50000   0.00000  Uiso   1.00
C268   C     0.33661   0.16667   0.50000   0.00000  Uiso   1.00
Zn269  Zn    0.25000   0.16667   0.56093   0.00000  Uiso   1.00
Zn270  Zn    0.25000   0.16667   0.43907   0.00000  Uiso   1.00
N271   N     0.25000   0.16667   0.35788   0.00000  Uiso   1.00
N272   N     0.25000   0.16667   0.64212   0.00000  Uiso   1.00
C273   C     0.40659   0.21013   0.48409   0.00000  Uiso   1.00
C274   C     0.09341   0.12319   0.51585   0.00000  Uiso   1.00
C275   C     0.40659   0.12321   0.51591   0.00000  Uiso   1.00
C276   C     0.09341   0.21014   0.48415   0.00000  Uiso   1.00
C277   C     0.38416   0.16667   0.50000   0.00000  Uiso   1.00
C278   C     0.11584   0.16667   0.50000   0.00000  Uiso   1.00
C279   C     0.45317   0.12295   0.51567   0.00000  Uiso   1.00
C280   C     0.04683   0.21039   0.48436   0.00000  Uiso   1.00
C281   C     0.45317   0.21038   0.48433   0.00000  Uiso   1.00
C282   C     0.04683   0.12294   0.51564   0.00000  Uiso   1.00
C283   C     0.47655   0.16667   0.50000   0.00000  Uiso   1.00
C284   C     0.02345   0.16667   0.50000   0.00000  Uiso   1.00
C285   C     0.47694   0.08003   0.53066   0.00000  Uiso   1.00
C286   C     0.02306   0.25331   0.46936   0.00000  Uiso   1.00
C287   C     0.47694   0.25330   0.46934   0.00000  Uiso   1.00
C288   C     0.02306   0.08002   0.53064   0.00000  Uiso   1.00
C289   C     0.25000   0.02173   0.49997   0.00000  Uiso   1.00
C290   C     0.25000   0.31160   0.50003   0.00000  Uiso   1.00
Br291  Br    0.37263   0.26888   0.46334   0.00000  Uiso   1.00
Br292  Br    0.12738   0.06440   0.53647   0.00000  Uiso   1.00
Br293  Br    0.37263   0.06445   0.53666   0.00000  Uiso   1.00
Br294  Br    0.12738   0.26893   0.46353   0.00000  Uiso   1.00
O295   O     0.75000   0.09512   0.54562   0.00000  Uiso   1.00
O296   O     0.75000   0.23822   0.45438   0.00000  Uiso   1.00
O297   O     0.75000   0.23822   0.54562   0.00000  Uiso   1.00
O298   O     0.75000   0.09512   0.45438   0.00000  Uiso   1.00
H299   H     0.96042   0.04588   0.54263   0.00000  Uiso   1.00
H300   H     0.53958   0.28746   0.45740   0.00000  Uiso   1.00
H301   H     0.96042   0.28745   0.45737   0.00000  Uiso   1.00
H302   H     0.53958   0.04587   0.54260   0.00000  Uiso   1.00
C303   C     0.75000   0.07269   0.49998   0.00000  Uiso   1.00
C304   C     0.75000   0.26064   0.50002   0.00000  Uiso   1.00
O305   O     0.68393   0.16667   0.54563   0.00000  Uiso   1.00
O306   O     0.81608   0.16667   0.45437   0.00000  Uiso   1.00
O307   O     0.81608   0.16667   0.54563   0.00000  Uiso   1.00
O308   O     0.68393   0.16667   0.45437   0.00000  Uiso   1.00
C309   C     0.66339   0.16667   0.50000   0.00000  Uiso   1.00
C310   C     0.83661   0.16667   0.50000   0.00000  Uiso   1.00
Zn311  Zn    0.75000   0.16667   0.56093   0.00000  Uiso   1.00
Zn312  Zn    0.75000   0.16667   0.43907   0.00000  Uiso   1.00
N313   N     0.75000   0.16667   0.35788   0.00000  Uiso   1.00
N314   N     0.75000   0.16667   0.64212   0.00000  Uiso   1.00
C315   C     0.90659   0.21013   0.48409   0.00000  Uiso   1.00
C316   C     0.59341   0.12319   0.51585   0.00000  Uiso   1.00
C317   C     0.90659   0.12321   0.51591   0.00000  Uiso   1.00
C318   C     0.59341   0.21014   0.48415   0.00000  Uiso   1.00
C319   C     0.88416   0.16667   0.50000   0.00000  Uiso   1.00
C320   C     0.61584   0.16667   0.50000   0.00000  Uiso   1.00
C321   C     0.95317   0.12295   0.51567   0.00000  Uiso   1.00
C322   C     0.54683   0.21039   0.48436   0.00000  Uiso   1.00
C323   C     0.95317   0.21038   0.48433   0.00000  Uiso   1.00
C324   C     0.54683   0.12294   0.51564   0.00000  Uiso   1.00
C325   C     0.97655   0.16667   0.50000   0.00000  Uiso   1.00
C326   C     0.52345   0.16667   0.50000   0.00000  Uiso   1.00
C327   C     0.97694   0.08003   0.53066   0.00000  Uiso   1.00
C328   C     0.52306   0.25331   0.46936   0.00000  Uiso   1.00
C329   C     0.97694   0.25330   0.46934   0.00000  Uiso   1.00
C330   C     0.52306   0.08002   0.53064   0.00000  Uiso   1.00
C331   C     0.75000   0.02173   0.49997   0.00000  Uiso   1.00
C332   C     0.75000   0.31160   0.50003   0.00000  Uiso   1.00
Br333  Br    0.87263   0.26888   0.46334   0.00000  Uiso   1.00
Br334  Br    0.62738   0.06440   0.53647   0.00000  Uiso   1.00
Br335  Br    0.87263   0.06445   0.53666   0.00000  Uiso   1.00
Br336  Br    0.62738   0.26893   0.46353   0.00000  Uiso   1.00
O337   O     0.25000   0.42845   0.54562   0.00000  Uiso   1.00
O338   O     0.25000   0.57155   0.45438   0.00000  Uiso   1.00
O339   O     0.25000   0.57155   0.54562   0.00000  Uiso   1.00
O340   O     0.25000   0.42845   0.45438   0.00000  Uiso   1.00
H341   H     0.46042   0.37921   0.54263   0.00000  Uiso   1.00
H342   H     0.03958   0.62080   0.45740   0.00000  Uiso   1.00
H343   H     0.46042   0.62079   0.45737   0.00000  Uiso   1.00
H344   H     0.03958   0.37920   0.54260   0.00000  Uiso   1.00
C345   C     0.25000   0.40602   0.49998   0.00000  Uiso   1.00
C346   C     0.25000   0.59398   0.50002   0.00000  Uiso   1.00
O347   O     0.18393   0.50000   0.54563   0.00000  Uiso   1.00
O348   O     0.31608   0.50000   0.45437   0.00000  Uiso   1.00
O349   O     0.31608   0.50000   0.54563   0.00000  Uiso   1.00
O350   O     0.18393   0.50000   0.45437   0.00000  Uiso   1.00
C351   C     0.16339   0.50000   0.50000   0.00000  Uiso   1.00
C352   C     0.33661   0.50000   0.50000   0.00000  Uiso   1.00
Zn353  Zn    0.25000   0.50000   0.56093   0.00000  Uiso   1.00
Zn354  Zn    0.25000   0.50000   0.43907   0.00000  Uiso   1.00
N355   N     0.25000   0.50000   0.35788   0.00000  Uiso   1.00
N356   N     0.25000   0.50000   0.64212   0.00000  Uiso   1.00
C357   C     0.40659   0.54346   0.48409   0.00000  Uiso   1.00
C358   C     0.09341   0.45652   0.51585   0.00000  Uiso   1.00
C359   C     0.40659   0.45654   0.51591   0.00000  Uiso   1.00
C360   C     0.09341   0.54348   0.48415   0.00000  Uiso   1.00
C361   C     0.38416   0.50000   0.50000   0.00000  Uiso   1.00
C362   C     0.11584   0.50000   0.50000   0.00000  Uiso   1.00
C363   C     0.45317   0.45628   0.51567   0.00000  Uiso   1.00
C364   C     0.04683   0.54373   0.48436   0.00000  Uiso   1.00
C365   C     0.45317   0.54372   0.48433   0.00000  Uiso   1.00
C366   C     0.04683   0.45627   0.51564   0.00000  Uiso   1.00
C367   C     0.47655   0.50000   0.50000   0.00000  Uiso   1.00
C368   C     0.02345   0.50000   0.50000   0.00000  Uiso   1.00
C369   C     0.47694   0.41336   0.53066   0.00000  Uiso   1.00
C370   C     0.02306   0.58664   0.46936   0.00000  Uiso   1.00
C371   C     0.47694   0.58664   0.46934   0.00000  Uiso   1.00
C372   C     0.02306   0.41336   0.53064   0.00000  Uiso   1.00
C373   C     0.25000   0.35507   0.49997   0.00000  Uiso   1.00
C374   C     0.25000   0.64493   0.50003   0.00000  Uiso   1.00
Br375  Br    0.37263   0.60221   0.46334   0.00000  Uiso   1.00
Br376  Br    0.12738   0.39773   0.53647   0.00000  Uiso   1.00
Br377  Br    0.37263   0.39779   0.53666   0.00000  Uiso   1.00
Br378  Br    0.12738   0.60227   0.46353   0.00000  Uiso   1.00
O379   O     0.75000   0.42845   0.54562   0.00000  Uiso   1.00
O380   O     0.75000   0.57155   0.45438   0.00000  Uiso   1.00
O381   O     0.75000   0.57155   0.54562   0.00000  Uiso   1.00
O382   O     0.75000   0.42845   0.45438   0.00000  Uiso   1.00
H383   H     0.96042   0.37921   0.54263   0.00000  Uiso   1.00
H384   H     0.53958   0.62080   0.45740   0.00000  Uiso   1.00
H385   H     0.96042   0.62079   0.45737   0.00000  Uiso   1.00
H386   H     0.53958   0.37920   0.54260   0.00000  Uiso   1.00
C387   C     0.75000   0.40602   0.49998   0.00000  Uiso   1.00
C388   C     0.75000   0.59398   0.50002   0.00000  Uiso   1.00
O389   O     0.68393   0.50000   0.54563   0.00000  Uiso   1.00
O390   O     0.81608   0.50000   0.45437   0.00000  Uiso   1.00
O391   O     0.81608   0.50000   0.54563   0.00000  Uiso   1.00
O392   O     0.68393   0.50000   0.45437   0.00000  Uiso   1.00
C393   C     0.66339   0.50000   0.50000   0.00000  Uiso   1.00
C394   C     0.83661   0.50000   0.50000   0.00000  Uiso   1.00
Zn395  Zn    0.75000   0.50000   0.56093   0.00000  Uiso   1.00
Zn396  Zn    0.75000   0.50000   0.43907   0.00000  Uiso   1.00
N397   N     0.75000   0.50000   0.35788   0.00000  Uiso   1.00
N398   N     0.75000   0.50000   0.64212   0.00000  Uiso   1.00
C399   C     0.90659   0.54346   0.48409   0.00000  Uiso   1.00
C400   C     0.59341   0.45652   0.51585   0.00000  Uiso   1.00
C401   C     0.90659   0.45654   0.51591   0.00000  Uiso   1.00
C402   C     0.59341   0.54348   0.48415   0.00000  Uiso   1.00
C403   C     0.88416   0.50000   0.50000   0.00000  Uiso   1.00
C404   C     0.61584   0.50000   0.50000   0.00000  Uiso   1.00
C405   C     0.95317   0.45628   0.51567   0.00000  Uiso   1.00
C406   C     0.54683   0.54373   0.48436   0.00000  Uiso   1.00
C407   C     0.95317   0.54372   0.48433   0.00000  Uiso   1.00
C408   C     0.54683   0.45627   0.51564   0.00000  Uiso   1.00
C409   C     0.97655   0.50000   0.50000   0.00000  Uiso   1.00
C410   C     0.52345   0.50000   0.50000   0.00000  Uiso   1.00
C411   C     0.97694   0.41336   0.53066   0.00000  Uiso   1.00
C412   C     0.52306   0.58664   0.46936   0.00000  Uiso   1.00
C413   C     0.97694   0.58664   0.46934   0.00000  Uiso   1.00
C414   C     0.52306   0.41336   0.53064   0.00000  Uiso   1.00
C415   C     0.75000   0.35507   0.49997   0.00000  Uiso   1.00
C416   C     0.75000   0.64493   0.50003   0.00000  Uiso   1.00
Br417  Br    0.87263   0.60221   0.46334   0.00000  Uiso   1.00
Br418  Br    0.62738   0.39773   0.53647   0.00000  Uiso   1.00
Br419  Br    0.87263   0.39779   0.53666   0.00000  Uiso   1.00
Br420  Br    0.62738   0.60227   0.46353   0.00000  Uiso   1.00
O421   O     0.25000   0.76178   0.54562   0.00000  Uiso   1.00
O422   O     0.25000   0.90488   0.45438   0.00000  Uiso   1.00
O423   O     0.25000   0.90488   0.54562   0.00000  Uiso   1.00
O424   O     0.25000   0.76178   0.45438   0.00000  Uiso   1.00
H425   H     0.46042   0.71255   0.54263   0.00000  Uiso   1.00
H426   H     0.03958   0.95413   0.45740   0.00000  Uiso   1.00
H427   H     0.46042   0.95412   0.45737   0.00000  Uiso   1.00
H428   H     0.03958   0.71254   0.54260   0.00000  Uiso   1.00
C429   C     0.25000   0.73936   0.49998   0.00000  Uiso   1.00
C430   C     0.25000   0.92731   0.50002   0.00000  Uiso   1.00
O431   O     0.18393   0.83333   0.54563   0.00000  Uiso   1.00
O432   O     0.31608   0.83333   0.45437   0.00000  Uiso   1.00
O433   O     0.31608   0.83333   0.54563   0.00000  Uiso   1.00
O434   O     0.18393   0.83333   0.45437   0.00000  Uiso   1.00
C435   C     0.16339   0.83333   0.50000   0.00000  Uiso   1.00
C436   C     0.33661   0.83333   0.50000   0.00000  Uiso   1.00
Zn437  Zn    0.25000   0.83333   0.56093   0.00000  Uiso   1.00
Zn438  Zn    0.25000   0.83333   0.43907   0.00000  Uiso   1.00
N439   N     0.25000   0.83333   0.35788   0.00000  Uiso   1.00
N440   N     0.25000   0.83333   0.64212   0.00000  Uiso   1.00
C441   C     0.40659   0.87679   0.48409   0.00000  Uiso   1.00
C442   C     0.09341   0.78985   0.51585   0.00000  Uiso   1.00
C443   C     0.40659   0.78987   0.51591   0.00000  Uiso   1.00
C444   C     0.09341   0.87681   0.48415   0.00000  Uiso   1.00
C445   C     0.38416   0.83333   0.50000   0.00000  Uiso   1.00
C446   C     0.11584   0.83333   0.50000   0.00000  Uiso   1.00
C447   C     0.45317   0.78962   0.51567   0.00000  Uiso   1.00
C448   C     0.04683   0.87706   0.48436   0.00000  Uiso   1.00
C449   C     0.45317   0.87705   0.48433   0.00000  Uiso   1.00
C450   C     0.04683   0.78961   0.51564   0.00000  Uiso   1.00
C451   C     0.47655   0.83333   0.50000   0.00000  Uiso   1.00
C452   C     0.02345   0.83333   0.50000   0.00000  Uiso   1.00
C453   C     0.47694   0.74670   0.53066   0.00000  Uiso   1.00
C454   C     0.02306   0.91998   0.46936   0.00000  Uiso   1.00
C455   C     0.47694   0.91997   0.46934   0.00000  Uiso   1.00
C456   C     0.02306   0.74669   0.53064   0.00000  Uiso   1.00
C457   C     0.25000   0.68840   0.49997   0.00000  Uiso   1.00
C458   C     0.25000   0.97827   0.50003   0.00000  Uiso   1.00
Br459  Br    0.37263   0.93554   0.46334   0.00000  Uiso   1.00
Br460  Br    0.12738   0.73107   0.53647   0.00000  Uiso   1.00
Br461  Br    0.37263   0.73112   0.53666   0.00000  Uiso   1.00
Br462  Br    0.12738   0.93560   0.46353   0.00000  Uiso   1.00
O463   O     0.75000   0.76178   0.54562   0.00000  Uiso   1.00
O464   O     0.75000   0.90488   0.45438   0.00000  Uiso   1.00
O465   O     0.75000   0.90488   0.54562   0.00000  Uiso   1.00
O466   O     0.75000   0.76178   0.45438   0.00000  Uiso   1.00
H467   H     0.96042   0.71255   0.54263   0.00000  Uiso   1.00
H468   H     0.53958   0.95413   0.45740   0.00000  Uiso   1.00
H469   H     0.96042   0.95412   0.45737   0.00000  Uiso   1.00
H470   H     0.53958   0.71254   0.54260   0.00000  Uiso   1.00
C471   C     0.75000   0.73936   0.49998   0.00000  Uiso   1.00
C472   C     0.75000   0.92731   0.50002   0.00000  Uiso   1.00
O473   O     0.68393   0.83333   0.54563   0.00000  Uiso   1.00
O474   O     0.81608   0.83333   0.45437   0.00000  Uiso   1.00
O475   O     0.81608   0.83333   0.54563   0.00000  Uiso   1.00
O476   O     0.68393   0.83333   0.45437   0.00000  Uiso   1.00
C477   C     0.66339   0.83333   0.50000   0.00000  Uiso   1.00
C478   C     0.83661   0.83333   0.50000   0.00000  Uiso   1.00
Zn479  Zn    0.75000   0.83333   0.56093   0.00000  Uiso   1.00
Zn480  Zn    0.75000   0.83333   0.43907   0.00000  Uiso   1.00
N481   N     0.75000   0.83333   0.35788   0.00000  Uiso   1.00
N482   N     0.75000   0.83333   0.64212   0.00000  Uiso   1.00
C483   C     0.90659   0.87679   0.48409   0.00000  Uiso   1.00
C484   C     0.59341   0.78985   0.51585   0.00000  Uiso   1.00
C485   C     0.90659   0.78987   0.51591   0.00000  Uiso   1.00
C486   C     0.59341   0.87681   0.48415   0.00000  Uiso   1.00
C487   C     0.88416   0.83333   0.50000   0.00000  Uiso   1.00
C488   C     0.61584   0.83333   0.50000   0.00000  Uiso   1.00
C489   C     0.95317   0.78962   0.51567   0.00000  Uiso   1.00
C490   C     0.54683   0.87706   0.48436   0.00000  Uiso   1.00
C491   C     0.95317   0.87705   0.48433   0.00000  Uiso   1.00
C492   C     0.54683   0.78961   0.51564   0.00000  Uiso   1.00
C493   C     0.97655   0.83333   0.50000   0.00000  Uiso   1.00
C494   C     0.52345   0.83333   0.50000   0.00000  Uiso   1.00
C495   C     0.97694   0.74670   0.53066   0.00000  Uiso   1.00
C496   C     0.52306   0.91998   0.46936   0.00000  Uiso   1.00
C497   C     0.97694   0.91997   0.46934   0.00000  Uiso   1.00
C498   C     0.52306   0.74669   0.53064   0.00000  Uiso   1.00
C499   C     0.75000   0.68840   0.49997   0.00000  Uiso   1.00
C500   C     0.75000   0.97827   0.50003   0.00000  Uiso   1.00
Br501  Br    0.87263   0.93554   0.46334   0.00000  Uiso   1.00
Br502  Br    0.62738   0.73107   0.53647   0.00000  Uiso   1.00
Br503  Br    0.87263   0.73112   0.53666   0.00000  Uiso   1.00
Br504  Br    0.62738   0.93560   0.46353   0.00000  Uiso   1.00
O505   O     0.25000   0.09512   0.87895   0.00000  Uiso   1.00
O506   O     0.25000   0.23822   0.78772   0.00000  Uiso   1.00
O507   O     0.25000   0.23822   0.87895   0.00000  Uiso   1.00
O508   O     0.25000   0.09512   0.78772   0.00000  Uiso   1.00
H509   H     0.46042   0.04588   0.87596   0.00000  Uiso   1.00
H510   H     0.03958   0.28746   0.79073   0.00000  Uiso   1.00
H511   H     0.46042   0.28745   0.79070   0.00000  Uiso   1.00
H512   H     0.03958   0.04587   0.87593   0.00000  Uiso   1.00
C513   C     0.25000   0.07269   0.83331   0.00000  Uiso   1.00
C514   C     0.25000   0.26064   0.83336   0.00000  Uiso   1.00
O515   O     0.18393   0.16667   0.87896   0.00000  Uiso   1.00
O516   O     0.31608   0.16667   0.78770   0.00000  Uiso   1.00
O517   O     0.31608   0.16667   0.87896   0.00000  Uiso   1.00
O518   O     0.18393   0.16667   0.78770   0.00000  Uiso   1.00
C519   C     0.16339   0.16667   0.83333   0.00000  Uiso   1.00
C520   C     0.33661   0.16667   0.83333   0.00000  Uiso   1.00
Zn521  Zn    0.25000   0.16667   0.89426   0.00000  Uiso   1.00
Zn522  Zn    0.25000   0.16667   0.77241   0.00000  Uiso   1.00
N523   N     0.25000   0.16667   0.69121   0.00000  Uiso   1.00
N524   N     0.25000   0.16667   0.97545   0.00000  Uiso   1.00
C525   C     0.40659   0.21013   0.81742   0.00000  Uiso   1.00
C526   C     0.09341   0.12319   0.84918   0.00000  Uiso   1.00
C527   C     0.40659   0.12321   0.84924   0.00000  Uiso   1.00
C528   C     0.09341   0.21014   0.81748   0.00000  Uiso   1.00
C529   C     0.38416   0.16667   0.83333   0.00000  Uiso   1.00
C530   C     0.11584   0.16667   0.83333   0.00000  Uiso   1.00
C531   C     0.45317   0.12295   0.84900   0.00000  Uiso   1.00
C532   C     0.04683   0.21039   0.81769   0.00000  Uiso   1.00
C533   C     0.45317   0.21038   0.81766   0.00000  Uiso   1.00
C534   C     0.04683   0.12294   0.84898   0.00000  Uiso   1.00
C535   C     0.47655   0.16667   0.83333   0.00000  Uiso   1.00
C536   C     0.02345   0.16667   0.83333   0.00000  Uiso   1.00
C537   C     0.47694   0.08003   0.86399   0.00000  Uiso   1.00
C538   C     0.02306   0.25331   0.80269   0.00000  Uiso   1.00
C539   C     0.47694   0.25330   0.80267   0.00000  Uiso   1.00
C540   C     0.02306   0.08002   0.86397   0.00000  Uiso   1.00
C541   C     0.25000   0.02173   0.83330   0.00000  Uiso   1.00
C542   C     0.25000   0.31160   0.83337   0.00000  Uiso   1.00
Br543  Br    0.37263   0.26888   0.79667   0.00000  Uiso   1.00
Br544  Br    0.12738   0.06440   0.86980   0.00000  Uiso   1.00
Br545  Br    0.37263   0.06445   0.86999   0.00000  Uiso   1.00
Br546  Br    0.12738   0.26893   0.79686   0.00000  Uiso   1.00
O547   O     0.75000   0.09512   0.87895   0.00000  Uiso   1.00
O548   O     0.75000   0.23822   0.78772   0.00000  Uiso   1.00
O549   O     0.75000   0.23822   0.87895   0.00000  Uiso   1.00
O550   O     0.75000   0.09512   0.78772   0.00000  Uiso   1.00
H551   H     0.96042   0.04588   0.87596   0.00000  Uiso   1.00
H552   H     0.53958   0.28746   0.79073   0.00000  Uiso   1.00
H553   H     0.96042   0.28745   0.79070   0.00000  Uiso   1.00
H554   H     0.53958   0.04587   0.87593   0.00000  Uiso   1.00
C555   C     0.75000   0.07269   0.83331   0.00000  Uiso   1.00
C556   C     0.75000   0.26064   0.83336   0.00000  Uiso   1.00
O557   O     0.68393   0.16667   0.87896   0.00000  Uiso   1.00
O558   O     0.81608   0.16667   0.78770   0.00000  Uiso   1.00
O559   O     0.81608   0.16667   0.87896   0.00000  Uiso   1.00
O560   O     0.68393   0.16667   0.78770   0.00000  Uiso   1.00
C561   C     0.66339   0.16667   0.83333   0.00000  Uiso   1.00
C562   C     0.83661   0.16667   0.83333   0.00000  Uiso   1.00
Zn563  Zn    0.75000   0.16667   0.89426   0.00000  Uiso   1.00
Zn564  Zn    0.75000   0.16667   0.77241   0.00000  Uiso   1.00
N565   N     0.75000   0.16667   0.69121   0.00000  Uiso   1.00
N566   N     0.75000   0.16667   0.97545   0.00000  Uiso   1.00
C567   C     0.90659   0.21013   0.81742   0.00000  Uiso   1.00
C568   C     0.59341   0.12319   0.84918   0.00000  Uiso   1.00
C569   C     0.90659   0.12321   0.84924   0.00000  Uiso   1.00
C570   C     0.59341   0.21014   0.81748   0.00000  Uiso   1.00
C571   C     0.88416   0.16667   0.83333   0.00000  Uiso   1.00
C572   C     0.61584   0.16667   0.83333   0.00000  Uiso   1.00
C573   C     0.95317   0.12295   0.84900   0.00000  Uiso   1.00
C574   C     0.54683   0.21039   0.81769   0.00000  Uiso   1.00
C575   C     0.95317   0.21038   0.81766   0.00000  Uiso   1.00
C576   C     0.54683   0.12294   0.84898   0.00000  Uiso   1.00
C577   C     0.97655   0.16667   0.83333   0.00000  Uiso   1.00
C578   C     0.52345   0.16667   0.83333   0.00000  Uiso   1.00
C579   C     0.97694   0.08003   0.86399   0.00000  Uiso   1.00
C580   C     0.52306   0.25331   0.80269   0.00000  Uiso   1.00
C581   C     0.97694   0.25330   0.80267   0.00000  Uiso   1.00
C582   C     0.52306   0.08002   0.86397   0.00000  Uiso   1.00
C583   C     0.75000   0.02173   0.83330   0.00000  Uiso   1.00
C584   C     0.75000   0.31160   0.83337   0.00000  Uiso   1.00
Br585  Br    0.87263   0.26888   0.79667   0.00000  Uiso   1.00
Br586  Br    0.62738   0.06440   0.86980   0.00000  Uiso   1.00
Br587  Br    0.87263   0.06445   0.86999   0.00000  Uiso   1.00
Br588  Br    0.62738   0.26893   0.79686   0.00000  Uiso   1.00
O589   O     0.25000   0.42845   0.87895   0.00000  Uiso   1.00
O590   O     0.25000   0.57155   0.78772   0.00000  Uiso   1.00
O591   O     0.25000   0.57155   0.87895   0.00000  Uiso   1.00
O592   O     0.25000   0.42845   0.78772   0.00000  Uiso   1.00
H593   H     0.46042   0.37921   0.87596   0.00000  Uiso   1.00
H594   H     0.03958   0.62080   0.79073   0.00000  Uiso   1.00
H595   H     0.46042   0.62079   0.79070   0.00000  Uiso   1.00
H596   H     0.03958   0.37920   0.87593   0.00000  Uiso   1.00
C597   C     0.25000   0.40602   0.83331   0.00000  Uiso   1.00
C598   C     0.25000   0.59398   0.83336   0.00000  Uiso   1.00
O599   O     0.18393   0.50000   0.87896   0.00000  Uiso   1.00
O600   O     0.31608   0.50000   0.78770   0.00000  Uiso   1.00
O601   O     0.31608   0.50000   0.87896   0.00000  Uiso   1.00
O602   O     0.18393   0.50000   0.78770   0.00000  Uiso   1.00
C603   C     0.16339   0.50000   0.83333   0.00000  Uiso   1.00
C604   C     0.33661   0.50000   0.83333   0.00000  Uiso   1.00
Zn605  Zn    0.25000   0.50000   0.89426   0.00000  Uiso   1.00
Zn606  Zn    0.25000   0.50000   0.77241   0.00000  Uiso   1.00
N607   N     0.25000   0.50000   0.69121   0.00000  Uiso   1.00
N608   N     0.25000   0.50000   0.97545   0.00000  Uiso   1.00
C609   C     0.40659   0.54346   0.81742   0.00000  Uiso   1.00
C610   C     0.09341   0.45652   0.84918   0.00000  Uiso   1.00
C611   C     0.40659   0.45654   0.84924   0.00000  Uiso   1.00
C612   C     0.09341   0.54348   0.81748   0.00000  Uiso   1.00
C613   C     0.38416   0.50000   0.83333   0.00000  Uiso   1.00
C614   C     0.11584   0.50000   0.83333   0.00000  Uiso   1.00
C615   C     0.45317   0.45628   0.84900   0.00000  Uiso   1.00
C616   C     0.04683   0.54373   0.81769   0.00000  Uiso   1.00
C617   C     0.45317   0.54372   0.81766   0.00000  Uiso   1.00
C618   C     0.04683   0.45627   0.84898   0.00000  Uiso   1.00
C619   C     0.47655   0.50000   0.83333   0.00000  Uiso   1.00
C620   C     0.02345   0.50000   0.83333   0.00000  Uiso   1.00
C621   C     0.47694   0.41336   0.86399   0.00000  Uiso   1.00
C622   C     0.02306   0.58664   0.80269   0.00000  Uiso   1.00
C623   C     0.47694   0.58664   0.80267   0.00000  Uiso   1.00
C624   C     0.02306   0.41336   0.86397   0.00000  Uiso   1.00
C625   C     0.25000   0.35507   0.83330   0.00000  Uiso   1.00
C626   C     0.25000   0.64493   0.83337   0.00000  Uiso   1.00
Br627  Br    0.37263   0.60221   0.79667   0.00000  Uiso   1.00
Br628  Br    0.12738   0.39773   0.86980   0.00000  Uiso   1.00
Br629  Br    0.37263   0.39779   0.86999   0.00000  Uiso   1.00
Br630  Br    0.12738   0.60227   0.79686   0.00000  Uiso   1.00
O631   O     0.75000   0.42845   0.87895   0.00000  Uiso   1.00
O632   O     0.75000   0.57155   0.78772   0.00000  Uiso   1.00
O633   O     0.75000   0.57155   0.87895   0.00000  Uiso   1.00
O634   O     0.75000   0.42845   0.78772   0.00000  Uiso   1.00
H635   H     0.96042   0.37921   0.87596   0.00000  Uiso   1.00
H636   H     0.53958   0.62080   0.79073   0.00000  Uiso   1.00
H637   H     0.96042   0.62079   0.79070   0.00000  Uiso   1.00
H638   H     0.53958   0.37920   0.87593   0.00000  Uiso   1.00
C639   C     0.75000   0.40602   0.83331   0.00000  Uiso   1.00
C640   C     0.75000   0.59398   0.83336   0.00000  Uiso   1.00
O641   O     0.68393   0.50000   0.87896   0.00000  Uiso   1.00
O642   O     0.81608   0.50000   0.78770   0.00000  Uiso   1.00
O643   O     0.81608   0.50000   0.87896   0.00000  Uiso   1.00
O644   O     0.68393   0.50000   0.78770   0.00000  Uiso   1.00
C645   C     0.66339   0.50000   0.83333   0.00000  Uiso   1.00
C646   C     0.83661   0.50000   0.83333   0.00000  Uiso   1.00
Zn647  Zn    0.75000   0.50000   0.89426   0.00000  Uiso   1.00
Zn648  Zn    0.75000   0.50000   0.77241   0.00000  Uiso   1.00
N649   N     0.75000   0.50000   0.69121   0.00000  Uiso   1.00
N650   N     0.75000   0.50000   0.97545   0.00000  Uiso   1.00
C651   C     0.90659   0.54346   0.81742   0.00000  Uiso   1.00
C652   C     0.59341   0.45652   0.84918   0.00000  Uiso   1.00
C653   C     0.90659   0.45654   0.84924   0.00000  Uiso   1.00
C654   C     0.59341   0.54348   0.81748   0.00000  Uiso   1.00
C655   C     0.88416   0.50000   0.83333   0.00000  Uiso   1.00
C656   C     0.61584   0.50000   0.83333   0.00000  Uiso   1.00
C657   C     0.95317   0.45628   0.84900   0.00000  Uiso   1.00
C658   C     0.54683   0.54373   0.81769   0.00000  Uiso   1.00
C659   C     0.95317   0.54372   0.81766   0.00000  Uiso   1.00
C660   C     0.54683   0.45627   0.84898   0.00000  Uiso   1.00
C661   C     0.97655   0.50000   0.83333   0.00000  Uiso   1.00
C662   C     0.52345   0.50000   0.83333   0.00000  Uiso   1.00
C663   C     0.97694   0.41336   0.86399   0.00000  Uiso   1.00
C664   C     0.52306   0.58664   0.80269   0.00000  Uiso   1.00
C665   C     0.97694   0.58664   0.80267   0.00000  Uiso   1.00
C666   C     0.52306   0.41336   0.86397   0.00000  Uiso   1.00
C667   C     0.75000   0.35507   0.83330   0.00000  Uiso   1.00
C668   C     0.75000   0.64493   0.83337   0.00000  Uiso   1.00
Br669  Br    0.87263   0.60221   0.79667   0.00000  Uiso   1.00
Br670  Br    0.62738   0.39773   0.86980   0.00000  Uiso   1.00
Br671  Br    0.87263   0.39779   0.86999   0.00000  Uiso   1.00
Br672  Br    0.62738   0.60227   0.79686   0.00000  Uiso   1.00
O673   O     0.25000   0.76178   0.87895   0.00000  Uiso   1.00
O674   O     0.25000   0.90488   0.78772   0.00000  Uiso   1.00
O675   O     0.25000   0.90488   0.87895   0.00000  Uiso   1.00
O676   O     0.25000   0.76178   0.78772   0.00000  Uiso   1.00
H677   H     0.46042   0.71255   0.87596   0.00000  Uiso   1.00
H678   H     0.03958   0.95413   0.79073   0.00000  Uiso   1.00
H679   H     0.46042   0.95412   0.79070   0.00000  Uiso   1.00
H680   H     0.03958   0.71254   0.87593   0.00000  Uiso   1.00
C681   C     0.25000   0.73936   0.83331   0.00000  Uiso   1.00
C682   C     0.25000   0.92731   0.83336   0.00000  Uiso   1.00
O683   O     0.18393   0.83333   0.87896   0.00000  Uiso   1.00
O684   O     0.31608   0.83333   0.78770   0.00000  Uiso   1.00
O685   O     0.31608   0.83333   0.87896   0.00000  Uiso   1.00
O686   O     0.18393   0.83333   0.78770   0.00000  Uiso   1.00
C687   C     0.16339   0.83333   0.83333   0.00000  Uiso   1.00
C688   C     0.33661   0.83333   0.83333   0.00000  Uiso   1.00
Zn689  Zn    0.25000   0.83333   0.89426   0.00000  Uiso   1.00
Zn690  Zn    0.25000   0.83333   0.77241   0.00000  Uiso   1.00
N691   N     0.25000   0.83333   0.69121   0.00000  Uiso   1.00
N692   N     0.25000   0.83333   0.97545   0.00000  Uiso   1.00
C693   C     0.40659   0.87679   0.81742   0.00000  Uiso   1.00
C694   C     0.09341   0.78985   0.84918   0.00000  Uiso   1.00
C695   C     0.40659   0.78987   0.84924   0.00000  Uiso   1.00
C696   C     0.09341   0.87681   0.81748   0.00000  Uiso   1.00
C697   C     0.38416   0.83333   0.83333   0.00000  Uiso   1.00
C698   C     0.11584   0.83333   0.83333   0.00000  Uiso   1.00
C699   C     0.45317   0.78962   0.84900   0.00000  Uiso   1.00
C700   C     0.04683   0.87706   0.81769   0.00000  Uiso   1.00
C701   C     0.45317   0.87705   0.81766   0.00000  Uiso   1.00
C702   C     0.04683   0.78961   0.84898   0.00000  Uiso   1.00
C703   C     0.47655   0.83333   0.83333   0.00000  Uiso   1.00
C704   C     0.02345   0.83333   0.83333   0.00000  Uiso   1.00
C705   C     0.47694   0.74670   0.86399   0.00000  Uiso   1.00
C706   C     0.02306   0.91998   0.80269   0.00000  Uiso   1.00
C707   C     0.47694   0.91997   0.80267   0.00000  Uiso   1.00
C708   C     0.02306   0.74669   0.86397   0.00000  Uiso   1.00
C709   C     0.25000   0.68840   0.83330   0.00000  Uiso   1.00
C710   C     0.25000   0.97827   0.83337   0.00000  Uiso   1.00
Br711  Br    0.37263   0.93554   0.79667   0.00000  Uiso   1.00
Br712  Br    0.12738   0.73107   0.86980   0.00000  Uiso   1.00
Br713  Br    0.37263   0.73112   0.86999   0.00000  Uiso   1.00
Br714  Br    0.12738   0.93560   0.79686   0.00000  Uiso   1.00
O715   O     0.75000   0.76178   0.87895   0.00000  Uiso   1.00
O716   O     0.75000   0.90488   0.78772   0.00000  Uiso   1.00
O717   O     0.75000   0.90488   0.87895   0.00000  Uiso   1.00
O718   O     0.75000   0.76178   0.78772   0.00000  Uiso   1.00
H719   H     0.96042   0.71255   0.87596   0.00000  Uiso   1.00
H720   H     0.53958   0.95413   0.79073   0.00000  Uiso   1.00
H721   H     0.96042   0.95412   0.79070   0.00000  Uiso   1.00
H722   H     0.53958   0.71254   0.87593   0.00000  Uiso   1.00
C723   C     0.75000   0.73936   0.83331   0.00000  Uiso   1.00
C724   C     0.75000   0.92731   0.83336   0.00000  Uiso   1.00
O725   O     0.68393   0.83333   0.87896   0.00000  Uiso   1.00
O726   O     0.81608   0.83333   0.78770   0.00000  Uiso   1.00
O727   O     0.81608   0.83333   0.87896   0.00000  Uiso   1.00
O728   O     0.68393   0.83333   0.78770   0.00000  Uiso   1.00
C729   C     0.66339   0.83333   0.83333   0.00000  Uiso   1.00
C730   C     0.83661   0.83333   0.83333   0.00000  Uiso   1.00
Zn731  Zn    0.75000   0.83333   0.89426   0.00000  Uiso   1.00
Zn732  Zn    0.75000   0.83333   0.77241   0.00000  Uiso   1.00
N733   N     0.75000   0.83333   0.69121   0.00000  Uiso   1.00
N734   N     0.75000   0.83333   0.97545   0.00000  Uiso   1.00
C735   C     0.90659   0.87679   0.81742   0.00000  Uiso   1.00
C736   C     0.59341   0.78985   0.84918   0.00000  Uiso   1.00
C737   C     0.90659   0.78987   0.84924   0.00000  Uiso   1.00
C738   C     0.59341   0.87681   0.81748   0.00000  Uiso   1.00
C739   C     0.88416   0.83333   0.83333   0.00000  Uiso   1.00
C740   C     0.61584   0.83333   0.83333   0.00000  Uiso   1.00
C741   C     0.95317   0.78962   0.84900   0.00000  Uiso   1.00
C742   C     0.54683   0.87706   0.81769   0.00000  Uiso   1.00
C743   C     0.95317   0.87705   0.81766   0.00000  Uiso   1.00
C744   C     0.54683   0.78961   0.84898   0.00000  Uiso   1.00
C745   C     0.97655   0.83333   0.83333   0.00000  Uiso   1.00
C746   C     0.52345   0.83333   0.83333   0.00000  Uiso   1.00
C747   C     0.97694   0.74670   0.86399   0.00000  Uiso   1.00
C748   C     0.52306   0.91998   0.80269   0.00000  Uiso   1.00
C749   C     0.97694   0.91997   0.80267   0.00000  Uiso   1.00
C750   C     0.52306   0.74669   0.86397   0.00000  Uiso   1.00
C751   C     0.75000   0.68840   0.83330   0.00000  Uiso   1.00
C752   C     0.75000   0.97827   0.83337   0.00000  Uiso   1.00
Br753  Br    0.87263   0.93554   0.79667   0.00000  Uiso   1.00
Br754  Br    0.62738   0.73107   0.86980   0.00000  Uiso   1.00
Br755  Br    0.87263   0.73112   0.86999   0.00000  Uiso   1.00
Br756  Br    0.62738   0.93560   0.79686   0.00000  Uiso   1.00
loop_
_geom_bond_atom_site_label_1
_geom_bond_atom_site_label_2
_geom_bond_distance
_geom_bond_site_symmetry_2
_ccdc_geom_bond_type
O1     Zn17    1.952   .     S
O1     C9      1.263   .     A
O2     Zn18    1.952   .     S
O2     C10     1.263   .     A
O3     C10     1.263   .     A
O3     Zn17    1.953   .     S
O4     Zn18    1.953   .     S
O4     C9      1.263   .     A
H5     C33     1.080   .     S
H6     C34     1.080   .     S
H7     C35     1.080   .     S
H8     C36     1.080   .     S
C9     C37     1.365   .     S
C10    C38     1.365   .     S
O11    C15     1.270   .     A
O11    Zn17    2.014   .     S
O12    C16     1.270   .     A
O12    Zn18    2.014   .     S
O13    Zn17    2.014   .     S
O13    C16     1.270   .     A
O14    Zn18    2.014   .     S
O14    C15     1.270   .     A
C15    C26     1.424   .     S
C16    C25     1.424   .     S
Zn17   N20     1.978   .     S
Zn18   N19     1.978   .     S
N19    N524    1.196   1_554 S
N20    N271    1.196   .     S
C21    C25     1.399   .     A
C21    C29     1.395   .     A
C21    Br39    1.941   .     S
C22    C26     1.399   .     A
C22    Br40    1.941   .     S
C22    C30     1.395   .     A
C23    Br41    1.941   .     S
C23    C27     1.395   .     A
C23    C25     1.399   .     A
C24    Br42    1.941   .     S
C24    C26     1.399   .     A
C24    C28     1.395   .     A
C27    C33     1.401   .     A
C27    C31     1.417   .     A
C28    C34     1.401   .     A
C28    C32     1.417   .     A
C29    C31     1.417   .     A
C29    C35     1.401   .     A
C30    C36     1.401   .     A
C30    C32     1.417   .     A
C31    C74     1.405   .     S
C32    C73     1.405   1_455 S
C33    C78     1.381   .     S
C34    C77     1.381   1_455 S
C35    C76     1.381   .     S
C36    C75     1.381   1_455 S
C37    C206    1.164   1_545 S
C38    C121    1.164   .     S
O43    Zn59    1.952   .     S
O43    C51     1.263   .     A
O44    Zn60    1.952   .     S
O44    C52     1.263   .     A
O45    C52     1.263   .     A
O45    Zn59    1.953   .     S
O46    Zn60    1.953   .     S
O46    C51     1.263   .     A
H47    C75     1.080   .     S
H48    C76     1.080   .     S
H49    C77     1.080   .     S
H50    C78     1.080   .     S
C51    C79     1.365   .     S
C52    C80     1.365   .     S
O53    C57     1.270   .     A
O53    Zn59    2.014   .     S
O54    C58     1.270   .     A
O54    Zn60    2.014   .     S
O55    Zn59    2.014   .     S
O55    C58     1.270   .     A
O56    Zn60    2.014   .     S
O56    C57     1.270   .     A
C57    C68     1.424   .     S
C58    C67     1.424   .     S
Zn59   N62     1.978   .     S
Zn60   N61     1.978   .     S
N61    N566    1.196   1_554 S
N62    N313    1.196   .     S
C63    C67     1.399   .     A
C63    C71     1.395   .     A
C63    Br81    1.941   .     S
C64    C68     1.399   .     A
C64    Br82    1.941   .     S
C64    C72     1.395   .     A
C65    Br83    1.941   .     S
C65    C69     1.395   .     A
C65    C67     1.399   .     A
C66    Br84    1.941   .     S
C66    C68     1.399   .     A
C66    C70     1.395   .     A
C69    C75     1.401   .     A
C69    C73     1.417   .     A
C70    C76     1.401   .     A
C70    C74     1.417   .     A
C71    C73     1.417   .     A
C71    C77     1.401   .     A
C72    C78     1.401   .     A
C72    C74     1.417   .     A
C73    C32     1.405   1_655 S
C75    C36     1.381   1_655 S
C77    C34     1.381   1_655 S
C79    C248    1.164   1_545 S
C80    C163    1.164   .     S
O85    Zn101   1.952   .     S
O85    C93     1.263   .     A
O86    Zn102   1.952   .     S
O86    C94     1.263   .     A
O87    C94     1.263   .     A
O87    Zn101   1.953   .     S
O88    Zn102   1.953   .     S
O88    C93     1.263   .     A
H89    C117    1.080   .     S
H90    C118    1.080   .     S
H91    C119    1.080   .     S
H92    C120    1.080   .     S
C93    C121    1.365   .     S
C94    C122    1.365   .     S
O95    C99     1.270   .     A
O95    Zn101   2.014   .     S
O96    C100    1.270   .     A
O96    Zn102   2.014   .     S
O97    Zn101   2.014   .     S
O97    C100    1.270   .     A
O98    Zn102   2.014   .     S
O98    C99     1.270   .     A
C99    C110    1.424   .     S
C100   C109    1.424   .     S
Zn101  N104    1.978   .     S
Zn102  N103    1.978   .     S
N103   N608    1.196   1_554 S
N104   N355    1.196   .     S
C105   C109    1.399   .     A
C105   C113    1.395   .     A
C105   Br123   1.941   .     S
C106   C110    1.399   .     A
C106   Br124   1.941   .     S
C106   C114    1.395   .     A
C107   Br125   1.941   .     S
C107   C111    1.395   .     A
C107   C109    1.399   .     A
C108   Br126   1.941   .     S
C108   C110    1.399   .     A
C108   C112    1.395   .     A
C111   C117    1.401   .     A
C111   C115    1.417   .     A
C112   C118    1.401   .     A
C112   C116    1.417   .     A
C113   C115    1.417   .     A
C113   C119    1.401   .     A
C114   C120    1.401   .     A
C114   C116    1.417   .     A
C115   C158    1.405   .     S
C116   C157    1.405   1_455 S
C117   C162    1.381   .     S
C118   C161    1.381   1_455 S
C119   C160    1.381   .     S
C120   C159    1.381   1_455 S
C122   C205    1.164   .     S
O127   Zn143   1.952   .     S
O127   C135    1.263   .     A
O128   Zn144   1.952   .     S
O128   C136    1.263   .     A
O129   C136    1.263   .     A
O129   Zn143   1.953   .     S
O130   Zn144   1.953   .     S
O130   C135    1.263   .     A
H131   C159    1.080   .     S
H132   C160    1.080   .     S
H133   C161    1.080   .     S
H134   C162    1.080   .     S
C135   C163    1.365   .     S
C136   C164    1.365   .     S
O137   C141    1.270   .     A
O137   Zn143   2.014   .     S
O138   C142    1.270   .     A
O138   Zn144   2.014   .     S
O139   Zn143   2.014   .     S
O139   C142    1.270   .     A
O140   Zn144   2.014   .     S
O140   C141    1.270   .     A
C141   C152    1.424   .     S
C142   C151    1.424   .     S
Zn143  N146    1.978   .     S
Zn144  N145    1.978   .     S
N145   N650    1.196   1_554 S
N146   N397    1.196   .     S
C147   C151    1.399   .     A
C147   C155    1.395   .     A
C147   Br165   1.941   .     S
C148   C152    1.399   .     A
C148   Br166   1.941   .     S
C148   C156    1.395   .     A
C149   Br167   1.941   .     S
C149   C153    1.395   .     A
C149   C151    1.399   .     A
C150   Br168   1.941   .     S
C150   C152    1.399   .     A
C150   C154    1.395   .     A
C153   C159    1.401   .     A
C153   C157    1.417   .     A
C154   C160    1.401   .     A
C154   C158    1.417   .     A
C155   C157    1.417   .     A
C155   C161    1.401   .     A
C156   C162    1.401   .     A
C156   C158    1.417   .     A
C157   C116    1.405   1_655 S
C159   C120    1.381   1_655 S
C161   C118    1.381   1_655 S
C164   C247    1.164   .     S
O169   Zn185   1.952   .     S
O169   C177    1.263   .     A
O170   Zn186   1.952   .     S
O170   C178    1.263   .     A
O171   C178    1.263   .     A
O171   Zn185   1.953   .     S
O172   Zn186   1.953   .     S
O172   C177    1.263   .     A
H173   C201    1.080   .     S
H174   C202    1.080   .     S
H175   C203    1.080   .     S
H176   C204    1.080   .     S
C177   C205    1.365   .     S
C178   C206    1.365   .     S
O179   C183    1.270   .     A
O179   Zn185   2.014   .     S
O180   C184    1.270   .     A
O180   Zn186   2.014   .     S
O181   Zn185   2.014   .     S
O181   C184    1.270   .     A
O182   Zn186   2.014   .     S
O182   C183    1.270   .     A
C183   C194    1.424   .     S
C184   C193    1.424   .     S
Zn185  N188    1.978   .     S
Zn186  N187    1.978   .     S
N187   N692    1.196   1_554 S
N188   N439    1.196   .     S
C189   C193    1.399   .     A
C189   C197    1.395   .     A
C189   Br207   1.941   .     S
C190   C194    1.399   .     A
C190   Br208   1.941   .     S
C190   C198    1.395   .     A
C191   Br209   1.941   .     S
C191   C195    1.395   .     A
C191   C193    1.399   .     A
C192   Br210   1.941   .     S
C192   C194    1.399   .     A
C192   C196    1.395   .     A
C195   C201    1.401   .     A
C195   C199    1.417   .     A
C196   C202    1.401   .     A
C196   C200    1.417   .     A
C197   C199    1.417   .     A
C197   C203    1.401   .     A
C198   C204    1.401   .     A
C198   C200    1.417   .     A
C199   C242    1.405   .     S
C200   C241    1.405   1_455 S
C201   C246    1.381   .     S
C202   C245    1.381   1_455 S
C203   C244    1.381   .     S
C204   C243    1.381   1_455 S
C206   C37     1.164   1_565 S
O211   Zn227   1.952   .     S
O211   C219    1.263   .     A
O212   Zn228   1.952   .     S
O212   C220    1.263   .     A
O213   C220    1.263   .     A
O213   Zn227   1.953   .     S
O214   Zn228   1.953   .     S
O214   C219    1.263   .     A
H215   C243    1.080   .     S
H216   C244    1.080   .     S
H217   C245    1.080   .     S
H218   C246    1.080   .     S
C219   C247    1.365   .     S
C220   C248    1.365   .     S
O221   C225    1.270   .     A
O221   Zn227   2.014   .     S
O222   C226    1.270   .     A
O222   Zn228   2.014   .     S
O223   Zn227   2.014   .     S
O223   C226    1.270   .     A
O224   Zn228   2.014   .     S
O224   C225    1.270   .     A
C225   C236    1.424   .     S
C226   C235    1.424   .     S
Zn227  N230    1.978   .     S
Zn228  N229    1.978   .     S
N229   N734    1.196   1_554 S
N230   N481    1.196   .     S
C231   C235    1.399   .     A
C231   C239    1.395   .     A
C231   Br249   1.941   .     S
C232   C236    1.399   .     A
C232   Br250   1.941   .     S
C232   C240    1.395   .     A
C233   Br251   1.941   .     S
C233   C237    1.395   .     A
C233   C235    1.399   .     A
C234   Br252   1.941   .     S
C234   C236    1.399   .     A
C234   C238    1.395   .     A
C237   C243    1.401   .     A
C237   C241    1.417   .     A
C238   C244    1.401   .     A
C238   C242    1.417   .     A
C239   C241    1.417   .     A
C239   C245    1.401   .     A
C240   C246    1.401   .     A
C240   C242    1.417   .     A
C241   C200    1.405   1_655 S
C243   C204    1.381   1_655 S
C245   C202    1.381   1_655 S
C248   C79     1.164   1_565 S
O253   Zn269   1.952   .     S
O253   C261    1.263   .     A
O254   Zn270   1.952   .     S
O254   C262    1.263   .     A
O255   C262    1.263   .     A
O255   Zn269   1.953   .     S
O256   Zn270   1.953   .     S
O256   C261    1.263   .     A
H257   C285    1.080   .     S
H258   C286    1.080   .     S
H259   C287    1.080   .     S
H260   C288    1.080   .     S
C261   C289    1.365   .     S
C262   C290    1.365   .     S
O263   C267    1.270   .     A
O263   Zn269   2.014   .     S
O264   C268    1.270   .     A
O264   Zn270   2.014   .     S
O265   Zn269   2.014   .     S
O265   C268    1.270   .     A
O266   Zn270   2.014   .     S
O266   C267    1.270   .     A
C267   C278    1.424   .     S
C268   C277    1.424   .     S
Zn269  N272    1.978   .     S
Zn270  N271    1.978   .     S
N272   N523    1.196   .     S
C273   C277    1.399   .     A
C273   C281    1.395   .     A
C273   Br291   1.941   .     S
C274   C278    1.399   .     A
C274   Br292   1.941   .     S
C274   C282    1.395   .     A
C275   Br293   1.941   .     S
C275   C279    1.395   .     A
C275   C277    1.399   .     A
C276   Br294   1.941   .     S
C276   C278    1.399   .     A
C276   C280    1.395   .     A
C279   C285    1.401   .     A
C279   C283    1.417   .     A
C280   C286    1.401   .     A
C280   C284    1.417   .     A
C281   C283    1.417   .     A
C281   C287    1.401   .     A
C282   C288    1.401   .     A
C282   C284    1.417   .     A
C283   C326    1.405   .     S
C284   C325    1.405   1_455 S
C285   C330    1.381   .     S
C286   C329    1.381   1_455 S
C287   C328    1.381   .     S
C288   C327    1.381   1_455 S
C289   C458    1.164   1_545 S
C290   C373    1.164   .     S
O295   Zn311   1.952   .     S
O295   C303    1.263   .     A
O296   Zn312   1.952   .     S
O296   C304    1.263   .     A
O297   C304    1.263   .     A
O297   Zn311   1.953   .     S
O298   Zn312   1.953   .     S
O298   C303    1.263   .     A
H299   C327    1.080   .     S
H300   C328    1.080   .     S
H301   C329    1.080   .     S
H302   C330    1.080   .     S
C303   C331    1.365   .     S
C304   C332    1.365   .     S
O305   C309    1.270   .     A
O305   Zn311   2.014   .     S
O306   C310    1.270   .     A
O306   Zn312   2.014   .     S
O307   Zn311   2.014   .     S
O307   C310    1.270   .     A
O308   Zn312   2.014   .     S
O308   C309    1.270   .     A
C309   C320    1.424   .     S
C310   C319    1.424   .     S
Zn311  N314    1.978   .     S
Zn312  N313    1.978   .     S
N314   N565    1.196   .     S
C315   C319    1.399   .     A
C315   C323    1.395   .     A
C315   Br333   1.941   .     S
C316   C320    1.399   .     A
C316   Br334   1.941   .     S
C316   C324    1.395   .     A
C317   Br335   1.941   .     S
C317   C321    1.395   .     A
C317   C319    1.399   .     A
C318   Br336   1.941   .     S
C318   C320    1.399   .     A
C318   C322    1.395   .     A
C321   C327    1.401   .     A
C321   C325    1.417   .     A
C322   C328    1.401   .     A
C322   C326    1.417   .     A
C323   C325    1.417   .     A
C323   C329    1.401   .     A
C324   C330    1.401   .     A
C324   C326    1.417   .     A
C325   C284    1.405   1_655 S
C327   C288    1.381   1_655 S
C329   C286    1.381   1_655 S
C331   C500    1.164   1_545 S
C332   C415    1.164   .     S
O337   Zn353   1.952   .     S
O337   C345    1.263   .     A
O338   Zn354   1.952   .     S
O338   C346    1.263   .     A
O339   C346    1.263   .     A
O339   Zn353   1.953   .     S
O340   Zn354   1.953   .     S
O340   C345    1.263   .     A
H341   C369    1.080   .     S
H342   C370    1.080   .     S
H343   C371    1.080   .     S
H344   C372    1.080   .     S
C345   C373    1.365   .     S
C346   C374    1.365   .     S
O347   C351    1.270   .     A
O347   Zn353   2.014   .     S
O348   C352    1.270   .     A
O348   Zn354   2.014   .     S
O349   Zn353   2.014   .     S
O349   C352    1.270   .     A
O350   Zn354   2.014   .     S
O350   C351    1.270   .     A
C351   C362    1.424   .     S
C352   C361    1.424   .     S
Zn353  N356    1.978   .     S
Zn354  N355    1.978   .     S
N356   N607    1.196   .     S
C357   C361    1.399   .     A
C357   C365    1.395   .     A
C357   Br375   1.941   .     S
C358   C362    1.399   .     A
C358   Br376   1.941   .     S
C358   C366    1.395   .     A
C359   Br377   1.941   .     S
C359   C363    1.395   .     A
C359   C361    1.399   .     A
C360   Br378   1.941   .     S
C360   C362    1.399   .     A
C360   C364    1.395   .     A
C363   C369    1.401   .     A
C363   C367    1.417   .     A
C364   C370    1.401   .     A
C364   C368    1.417   .     A
C365   C367    1.417   .     A
C365   C371    1.401   .     A
C366   C372    1.401   .     A
C366   C368    1.417   .     A
C367   C410    1.405   .     S
C368   C409    1.405   1_455 S
C369   C414    1.381   .     S
C370   C413    1.381   1_455 S
C371   C412    1.381   .     S
C372   C411    1.381   1_455 S
C374   C457    1.164   .     S
O379   Zn395   1.952   .     S
O379   C387    1.263   .     A
O380   Zn396   1.952   .     S
O380   C388    1.263   .     A
O381   C388    1.263   .     A
O381   Zn395   1.953   .     S
O382   Zn396   1.953   .     S
O382   C387    1.263   .     A
H383   C411    1.080   .     S
H384   C412    1.080   .     S
H385   C413    1.080   .     S
H386   C414    1.080   .     S
C387   C415    1.365   .     S
C388   C416    1.365   .     S
O389   C393    1.270   .     A
O389   Zn395   2.014   .     S
O390   C394    1.270   .     A
O390   Zn396   2.014   .     S
O391   Zn395   2.014   .     S
O391   C394    1.270   .     A
O392   Zn396   2.014   .     S
O392   C393    1.270   .     A
C393   C404    1.424   .     S
C394   C403    1.424   .     S
Zn395  N398    1.978   .     S
Zn396  N397    1.978   .     S
N398   N649    1.196   .     S
C399   C403    1.399   .     A
C399   C407    1.395   .     A
C399   Br417   1.941   .     S
C400   C404    1.399   .     A
C400   Br418   1.941   .     S
C400   C408    1.395   .     A
C401   Br419   1.941   .     S
C401   C405    1.395   .     A
C401   C403    1.399   .     A
C402   Br420   1.941   .     S
C402   C404    1.399   .     A
C402   C406    1.395   .     A
C405   C411    1.401   .     A
C405   C409    1.417   .     A
C406   C412    1.401   .     A
C406   C410    1.417   .     A
C407   C409    1.417   .     A
C407   C413    1.401   .     A
C408   C414    1.401   .     A
C408   C410    1.417   .     A
C409   C368    1.405   1_655 S
C411   C372    1.381   1_655 S
C413   C370    1.381   1_655 S
C416   C499    1.164   .     S
O421   Zn437   1.952   .     S
O421   C429    1.263   .     A
O422   Zn438   1.952   .     S
O422   C430    1.263   .     A
O423   C430    1.263   .     A
O423   Zn437   1.953   .     S
O424   Zn438   1.953   .     S
O424   C429    1.263   .     A
H425   C453    1.080   .     S
H426   C454    1.080   .     S
H427   C455    1.080   .     S
H428   C456    1.080   .     S
C429   C457    1.365   .     S
C430   C458    1.365   .     S
O431   C435    1.270   .     A
O431   Zn437   2.014   .     S
O432   C436    1.270   .     A
O432   Zn438   2.014   .     S
O433   Zn437   2.014   .     S
O433   C436    1.270   .     A
O434   Zn438   2.014   .     S
O434   C435    1.270   .     A
C435   C446    1.424   .     S
C436   C445    1.424   .     S
Zn437  N440    1.978   .     S
Zn438  N439    1.978   .     S
N440   N691    1.196   .     S
C441   C445    1.399   .     A
C441   C449    1.395   .     A
C441   Br459   1.941   .     S
C442   C446    1.399   .     A
C442   Br460   1.941   .     S
C442   C450    1.395   .     A
C443   Br461   1.941   .     S
C443   C447    1.395   .     A
C443   C445    1.399   .     A
C444   Br462   1.941   .     S
C444   C446    1.399   .     A
C444   C448    1.395   .     A
C447   C453    1.401   .     A
C447   C451    1.417   .     A
C448   C454    1.401   .     A
C448   C452    1.417   .     A
C449   C451    1.417   .     A
C449   C455    1.401   .     A
C450   C456    1.401   .     A
C450   C452    1.417   .     A
C451   C494    1.405   .     S
C452   C493    1.405   1_455 S
C453   C498    1.381   .     S
C454   C497    1.381   1_455 S
C455   C496    1.381   .     S
C456   C495    1.381   1_455 S
C458   C289    1.164   1_565 S
O463   Zn479   1.952   .     S
O463   C471    1.263   .     A
O464   Zn480   1.952   .     S
O464   C472    1.263   .     A
O465   C472    1.263   .     A
O465   Zn479   1.953   .     S
O466   Zn480   1.953   .     S
O466   C471    1.263   .     A
H467   C495    1.080   .     S
H468   C496    1.080   .     S
H469   C497    1.080   .     S
H470   C498    1.080   .     S
C471   C499    1.365   .     S
C472   C500    1.365   .     S
O473   C477    1.270   .     A
O473   Zn479   2.014   .     S
O474   C478    1.270   .     A
O474   Zn480   2.014   .     S
O475   Zn479   2.014   .     S
O475   C478    1.270   .     A
O476   Zn480   2.014   .     S
O476   C477    1.270   .     A
C477   C488    1.424   .     S
C478   C487    1.424   .     S
Zn479  N482    1.978   .     S
Zn480  N481    1.978   .     S
N482   N733    1.196   .     S
C483   C487    1.399   .     A
C483   C491    1.395   .     A
C483   Br501   1.941   .     S
C484   C488    1.399   .     A
C484   Br502   1.941   .     S
C484   C492    1.395   .     A
C485   Br503   1.941   .     S
C485   C489    1.395   .     A
C485   C487    1.399   .     A
C486   Br504   1.941   .     S
C486   C488    1.399   .     A
C486   C490    1.395   .     A
C489   C495    1.401   .     A
C489   C493    1.417   .     A
C490   C496    1.401   .     A
C490   C494    1.417   .     A
C491   C493    1.417   .     A
C491   C497    1.401   .     A
C492   C498    1.401   .     A
C492   C494    1.417   .     A
C493   C452    1.405   1_655 S
C495   C456    1.381   1_655 S
C497   C454    1.381   1_655 S
C500   C331    1.164   1_565 S
O505   Zn521   1.952   .     S
O505   C513    1.263   .     A
O506   Zn522   1.952   .     S
O506   C514    1.263   .     A
O507   C514    1.263   .     A
O507   Zn521   1.953   .     S
O508   Zn522   1.953   .     S
O508   C513    1.263   .     A
H509   C537    1.080   .     S
H510   C538    1.080   .     S
H511   C539    1.080   .     S
H512   C540    1.080   .     S
C513   C541    1.365   .     S
C514   C542    1.365   .     S
O515   C519    1.270   .     A
O515   Zn521   2.014   .     S
O516   C520    1.270   .     A
O516   Zn522   2.014   .     S
O517   Zn521   2.014   .     S
O517   C520    1.270   .     A
O518   Zn522   2.014   .     S
O518   C519    1.270   .     A
C519   C530    1.424   .     S
C520   C529    1.424   .     S
Zn521  N524    1.978   .     S
Zn522  N523    1.978   .     S
N524   N19     1.196   1_556 S
C525   C529    1.399   .     A
C525   C533    1.395   .     A
C525   Br543   1.941   .     S
C526   C530    1.399   .     A
C526   Br544   1.941   .     S
C526   C534    1.395   .     A
C527   Br545   1.941   .     S
C527   C531    1.395   .     A
C527   C529    1.399   .     A
C528   Br546   1.941   .     S
C528   C530    1.399   .     A
C528   C532    1.395   .     A
C531   C537    1.401   .     A
C531   C535    1.417   .     A
C532   C538    1.401   .     A
C532   C536    1.417   .     A
C533   C535    1.417   .     A
C533   C539    1.401   .     A
C534   C540    1.401   .     A
C534   C536    1.417   .     A
C535   C578    1.405   .     S
C536   C577    1.405   1_455 S
C537   C582    1.381   .     S
C538   C581    1.381   1_455 S
C539   C580    1.381   .     S
C540   C579    1.381   1_455 S
C541   C710    1.164   1_545 S
C542   C625    1.164   .     S
O547   Zn563   1.952   .     S
O547   C555    1.263   .     A
O548   Zn564   1.952   .     S
O548   C556    1.263   .     A
O549   C556    1.263   .     A
O549   Zn563   1.953   .     S
O550   Zn564   1.953   .     S
O550   C555    1.263   .     A
H551   C579    1.080   .     S
H552   C580    1.080   .     S
H553   C581    1.080   .     S
H554   C582    1.080   .     S
C555   C583    1.365   .     S
C556   C584    1.365   .     S
O557   C561    1.270   .     A
O557   Zn563   2.014   .     S
O558   C562    1.270   .     A
O558   Zn564   2.014   .     S
O559   Zn563   2.014   .     S
O559   C562    1.270   .     A
O560   Zn564   2.014   .     S
O560   C561    1.270   .     A
C561   C572    1.424   .     S
C562   C571    1.424   .     S
Zn563  N566    1.978   .     S
Zn564  N565    1.978   .     S
N566   N61     1.196   1_556 S
C567   C571    1.399   .     A
C567   C575    1.395   .     A
C567   Br585   1.941   .     S
C568   C572    1.399   .     A
C568   Br586   1.941   .     S
C568   C576    1.395   .     A
C569   Br587   1.941   .     S
C569   C573    1.395   .     A
C569   C571    1.399   .     A
C570   Br588   1.941   .     S
C570   C572    1.399   .     A
C570   C574    1.395   .     A
C573   C579    1.401   .     A
C573   C577    1.417   .     A
C574   C580    1.401   .     A
C574   C578    1.417   .     A
C575   C577    1.417   .     A
C575   C581    1.401   .     A
C576   C582    1.401   .     A
C576   C578    1.417   .     A
C577   C536    1.405   1_655 S
C579   C540    1.381   1_655 S
C581   C538    1.381   1_655 S
C583   C752    1.164   1_545 S
C584   C667    1.164   .     S
O589   Zn605   1.952   .     S
O589   C597    1.263   .     A
O590   Zn606   1.952   .     S
O590   C598    1.263   .     A
O591   C598    1.263   .     A
O591   Zn605   1.953   .     S
O592   Zn606   1.953   .     S
O592   C597    1.263   .     A
H593   C621    1.080   .     S
H594   C622    1.080   .     S
H595   C623    1.080   .     S
H596   C624    1.080   .     S
C597   C625    1.365   .     S
C598   C626    1.365   .     S
O599   C603    1.270   .     A
O599   Zn605   2.014   .     S
O600   C604    1.270   .     A
O600   Zn606   2.014   .     S
O601   Zn605   2.014   .     S
O601   C604    1.270   .     A
O602   Zn606   2.014   .     S
O602   C603    1.270   .     A
C603   C614    1.424   .     S
C604   C613    1.424   .     S
Zn605  N608    1.978   .     S
Zn606  N607    1.978   .     S
N608   N103    1.196   1_556 S
C609   C613    1.399   .     A
C609   C617    1.395   .     A
C609   Br627   1.941   .     S
C610   C614    1.399   .     A
C610   Br628   1.941   .     S
C610   C618    1.395   .     A
C611   Br629   1.941   .     S
C611   C615    1.395   .     A
C611   C613    1.399   .     A
C612   Br630   1.941   .     S
C612   C614    1.399   .     A
C612   C616    1.395   .     A
C615   C621    1.401   .     A
C615   C619    1.417   .     A
C616   C622    1.401   .     A
C616   C620    1.417   .     A
C617   C619    1.417   .     A
C617   C623    1.401   .     A
C618   C624    1.401   .     A
C618   C620    1.417   .     A
C619   C662    1.405   .     S
C620   C661    1.405   1_455 S
C621   C666    1.381   .     S
C622   C665    1.381   1_455 S
C623   C664    1.381   .     S
C624   C663    1.381   1_455 S
C626   C709    1.164   .     S
O631   Zn647   1.952   .     S
O631   C639    1.263   .     A
O632   Zn648   1.952   .     S
O632   C640    1.263   .     A
O633   C640    1.263   .     A
O633   Zn647   1.953   .     S
O634   Zn648   1.953   .     S
O634   C639    1.263   .     A
H635   C663    1.080   .     S
H636   C664    1.080   .     S
H637   C665    1.080   .     S
H638   C666    1.080   .     S
C639   C667    1.365   .     S
C640   C668    1.365   .     S
O641   C645    1.270   .     A
O641   Zn647   2.014   .     S
O642   C646    1.270   .     A
O642   Zn648   2.014   .     S
O643   Zn647   2.014   .     S
O643   C646    1.270   .     A
O644   Zn648   2.014   .     S
O644   C645    1.270   .     A
C645   C656    1.424   .     S
C646   C655    1.424   .     S
Zn647  N650    1.978   .     S
Zn648  N649    1.978   .     S
N650   N145    1.196   1_556 S
C651   C655    1.399   .     A
C651   C659    1.395   .     A
C651   Br669   1.941   .     S
C652   C656    1.399   .     A
C652   Br670   1.941   .     S
C652   C660    1.395   .     A
C653   Br671   1.941   .     S
C653   C657    1.395   .     A
C653   C655    1.399   .     A
C654   Br672   1.941   .     S
C654   C656    1.399   .     A
C654   C658    1.395   .     A
C657   C663    1.401   .     A
C657   C661    1.417   .     A
C658   C664    1.401   .     A
C658   C662    1.417   .     A
C659   C661    1.417   .     A
C659   C665    1.401   .     A
C660   C666    1.401   .     A
C660   C662    1.417   .     A
C661   C620    1.405   1_655 S
C663   C624    1.381   1_655 S
C665   C622    1.381   1_655 S
C668   C751    1.164   .     S
O673   Zn689   1.952   .     S
O673   C681    1.263   .     A
O674   Zn690   1.952   .     S
O674   C682    1.263   .     A
O675   C682    1.263   .     A
O675   Zn689   1.953   .     S
O676   Zn690   1.953   .     S
O676   C681    1.263   .     A
H677   C705    1.080   .     S
H678   C706    1.080   .     S
H679   C707    1.080   .     S
H680   C708    1.080   .     S
C681   C709    1.365   .     S
C682   C710    1.365   .     S
O683   C687    1.270   .     A
O683   Zn689   2.014   .     S
O684   C688    1.270   .     A
O684   Zn690   2.014   .     S
O685   Zn689   2.014   .     S
O685   C688    1.270   .     A
O686   Zn690   2.014   .     S
O686   C687    1.270   .     A
C687   C698    1.424   .     S
C688   C697    1.424   .     S
Zn689  N692    1.978   .     S
Zn690  N691    1.978   .     S
N692   N187    1.196   1_556 S
C693   C697    1.399   .     A
C693   C701    1.395   .     A
C693   Br711   1.941   .     S
C694   C698    1.399   .     A
C694   Br712   1.941   .     S
C694   C702    1.395   .     A
C695   Br713   1.941   .     S
C695   C699    1.395   .     A
C695   C697    1.399   .     A
C696   Br714   1.941   .     S
C696   C698    1.399   .     A
C696   C700    1.395   .     A
C699   C705    1.401   .     A
C699   C703    1.417   .     A
C700   C706    1.401   .     A
C700   C704    1.417   .     A
C701   C703    1.417   .     A
C701   C707    1.401   .     A
C702   C708    1.401   .     A
C702   C704    1.417   .     A
C703   C746    1.405   .     S
C704   C745    1.405   1_455 S
C705   C750    1.381   .     S
C706   C749    1.381   1_455 S
C707   C748    1.381   .     S
C708   C747    1.381   1_455 S
C710   C541    1.164   1_565 S
O715   Zn731   1.952   .     S
O715   C723    1.263   .     A
O716   Zn732   1.952   .     S
O716   C724    1.263   .     A
O717   C724    1.263   .     A
O717   Zn731   1.953   .     S
O718   Zn732   1.953   .     S
O718   C723    1.263   .     A
H719   C747    1.080   .     S
H720   C748    1.080   .     S
H721   C749    1.080   .     S
H722   C750    1.080   .     S
C723   C751    1.365   .     S
C724   C752    1.365   .     S
O725   C729    1.270   .     A
O725   Zn731   2.014   .     S
O726   C730    1.270   .     A
O726   Zn732   2.014   .     S
O727   Zn731   2.014   .     S
O727   C730    1.270   .     A
O728   Zn732   2.014   .     S
O728   C729    1.270   .     A
C729   C740    1.424   .     S
C730   C739    1.424   .     S
Zn731  N734    1.978   .     S
Zn732  N733    1.978   .     S
N734   N229    1.196   1_556 S
C735   C739    1.399   .     A
C735   C743    1.395   .     A
C735   Br753   1.941   .     S
C736   C740    1.399   .     A
C736   Br754   1.941   .     S
C736   C744    1.395   .     A
C737   Br755   1.941   .     S
C737   C741    1.395   .     A
C737   C739    1.399   .     A
C738   Br756   1.941   .     S
C738   C740    1.399   .     A
C738   C742    1.395   .     A
C741   C747    1.401   .     A
C741   C745    1.417   .     A
C742   C748    1.401   .     A
C742   C746    1.417   .     A
C743   C745    1.417   .     A
C743   C749    1.401   .     A
C744   C750    1.401   .     A
C744   C746    1.417   .     A
C745   C704    1.405   1_655 S
C747   C708    1.381   1_655 S
C749   C706    1.381   1_655 S
C752   C583    1.164   1_565 S
