data_str_m2_o1_o18_pcu_sym.113
_audit_creation_date              2020-01-03
_audit_creation_method            'Materials Studio'
_symmetry_space_group_name_H-M    'P1'
_symmetry_Int_Tables_number       1
_symmetry_cell_setting            triclinic
loop_
_symmetry_equiv_pos_as_xyz
  x,y,z
_cell_length_a                    28.4820
_cell_length_b                    32.6738
_cell_length_c                    31.6580
_cell_angle_alpha                 90.0777
_cell_angle_beta                  73.6168
_cell_angle_gamma                 89.2889
loop_
_atom_site_label
_atom_site_type_symbol
_atom_site_fract_x
_atom_site_fract_y
_atom_site_fract_z
_atom_site_U_iso_or_equiv
_atom_site_adp_type
_atom_site_occupancy
C1     C     0.00083   0.08735   0.24867   0.00000  Uiso   1.00
C2     C     0.33246   0.24598   0.25141   0.00000  Uiso   1.00
C3     C     0.19313   0.18524   0.04366   0.00000  Uiso   1.00
C4     C     0.13997   0.14864   0.45617   0.00000  Uiso   1.00
C5     C     0.24235   0.18835   0.02097   0.00000  Uiso   1.00
C6     C     0.09076   0.14550   0.47892   0.00000  Uiso   1.00
C7     C     0.29030   0.02279   0.25562   0.00000  Uiso   1.00
C8     C     0.04287   0.31054   0.24475   0.00000  Uiso   1.00
C9     C     0.28755   0.31382   0.25863   0.00000  Uiso   1.00
C10    C     0.04562   0.01949   0.24167   0.00000  Uiso   1.00
C11    C     0.33133   0.29063   0.25253   0.00000  Uiso   1.00
C12    C     0.00187   0.04269   0.24776   0.00000  Uiso   1.00
C13    C     0.18494   0.13723   0.27208   0.00000  Uiso   1.00
C14    C     0.14829   0.19631   0.22825   0.00000  Uiso   1.00
C15    C     0.13529   0.13728   0.27211   0.00000  Uiso   1.00
C16    C     0.19800   0.19614   0.22802   0.00000  Uiso   1.00
C17    C     0.30539   0.16906   0.33568   0.00000  Uiso   1.00
C18    C     0.02790   0.16444   0.16430   0.00000  Uiso   1.00
C19    C     0.28854   0.17352   0.38392   0.00000  Uiso   1.00
C20    C     0.04462   0.16021   0.11602   0.00000  Uiso   1.00
C21    C     0.30775   0.18270   0.45306   0.00000  Uiso   1.00
C22    C     0.02539   0.15108   0.04688   0.00000  Uiso   1.00
C23    C     0.32308   0.17611   0.40780   0.00000  Uiso   1.00
C24    C     0.01006   0.15762   0.09215   0.00000  Uiso   1.00
C25    C     0.23792   0.17705   0.40664   0.00000  Uiso   1.00
C26    C     0.09518   0.15678   0.09333   0.00000  Uiso   1.00
C27    C     0.22315   0.17284   0.45280   0.00000  Uiso   1.00
C28    C     0.11003   0.16085   0.04712   0.00000  Uiso   1.00
C29    C     0.25804   0.18056   0.47587   0.00000  Uiso   1.00
C30    C     0.07512   0.15317   0.02406   0.00000  Uiso   1.00
C31    C     0.17402   0.16415   0.47682   0.00000  Uiso   1.00
C32    C     0.15915   0.16950   0.02308   0.00000  Uiso   1.00
Cu33   Cu    0.04689   0.16667   0.25000   0.00000  Uiso   1.00
Cu34   Cu    0.28645   0.16666   0.25000   0.00000  Uiso   1.00
H35    H     0.26785   0.19828   0.03851   0.00000  Uiso   1.00
H36    H     0.06520   0.13573   0.46137   0.00000  Uiso   1.00
H37    H     0.30453   0.15810   0.10876   0.00000  Uiso   1.00
H38    H     0.02862   0.17559   0.39121   0.00000  Uiso   1.00
H39    H     0.00145   0.18901   0.47020   0.00000  Uiso   1.00
H40    H     0.33168   0.14482   0.02973   0.00000  Uiso   1.00
H41    H     0.18205   0.19576   0.07731   0.00000  Uiso   1.00
H42    H     0.15090   0.13858   0.42231   0.00000  Uiso   1.00
H43    H     0.25654   0.04034   0.26094   0.00000  Uiso   1.00
H44    H     0.07665   0.29301   0.23941   0.00000  Uiso   1.00
H45    H     0.19835   0.11378   0.28997   0.00000  Uiso   1.00
H46    H     0.13485   0.21988   0.21053   0.00000  Uiso   1.00
H47    H     0.11127   0.11384   0.28996   0.00000  Uiso   1.00
H48    H     0.22202   0.21958   0.21018   0.00000  Uiso   1.00
N49    N     0.11736   0.16668   0.24999   0.00000  Uiso   1.00
N50    N     0.21597   0.16666   0.25001   0.00000  Uiso   1.00
O51    O     0.03958   0.10655   0.25000   0.00000  Uiso   1.00
O52    O     0.29375   0.22678   0.25000   0.00000  Uiso   1.00
O53    O     0.29372   0.10654   0.25000   0.00000  Uiso   1.00
O54    O     0.03961   0.22679   0.24999   0.00000  Uiso   1.00
O55    O     0.01852   0.16668   0.31491   0.00000  Uiso   1.00
O56    O     0.31481   0.16666   0.18508   0.00000  Uiso   1.00
O57    O     0.27267   0.16667   0.31492   0.00000  Uiso   1.00
O58    O     0.06067   0.16667   0.18508   0.00000  Uiso   1.00
C59    C     0.12929   0.13492   0.11390   0.00000  Uiso   1.00
O60    O     0.13979   0.09907   0.10422   0.00000  Uiso   1.00
O61    O     0.15122   0.15532   0.14207   0.00000  Uiso   1.00
H62    H     0.17534   0.13731   0.15195   0.00000  Uiso   1.00
C63    C     0.20354   0.19944   0.38671   0.00000  Uiso   1.00
O64    O     0.18635   0.18296   0.35983   0.00000  Uiso   1.00
O65    O     0.18791   0.23885   0.40206   0.00000  Uiso   1.00
H66    H     0.16202   0.25033   0.38884   0.00000  Uiso   1.00
C67    C     0.23808   0.29586   0.26937   0.00000  Uiso   1.00
O68    O     0.21002   0.30568   0.24808   0.00000  Uiso   1.00
O69    O     0.22284   0.26900   0.30476   0.00000  Uiso   1.00
H70    H     0.18857   0.25862   0.30823   0.00000  Uiso   1.00
C71    C     0.09511   0.03738   0.23051   0.00000  Uiso   1.00
O72    O     0.12324   0.02799   0.25191   0.00000  Uiso   1.00
O73    O     0.11037   0.06350   0.19447   0.00000  Uiso   1.00
H74    H     0.14511   0.07312   0.19005   0.00000  Uiso   1.00
C75    C     0.33417   0.08735   0.24867   0.00000  Uiso   1.00
C76    C     0.66580   0.24598   0.25141   0.00000  Uiso   1.00
C77    C     0.52646   0.18524   0.04366   0.00000  Uiso   1.00
C78    C     0.47330   0.14864   0.45617   0.00000  Uiso   1.00
C79    C     0.57568   0.18835   0.02097   0.00000  Uiso   1.00
C80    C     0.42409   0.14550   0.47892   0.00000  Uiso   1.00
C81    C     0.62364   0.02279   0.25562   0.00000  Uiso   1.00
C82    C     0.37621   0.31054   0.24475   0.00000  Uiso   1.00
C83    C     0.62088   0.31382   0.25863   0.00000  Uiso   1.00
C84    C     0.37896   0.01949   0.24167   0.00000  Uiso   1.00
C85    C     0.66467   0.29063   0.25253   0.00000  Uiso   1.00
C86    C     0.33520   0.04269   0.24776   0.00000  Uiso   1.00
C87    C     0.51828   0.13723   0.27208   0.00000  Uiso   1.00
C88    C     0.48162   0.19631   0.22825   0.00000  Uiso   1.00
C89    C     0.46862   0.13728   0.27211   0.00000  Uiso   1.00
C90    C     0.53134   0.19614   0.22802   0.00000  Uiso   1.00
C91    C     0.63873   0.16906   0.33568   0.00000  Uiso   1.00
C92    C     0.36123   0.16444   0.16430   0.00000  Uiso   1.00
C93    C     0.62187   0.17352   0.38392   0.00000  Uiso   1.00
C94    C     0.37795   0.16021   0.11602   0.00000  Uiso   1.00
C95    C     0.64109   0.18270   0.45306   0.00000  Uiso   1.00
C96    C     0.35873   0.15108   0.04688   0.00000  Uiso   1.00
C97    C     0.65641   0.17611   0.40780   0.00000  Uiso   1.00
C98    C     0.34340   0.15762   0.09215   0.00000  Uiso   1.00
C99    C     0.57125   0.17705   0.40664   0.00000  Uiso   1.00
C100   C     0.42851   0.15678   0.09333   0.00000  Uiso   1.00
C101   C     0.55648   0.17284   0.45280   0.00000  Uiso   1.00
C102   C     0.44337   0.16085   0.04712   0.00000  Uiso   1.00
C103   C     0.59138   0.18056   0.47587   0.00000  Uiso   1.00
C104   C     0.40845   0.15317   0.02406   0.00000  Uiso   1.00
C105   C     0.50735   0.16415   0.47682   0.00000  Uiso   1.00
C106   C     0.49248   0.16950   0.02308   0.00000  Uiso   1.00
Cu107  Cu    0.38022   0.16667   0.25000   0.00000  Uiso   1.00
Cu108  Cu    0.61978   0.16666   0.25000   0.00000  Uiso   1.00
H109   H     0.60119   0.19828   0.03851   0.00000  Uiso   1.00
H110   H     0.39853   0.13573   0.46137   0.00000  Uiso   1.00
H111   H     0.63786   0.15810   0.10876   0.00000  Uiso   1.00
H112   H     0.36195   0.17559   0.39121   0.00000  Uiso   1.00
H113   H     0.33479   0.18901   0.47020   0.00000  Uiso   1.00
H114   H     0.66501   0.14482   0.02973   0.00000  Uiso   1.00
H115   H     0.51538   0.19576   0.07731   0.00000  Uiso   1.00
H116   H     0.48424   0.13858   0.42231   0.00000  Uiso   1.00
H117   H     0.58987   0.04034   0.26094   0.00000  Uiso   1.00
H118   H     0.40999   0.29301   0.23941   0.00000  Uiso   1.00
H119   H     0.53168   0.11378   0.28997   0.00000  Uiso   1.00
H120   H     0.46818   0.21988   0.21053   0.00000  Uiso   1.00
H121   H     0.44461   0.11384   0.28996   0.00000  Uiso   1.00
H122   H     0.55535   0.21958   0.21018   0.00000  Uiso   1.00
N123   N     0.45069   0.16668   0.24999   0.00000  Uiso   1.00
N124   N     0.54931   0.16666   0.25001   0.00000  Uiso   1.00
O125   O     0.37291   0.10655   0.25000   0.00000  Uiso   1.00
O126   O     0.62709   0.22678   0.25000   0.00000  Uiso   1.00
O127   O     0.62706   0.10654   0.25000   0.00000  Uiso   1.00
O128   O     0.37294   0.22679   0.24999   0.00000  Uiso   1.00
O129   O     0.35186   0.16668   0.31491   0.00000  Uiso   1.00
O130   O     0.64814   0.16666   0.18508   0.00000  Uiso   1.00
O131   O     0.60600   0.16667   0.31492   0.00000  Uiso   1.00
O132   O     0.39400   0.16667   0.18508   0.00000  Uiso   1.00
C133   C     0.46262   0.13492   0.11390   0.00000  Uiso   1.00
O134   O     0.47313   0.09907   0.10422   0.00000  Uiso   1.00
O135   O     0.48455   0.15532   0.14207   0.00000  Uiso   1.00
H136   H     0.50867   0.13731   0.15195   0.00000  Uiso   1.00
C137   C     0.53688   0.19944   0.38671   0.00000  Uiso   1.00
O138   O     0.51969   0.18296   0.35983   0.00000  Uiso   1.00
O139   O     0.52124   0.23885   0.40206   0.00000  Uiso   1.00
H140   H     0.49535   0.25033   0.38884   0.00000  Uiso   1.00
C141   C     0.57142   0.29586   0.26937   0.00000  Uiso   1.00
O142   O     0.54335   0.30568   0.24808   0.00000  Uiso   1.00
O143   O     0.55617   0.26900   0.30476   0.00000  Uiso   1.00
H144   H     0.52190   0.25862   0.30823   0.00000  Uiso   1.00
C145   C     0.42844   0.03738   0.23051   0.00000  Uiso   1.00
O146   O     0.45657   0.02799   0.25191   0.00000  Uiso   1.00
O147   O     0.44370   0.06350   0.19447   0.00000  Uiso   1.00
H148   H     0.47844   0.07312   0.19005   0.00000  Uiso   1.00
C149   C     0.66750   0.08735   0.24867   0.00000  Uiso   1.00
C150   C     0.99913   0.24598   0.25141   0.00000  Uiso   1.00
C151   C     0.85979   0.18524   0.04366   0.00000  Uiso   1.00
C152   C     0.80663   0.14864   0.45617   0.00000  Uiso   1.00
C153   C     0.90902   0.18835   0.02097   0.00000  Uiso   1.00
C154   C     0.75743   0.14550   0.47892   0.00000  Uiso   1.00
C155   C     0.95697   0.02279   0.25562   0.00000  Uiso   1.00
C156   C     0.70954   0.31054   0.24475   0.00000  Uiso   1.00
C157   C     0.95421   0.31382   0.25863   0.00000  Uiso   1.00
C158   C     0.71229   0.01949   0.24167   0.00000  Uiso   1.00
C159   C     0.99800   0.29063   0.25253   0.00000  Uiso   1.00
C160   C     0.66853   0.04269   0.24776   0.00000  Uiso   1.00
C161   C     0.85161   0.13723   0.27208   0.00000  Uiso   1.00
C162   C     0.81496   0.19631   0.22825   0.00000  Uiso   1.00
C163   C     0.80196   0.13728   0.27211   0.00000  Uiso   1.00
C164   C     0.86467   0.19614   0.22802   0.00000  Uiso   1.00
C165   C     0.97206   0.16906   0.33568   0.00000  Uiso   1.00
C166   C     0.69457   0.16444   0.16430   0.00000  Uiso   1.00
C167   C     0.95520   0.17352   0.38392   0.00000  Uiso   1.00
C168   C     0.71128   0.16021   0.11602   0.00000  Uiso   1.00
C169   C     0.97442   0.18270   0.45306   0.00000  Uiso   1.00
C170   C     0.69206   0.15108   0.04688   0.00000  Uiso   1.00
C171   C     0.98975   0.17611   0.40780   0.00000  Uiso   1.00
C172   C     0.67673   0.15762   0.09215   0.00000  Uiso   1.00
C173   C     0.90459   0.17705   0.40664   0.00000  Uiso   1.00
C174   C     0.76184   0.15678   0.09333   0.00000  Uiso   1.00
C175   C     0.88981   0.17284   0.45280   0.00000  Uiso   1.00
C176   C     0.77670   0.16085   0.04712   0.00000  Uiso   1.00
C177   C     0.92471   0.18056   0.47587   0.00000  Uiso   1.00
C178   C     0.74178   0.15317   0.02406   0.00000  Uiso   1.00
C179   C     0.84069   0.16415   0.47682   0.00000  Uiso   1.00
C180   C     0.82582   0.16950   0.02308   0.00000  Uiso   1.00
Cu181  Cu    0.71355   0.16667   0.25000   0.00000  Uiso   1.00
Cu182  Cu    0.95311   0.16666   0.25000   0.00000  Uiso   1.00
H183   H     0.93452   0.19828   0.03851   0.00000  Uiso   1.00
H184   H     0.73187   0.13573   0.46137   0.00000  Uiso   1.00
H185   H     0.97120   0.15810   0.10876   0.00000  Uiso   1.00
H186   H     0.69529   0.17559   0.39121   0.00000  Uiso   1.00
H187   H     0.66812   0.18901   0.47020   0.00000  Uiso   1.00
H188   H     0.99835   0.14482   0.02973   0.00000  Uiso   1.00
H189   H     0.84871   0.19576   0.07731   0.00000  Uiso   1.00
H190   H     0.81757   0.13858   0.42231   0.00000  Uiso   1.00
H191   H     0.92320   0.04034   0.26094   0.00000  Uiso   1.00
H192   H     0.74332   0.29301   0.23941   0.00000  Uiso   1.00
H193   H     0.86501   0.11378   0.28997   0.00000  Uiso   1.00
H194   H     0.80151   0.21988   0.21053   0.00000  Uiso   1.00
H195   H     0.77794   0.11384   0.28996   0.00000  Uiso   1.00
H196   H     0.88868   0.21958   0.21018   0.00000  Uiso   1.00
N197   N     0.78403   0.16668   0.24999   0.00000  Uiso   1.00
N198   N     0.88264   0.16666   0.25001   0.00000  Uiso   1.00
O199   O     0.70625   0.10655   0.25000   0.00000  Uiso   1.00
O200   O     0.96042   0.22678   0.25000   0.00000  Uiso   1.00
O201   O     0.96039   0.10654   0.25000   0.00000  Uiso   1.00
O202   O     0.70628   0.22679   0.24999   0.00000  Uiso   1.00
O203   O     0.68519   0.16668   0.31491   0.00000  Uiso   1.00
O204   O     0.98148   0.16666   0.18508   0.00000  Uiso   1.00
O205   O     0.93933   0.16667   0.31492   0.00000  Uiso   1.00
O206   O     0.72733   0.16667   0.18508   0.00000  Uiso   1.00
C207   C     0.79595   0.13492   0.11390   0.00000  Uiso   1.00
O208   O     0.80646   0.09907   0.10422   0.00000  Uiso   1.00
O209   O     0.81789   0.15532   0.14207   0.00000  Uiso   1.00
H210   H     0.84200   0.13731   0.15195   0.00000  Uiso   1.00
C211   C     0.87021   0.19944   0.38671   0.00000  Uiso   1.00
O212   O     0.85302   0.18296   0.35983   0.00000  Uiso   1.00
O213   O     0.85458   0.23885   0.40206   0.00000  Uiso   1.00
H214   H     0.82869   0.25033   0.38884   0.00000  Uiso   1.00
C215   C     0.90475   0.29586   0.26937   0.00000  Uiso   1.00
O216   O     0.87669   0.30568   0.24808   0.00000  Uiso   1.00
O217   O     0.88951   0.26900   0.30476   0.00000  Uiso   1.00
H218   H     0.85523   0.25862   0.30823   0.00000  Uiso   1.00
C219   C     0.76178   0.03738   0.23051   0.00000  Uiso   1.00
O220   O     0.78990   0.02799   0.25191   0.00000  Uiso   1.00
O221   O     0.77704   0.06350   0.19447   0.00000  Uiso   1.00
H222   H     0.81178   0.07312   0.19005   0.00000  Uiso   1.00
C223   C     0.00083   0.42068   0.24867   0.00000  Uiso   1.00
C224   C     0.33246   0.57931   0.25141   0.00000  Uiso   1.00
C225   C     0.19313   0.51858   0.04366   0.00000  Uiso   1.00
C226   C     0.13997   0.48197   0.45617   0.00000  Uiso   1.00
C227   C     0.24235   0.52168   0.02097   0.00000  Uiso   1.00
C228   C     0.09076   0.47883   0.47892   0.00000  Uiso   1.00
C229   C     0.29030   0.35612   0.25562   0.00000  Uiso   1.00
C230   C     0.04287   0.64388   0.24475   0.00000  Uiso   1.00
C231   C     0.28755   0.64715   0.25863   0.00000  Uiso   1.00
C232   C     0.04562   0.35283   0.24167   0.00000  Uiso   1.00
C233   C     0.33133   0.62397   0.25253   0.00000  Uiso   1.00
C234   C     0.00187   0.37602   0.24776   0.00000  Uiso   1.00
C235   C     0.18494   0.47057   0.27208   0.00000  Uiso   1.00
C236   C     0.14829   0.52965   0.22825   0.00000  Uiso   1.00
C237   C     0.13529   0.47061   0.27211   0.00000  Uiso   1.00
C238   C     0.19800   0.52947   0.22802   0.00000  Uiso   1.00
C239   C     0.30539   0.50239   0.33568   0.00000  Uiso   1.00
C240   C     0.02790   0.49777   0.16430   0.00000  Uiso   1.00
C241   C     0.28854   0.50685   0.38392   0.00000  Uiso   1.00
C242   C     0.04462   0.49354   0.11602   0.00000  Uiso   1.00
C243   C     0.30775   0.51603   0.45306   0.00000  Uiso   1.00
C244   C     0.02539   0.48441   0.04688   0.00000  Uiso   1.00
C245   C     0.32308   0.50944   0.40780   0.00000  Uiso   1.00
C246   C     0.01006   0.49096   0.09215   0.00000  Uiso   1.00
C247   C     0.23792   0.51038   0.40664   0.00000  Uiso   1.00
C248   C     0.09518   0.49011   0.09333   0.00000  Uiso   1.00
C249   C     0.22315   0.50618   0.45280   0.00000  Uiso   1.00
C250   C     0.11003   0.49418   0.04712   0.00000  Uiso   1.00
C251   C     0.25804   0.51390   0.47587   0.00000  Uiso   1.00
C252   C     0.07512   0.48650   0.02406   0.00000  Uiso   1.00
C253   C     0.17402   0.49749   0.47682   0.00000  Uiso   1.00
C254   C     0.15915   0.50284   0.02308   0.00000  Uiso   1.00
Cu255  Cu    0.04689   0.50001   0.25000   0.00000  Uiso   1.00
Cu256  Cu    0.28645   0.49999   0.25000   0.00000  Uiso   1.00
H257   H     0.26785   0.53162   0.03851   0.00000  Uiso   1.00
H258   H     0.06520   0.46907   0.46137   0.00000  Uiso   1.00
H259   H     0.30453   0.49144   0.10876   0.00000  Uiso   1.00
H260   H     0.02862   0.50892   0.39121   0.00000  Uiso   1.00
H261   H     0.00145   0.52234   0.47020   0.00000  Uiso   1.00
H262   H     0.33168   0.47816   0.02973   0.00000  Uiso   1.00
H263   H     0.18205   0.52910   0.07731   0.00000  Uiso   1.00
H264   H     0.15090   0.47192   0.42231   0.00000  Uiso   1.00
H265   H     0.25654   0.37367   0.26094   0.00000  Uiso   1.00
H266   H     0.07665   0.62634   0.23941   0.00000  Uiso   1.00
H267   H     0.19835   0.44711   0.28997   0.00000  Uiso   1.00
H268   H     0.13485   0.55322   0.21053   0.00000  Uiso   1.00
H269   H     0.11127   0.44718   0.28996   0.00000  Uiso   1.00
H270   H     0.22202   0.55291   0.21018   0.00000  Uiso   1.00
N271   N     0.11736   0.50001   0.24999   0.00000  Uiso   1.00
N272   N     0.21597   0.49999   0.25001   0.00000  Uiso   1.00
O273   O     0.03958   0.43989   0.25000   0.00000  Uiso   1.00
O274   O     0.29375   0.56011   0.25000   0.00000  Uiso   1.00
O275   O     0.29372   0.43988   0.25000   0.00000  Uiso   1.00
O276   O     0.03961   0.56012   0.24999   0.00000  Uiso   1.00
O277   O     0.01852   0.50001   0.31491   0.00000  Uiso   1.00
O278   O     0.31481   0.49999   0.18508   0.00000  Uiso   1.00
O279   O     0.27267   0.50000   0.31492   0.00000  Uiso   1.00
O280   O     0.06067   0.50000   0.18508   0.00000  Uiso   1.00
C281   C     0.12929   0.46826   0.11390   0.00000  Uiso   1.00
O282   O     0.13979   0.43240   0.10422   0.00000  Uiso   1.00
O283   O     0.15122   0.48866   0.14207   0.00000  Uiso   1.00
H284   H     0.17534   0.47065   0.15195   0.00000  Uiso   1.00
C285   C     0.20354   0.53277   0.38671   0.00000  Uiso   1.00
O286   O     0.18635   0.51629   0.35983   0.00000  Uiso   1.00
O287   O     0.18791   0.57218   0.40206   0.00000  Uiso   1.00
H288   H     0.16202   0.58366   0.38884   0.00000  Uiso   1.00
C289   C     0.23808   0.62919   0.26937   0.00000  Uiso   1.00
O290   O     0.21002   0.63902   0.24808   0.00000  Uiso   1.00
O291   O     0.22284   0.60233   0.30476   0.00000  Uiso   1.00
H292   H     0.18857   0.59195   0.30823   0.00000  Uiso   1.00
C293   C     0.09511   0.37072   0.23051   0.00000  Uiso   1.00
O294   O     0.12324   0.36132   0.25191   0.00000  Uiso   1.00
O295   O     0.11037   0.39683   0.19447   0.00000  Uiso   1.00
H296   H     0.14511   0.40646   0.19005   0.00000  Uiso   1.00
C297   C     0.33417   0.42068   0.24867   0.00000  Uiso   1.00
C298   C     0.66580   0.57931   0.25141   0.00000  Uiso   1.00
C299   C     0.52646   0.51858   0.04366   0.00000  Uiso   1.00
C300   C     0.47330   0.48197   0.45617   0.00000  Uiso   1.00
C301   C     0.57568   0.52168   0.02097   0.00000  Uiso   1.00
C302   C     0.42409   0.47883   0.47892   0.00000  Uiso   1.00
C303   C     0.62364   0.35612   0.25562   0.00000  Uiso   1.00
C304   C     0.37621   0.64388   0.24475   0.00000  Uiso   1.00
C305   C     0.62088   0.64715   0.25863   0.00000  Uiso   1.00
C306   C     0.37896   0.35283   0.24167   0.00000  Uiso   1.00
C307   C     0.66467   0.62397   0.25253   0.00000  Uiso   1.00
C308   C     0.33520   0.37602   0.24776   0.00000  Uiso   1.00
C309   C     0.51828   0.47057   0.27208   0.00000  Uiso   1.00
C310   C     0.48162   0.52965   0.22825   0.00000  Uiso   1.00
C311   C     0.46862   0.47061   0.27211   0.00000  Uiso   1.00
C312   C     0.53134   0.52947   0.22802   0.00000  Uiso   1.00
C313   C     0.63873   0.50239   0.33568   0.00000  Uiso   1.00
C314   C     0.36123   0.49777   0.16430   0.00000  Uiso   1.00
C315   C     0.62187   0.50685   0.38392   0.00000  Uiso   1.00
C316   C     0.37795   0.49354   0.11602   0.00000  Uiso   1.00
C317   C     0.64109   0.51603   0.45306   0.00000  Uiso   1.00
C318   C     0.35873   0.48441   0.04688   0.00000  Uiso   1.00
C319   C     0.65641   0.50944   0.40780   0.00000  Uiso   1.00
C320   C     0.34340   0.49096   0.09215   0.00000  Uiso   1.00
C321   C     0.57125   0.51038   0.40664   0.00000  Uiso   1.00
C322   C     0.42851   0.49011   0.09333   0.00000  Uiso   1.00
C323   C     0.55648   0.50618   0.45280   0.00000  Uiso   1.00
C324   C     0.44337   0.49418   0.04712   0.00000  Uiso   1.00
C325   C     0.59138   0.51390   0.47587   0.00000  Uiso   1.00
C326   C     0.40845   0.48650   0.02406   0.00000  Uiso   1.00
C327   C     0.50735   0.49749   0.47682   0.00000  Uiso   1.00
C328   C     0.49248   0.50284   0.02308   0.00000  Uiso   1.00
Cu329  Cu    0.38022   0.50001   0.25000   0.00000  Uiso   1.00
Cu330  Cu    0.61978   0.49999   0.25000   0.00000  Uiso   1.00
H331   H     0.60119   0.53162   0.03851   0.00000  Uiso   1.00
H332   H     0.39853   0.46907   0.46137   0.00000  Uiso   1.00
H333   H     0.63786   0.49144   0.10876   0.00000  Uiso   1.00
H334   H     0.36195   0.50892   0.39121   0.00000  Uiso   1.00
H335   H     0.33479   0.52234   0.47020   0.00000  Uiso   1.00
H336   H     0.66501   0.47816   0.02973   0.00000  Uiso   1.00
H337   H     0.51538   0.52910   0.07731   0.00000  Uiso   1.00
H338   H     0.48424   0.47192   0.42231   0.00000  Uiso   1.00
H339   H     0.58987   0.37367   0.26094   0.00000  Uiso   1.00
H340   H     0.40999   0.62634   0.23941   0.00000  Uiso   1.00
H341   H     0.53168   0.44711   0.28997   0.00000  Uiso   1.00
H342   H     0.46818   0.55322   0.21053   0.00000  Uiso   1.00
H343   H     0.44461   0.44718   0.28996   0.00000  Uiso   1.00
H344   H     0.55535   0.55291   0.21018   0.00000  Uiso   1.00
N345   N     0.45069   0.50001   0.24999   0.00000  Uiso   1.00
N346   N     0.54931   0.49999   0.25001   0.00000  Uiso   1.00
O347   O     0.37291   0.43989   0.25000   0.00000  Uiso   1.00
O348   O     0.62709   0.56011   0.25000   0.00000  Uiso   1.00
O349   O     0.62706   0.43988   0.25000   0.00000  Uiso   1.00
O350   O     0.37294   0.56012   0.24999   0.00000  Uiso   1.00
O351   O     0.35186   0.50001   0.31491   0.00000  Uiso   1.00
O352   O     0.64814   0.49999   0.18508   0.00000  Uiso   1.00
O353   O     0.60600   0.50000   0.31492   0.00000  Uiso   1.00
O354   O     0.39400   0.50000   0.18508   0.00000  Uiso   1.00
C355   C     0.46262   0.46826   0.11390   0.00000  Uiso   1.00
O356   O     0.47313   0.43240   0.10422   0.00000  Uiso   1.00
O357   O     0.48455   0.48866   0.14207   0.00000  Uiso   1.00
H358   H     0.50867   0.47065   0.15195   0.00000  Uiso   1.00
C359   C     0.53688   0.53277   0.38671   0.00000  Uiso   1.00
O360   O     0.51969   0.51629   0.35983   0.00000  Uiso   1.00
O361   O     0.52124   0.57218   0.40206   0.00000  Uiso   1.00
H362   H     0.49535   0.58366   0.38884   0.00000  Uiso   1.00
C363   C     0.57142   0.62919   0.26937   0.00000  Uiso   1.00
O364   O     0.54335   0.63902   0.24808   0.00000  Uiso   1.00
O365   O     0.55617   0.60233   0.30476   0.00000  Uiso   1.00
H366   H     0.52190   0.59195   0.30823   0.00000  Uiso   1.00
C367   C     0.42844   0.37072   0.23051   0.00000  Uiso   1.00
O368   O     0.45657   0.36132   0.25191   0.00000  Uiso   1.00
O369   O     0.44370   0.39683   0.19447   0.00000  Uiso   1.00
H370   H     0.47844   0.40646   0.19005   0.00000  Uiso   1.00
C371   C     0.66750   0.42068   0.24867   0.00000  Uiso   1.00
C372   C     0.99913   0.57931   0.25141   0.00000  Uiso   1.00
C373   C     0.85979   0.51858   0.04366   0.00000  Uiso   1.00
C374   C     0.80663   0.48197   0.45617   0.00000  Uiso   1.00
C375   C     0.90902   0.52168   0.02097   0.00000  Uiso   1.00
C376   C     0.75743   0.47883   0.47892   0.00000  Uiso   1.00
C377   C     0.95697   0.35612   0.25562   0.00000  Uiso   1.00
C378   C     0.70954   0.64388   0.24475   0.00000  Uiso   1.00
C379   C     0.95421   0.64715   0.25863   0.00000  Uiso   1.00
C380   C     0.71229   0.35283   0.24167   0.00000  Uiso   1.00
C381   C     0.99800   0.62397   0.25253   0.00000  Uiso   1.00
C382   C     0.66853   0.37602   0.24776   0.00000  Uiso   1.00
C383   C     0.85161   0.47057   0.27208   0.00000  Uiso   1.00
C384   C     0.81496   0.52965   0.22825   0.00000  Uiso   1.00
C385   C     0.80196   0.47061   0.27211   0.00000  Uiso   1.00
C386   C     0.86467   0.52947   0.22802   0.00000  Uiso   1.00
C387   C     0.97206   0.50239   0.33568   0.00000  Uiso   1.00
C388   C     0.69457   0.49777   0.16430   0.00000  Uiso   1.00
C389   C     0.95520   0.50685   0.38392   0.00000  Uiso   1.00
C390   C     0.71128   0.49354   0.11602   0.00000  Uiso   1.00
C391   C     0.97442   0.51603   0.45306   0.00000  Uiso   1.00
C392   C     0.69206   0.48441   0.04688   0.00000  Uiso   1.00
C393   C     0.98975   0.50944   0.40780   0.00000  Uiso   1.00
C394   C     0.67673   0.49096   0.09215   0.00000  Uiso   1.00
C395   C     0.90459   0.51038   0.40664   0.00000  Uiso   1.00
C396   C     0.76184   0.49011   0.09333   0.00000  Uiso   1.00
C397   C     0.88981   0.50618   0.45280   0.00000  Uiso   1.00
C398   C     0.77670   0.49418   0.04712   0.00000  Uiso   1.00
C399   C     0.92471   0.51390   0.47587   0.00000  Uiso   1.00
C400   C     0.74178   0.48650   0.02406   0.00000  Uiso   1.00
C401   C     0.84069   0.49749   0.47682   0.00000  Uiso   1.00
C402   C     0.82582   0.50284   0.02308   0.00000  Uiso   1.00
Cu403  Cu    0.71355   0.50001   0.25000   0.00000  Uiso   1.00
Cu404  Cu    0.95311   0.49999   0.25000   0.00000  Uiso   1.00
H405   H     0.93452   0.53162   0.03851   0.00000  Uiso   1.00
H406   H     0.73187   0.46907   0.46137   0.00000  Uiso   1.00
H407   H     0.97120   0.49144   0.10876   0.00000  Uiso   1.00
H408   H     0.69529   0.50892   0.39121   0.00000  Uiso   1.00
H409   H     0.66812   0.52234   0.47020   0.00000  Uiso   1.00
H410   H     0.99835   0.47816   0.02973   0.00000  Uiso   1.00
H411   H     0.84871   0.52910   0.07731   0.00000  Uiso   1.00
H412   H     0.81757   0.47192   0.42231   0.00000  Uiso   1.00
H413   H     0.92320   0.37367   0.26094   0.00000  Uiso   1.00
H414   H     0.74332   0.62634   0.23941   0.00000  Uiso   1.00
H415   H     0.86501   0.44711   0.28997   0.00000  Uiso   1.00
H416   H     0.80151   0.55322   0.21053   0.00000  Uiso   1.00
H417   H     0.77794   0.44718   0.28996   0.00000  Uiso   1.00
H418   H     0.88868   0.55291   0.21018   0.00000  Uiso   1.00
N419   N     0.78403   0.50001   0.24999   0.00000  Uiso   1.00
N420   N     0.88264   0.49999   0.25001   0.00000  Uiso   1.00
O421   O     0.70625   0.43989   0.25000   0.00000  Uiso   1.00
O422   O     0.96042   0.56011   0.25000   0.00000  Uiso   1.00
O423   O     0.96039   0.43988   0.25000   0.00000  Uiso   1.00
O424   O     0.70628   0.56012   0.24999   0.00000  Uiso   1.00
O425   O     0.68519   0.50001   0.31491   0.00000  Uiso   1.00
O426   O     0.98148   0.49999   0.18508   0.00000  Uiso   1.00
O427   O     0.93933   0.50000   0.31492   0.00000  Uiso   1.00
O428   O     0.72733   0.50000   0.18508   0.00000  Uiso   1.00
C429   C     0.79595   0.46826   0.11390   0.00000  Uiso   1.00
O430   O     0.80646   0.43240   0.10422   0.00000  Uiso   1.00
O431   O     0.81789   0.48866   0.14207   0.00000  Uiso   1.00
H432   H     0.84200   0.47065   0.15195   0.00000  Uiso   1.00
C433   C     0.87021   0.53277   0.38671   0.00000  Uiso   1.00
O434   O     0.85302   0.51629   0.35983   0.00000  Uiso   1.00
O435   O     0.85458   0.57218   0.40206   0.00000  Uiso   1.00
H436   H     0.82869   0.58366   0.38884   0.00000  Uiso   1.00
C437   C     0.90475   0.62919   0.26937   0.00000  Uiso   1.00
O438   O     0.87669   0.63902   0.24808   0.00000  Uiso   1.00
O439   O     0.88951   0.60233   0.30476   0.00000  Uiso   1.00
H440   H     0.85523   0.59195   0.30823   0.00000  Uiso   1.00
C441   C     0.76178   0.37072   0.23051   0.00000  Uiso   1.00
O442   O     0.78990   0.36132   0.25191   0.00000  Uiso   1.00
O443   O     0.77704   0.39683   0.19447   0.00000  Uiso   1.00
H444   H     0.81178   0.40646   0.19005   0.00000  Uiso   1.00
C445   C     0.00083   0.75402   0.24867   0.00000  Uiso   1.00
C446   C     0.33246   0.91264   0.25141   0.00000  Uiso   1.00
C447   C     0.19313   0.85191   0.04366   0.00000  Uiso   1.00
C448   C     0.13997   0.81531   0.45617   0.00000  Uiso   1.00
C449   C     0.24235   0.85502   0.02097   0.00000  Uiso   1.00
C450   C     0.09076   0.81216   0.47892   0.00000  Uiso   1.00
C451   C     0.29030   0.68945   0.25562   0.00000  Uiso   1.00
C452   C     0.04287   0.97721   0.24475   0.00000  Uiso   1.00
C453   C     0.28755   0.98048   0.25863   0.00000  Uiso   1.00
C454   C     0.04562   0.68616   0.24167   0.00000  Uiso   1.00
C455   C     0.33133   0.95730   0.25253   0.00000  Uiso   1.00
C456   C     0.00187   0.70935   0.24776   0.00000  Uiso   1.00
C457   C     0.18494   0.80390   0.27208   0.00000  Uiso   1.00
C458   C     0.14829   0.86298   0.22825   0.00000  Uiso   1.00
C459   C     0.13529   0.80394   0.27211   0.00000  Uiso   1.00
C460   C     0.19800   0.86281   0.22802   0.00000  Uiso   1.00
C461   C     0.30539   0.83572   0.33568   0.00000  Uiso   1.00
C462   C     0.02790   0.83110   0.16430   0.00000  Uiso   1.00
C463   C     0.28854   0.84018   0.38392   0.00000  Uiso   1.00
C464   C     0.04462   0.82688   0.11602   0.00000  Uiso   1.00
C465   C     0.30775   0.84936   0.45306   0.00000  Uiso   1.00
C466   C     0.02539   0.81775   0.04688   0.00000  Uiso   1.00
C467   C     0.32308   0.84278   0.40780   0.00000  Uiso   1.00
C468   C     0.01006   0.82429   0.09215   0.00000  Uiso   1.00
C469   C     0.23792   0.84372   0.40664   0.00000  Uiso   1.00
C470   C     0.09518   0.82345   0.09333   0.00000  Uiso   1.00
C471   C     0.22315   0.83951   0.45280   0.00000  Uiso   1.00
C472   C     0.11003   0.82752   0.04712   0.00000  Uiso   1.00
C473   C     0.25804   0.84723   0.47587   0.00000  Uiso   1.00
C474   C     0.07512   0.81983   0.02406   0.00000  Uiso   1.00
C475   C     0.17402   0.83082   0.47682   0.00000  Uiso   1.00
C476   C     0.15915   0.83617   0.02308   0.00000  Uiso   1.00
Cu477  Cu    0.04689   0.83334   0.25000   0.00000  Uiso   1.00
Cu478  Cu    0.28645   0.83333   0.25000   0.00000  Uiso   1.00
H479   H     0.26785   0.86495   0.03851   0.00000  Uiso   1.00
H480   H     0.06520   0.80240   0.46137   0.00000  Uiso   1.00
H481   H     0.30453   0.82477   0.10876   0.00000  Uiso   1.00
H482   H     0.02862   0.84226   0.39121   0.00000  Uiso   1.00
H483   H     0.00145   0.85568   0.47020   0.00000  Uiso   1.00
H484   H     0.33168   0.81149   0.02973   0.00000  Uiso   1.00
H485   H     0.18205   0.86243   0.07731   0.00000  Uiso   1.00
H486   H     0.15090   0.80525   0.42231   0.00000  Uiso   1.00
H487   H     0.25654   0.70700   0.26094   0.00000  Uiso   1.00
H488   H     0.07665   0.95967   0.23941   0.00000  Uiso   1.00
H489   H     0.19835   0.78044   0.28997   0.00000  Uiso   1.00
H490   H     0.13485   0.88655   0.21053   0.00000  Uiso   1.00
H491   H     0.11127   0.78051   0.28996   0.00000  Uiso   1.00
H492   H     0.22202   0.88625   0.21018   0.00000  Uiso   1.00
N493   N     0.11736   0.83334   0.24999   0.00000  Uiso   1.00
N494   N     0.21597   0.83332   0.25001   0.00000  Uiso   1.00
O495   O     0.03958   0.77322   0.25000   0.00000  Uiso   1.00
O496   O     0.29375   0.89345   0.25000   0.00000  Uiso   1.00
O497   O     0.29372   0.77321   0.25000   0.00000  Uiso   1.00
O498   O     0.03961   0.89346   0.24999   0.00000  Uiso   1.00
O499   O     0.01852   0.83334   0.31491   0.00000  Uiso   1.00
O500   O     0.31481   0.83332   0.18508   0.00000  Uiso   1.00
O501   O     0.27267   0.83333   0.31492   0.00000  Uiso   1.00
O502   O     0.06067   0.83333   0.18508   0.00000  Uiso   1.00
C503   C     0.12929   0.80159   0.11390   0.00000  Uiso   1.00
O504   O     0.13979   0.76573   0.10422   0.00000  Uiso   1.00
O505   O     0.15122   0.82199   0.14207   0.00000  Uiso   1.00
H506   H     0.17534   0.80398   0.15195   0.00000  Uiso   1.00
C507   C     0.20354   0.86611   0.38671   0.00000  Uiso   1.00
O508   O     0.18635   0.84962   0.35983   0.00000  Uiso   1.00
O509   O     0.18791   0.90551   0.40206   0.00000  Uiso   1.00
H510   H     0.16202   0.91699   0.38884   0.00000  Uiso   1.00
C511   C     0.23808   0.96252   0.26937   0.00000  Uiso   1.00
O512   O     0.21002   0.97235   0.24808   0.00000  Uiso   1.00
O513   O     0.22284   0.93566   0.30476   0.00000  Uiso   1.00
H514   H     0.18857   0.92528   0.30823   0.00000  Uiso   1.00
C515   C     0.09511   0.70405   0.23051   0.00000  Uiso   1.00
O516   O     0.12324   0.69465   0.25191   0.00000  Uiso   1.00
O517   O     0.11037   0.73017   0.19447   0.00000  Uiso   1.00
H518   H     0.14511   0.73979   0.19005   0.00000  Uiso   1.00
C519   C     0.33417   0.75402   0.24867   0.00000  Uiso   1.00
C520   C     0.66580   0.91264   0.25141   0.00000  Uiso   1.00
C521   C     0.52646   0.85191   0.04366   0.00000  Uiso   1.00
C522   C     0.47330   0.81531   0.45617   0.00000  Uiso   1.00
C523   C     0.57568   0.85502   0.02097   0.00000  Uiso   1.00
C524   C     0.42409   0.81216   0.47892   0.00000  Uiso   1.00
C525   C     0.62364   0.68945   0.25562   0.00000  Uiso   1.00
C526   C     0.37621   0.97721   0.24475   0.00000  Uiso   1.00
C527   C     0.62088   0.98048   0.25863   0.00000  Uiso   1.00
C528   C     0.37896   0.68616   0.24167   0.00000  Uiso   1.00
C529   C     0.66467   0.95730   0.25253   0.00000  Uiso   1.00
C530   C     0.33520   0.70935   0.24776   0.00000  Uiso   1.00
C531   C     0.51828   0.80390   0.27208   0.00000  Uiso   1.00
C532   C     0.48162   0.86298   0.22825   0.00000  Uiso   1.00
C533   C     0.46862   0.80394   0.27211   0.00000  Uiso   1.00
C534   C     0.53134   0.86281   0.22802   0.00000  Uiso   1.00
C535   C     0.63873   0.83572   0.33568   0.00000  Uiso   1.00
C536   C     0.36123   0.83110   0.16430   0.00000  Uiso   1.00
C537   C     0.62187   0.84018   0.38392   0.00000  Uiso   1.00
C538   C     0.37795   0.82688   0.11602   0.00000  Uiso   1.00
C539   C     0.64109   0.84936   0.45306   0.00000  Uiso   1.00
C540   C     0.35873   0.81775   0.04688   0.00000  Uiso   1.00
C541   C     0.65641   0.84278   0.40780   0.00000  Uiso   1.00
C542   C     0.34340   0.82429   0.09215   0.00000  Uiso   1.00
C543   C     0.57125   0.84372   0.40664   0.00000  Uiso   1.00
C544   C     0.42851   0.82345   0.09333   0.00000  Uiso   1.00
C545   C     0.55648   0.83951   0.45280   0.00000  Uiso   1.00
C546   C     0.44337   0.82752   0.04712   0.00000  Uiso   1.00
C547   C     0.59138   0.84723   0.47587   0.00000  Uiso   1.00
C548   C     0.40845   0.81983   0.02406   0.00000  Uiso   1.00
C549   C     0.50735   0.83082   0.47682   0.00000  Uiso   1.00
C550   C     0.49248   0.83617   0.02308   0.00000  Uiso   1.00
Cu551  Cu    0.38022   0.83334   0.25000   0.00000  Uiso   1.00
Cu552  Cu    0.61978   0.83333   0.25000   0.00000  Uiso   1.00
H553   H     0.60119   0.86495   0.03851   0.00000  Uiso   1.00
H554   H     0.39853   0.80240   0.46137   0.00000  Uiso   1.00
H555   H     0.63786   0.82477   0.10876   0.00000  Uiso   1.00
H556   H     0.36195   0.84226   0.39121   0.00000  Uiso   1.00
H557   H     0.33479   0.85568   0.47020   0.00000  Uiso   1.00
H558   H     0.66501   0.81149   0.02973   0.00000  Uiso   1.00
H559   H     0.51538   0.86243   0.07731   0.00000  Uiso   1.00
H560   H     0.48424   0.80525   0.42231   0.00000  Uiso   1.00
H561   H     0.58987   0.70700   0.26094   0.00000  Uiso   1.00
H562   H     0.40999   0.95967   0.23941   0.00000  Uiso   1.00
H563   H     0.53168   0.78044   0.28997   0.00000  Uiso   1.00
H564   H     0.46818   0.88655   0.21053   0.00000  Uiso   1.00
H565   H     0.44461   0.78051   0.28996   0.00000  Uiso   1.00
H566   H     0.55535   0.88625   0.21018   0.00000  Uiso   1.00
N567   N     0.45069   0.83334   0.24999   0.00000  Uiso   1.00
N568   N     0.54931   0.83332   0.25001   0.00000  Uiso   1.00
O569   O     0.37291   0.77322   0.25000   0.00000  Uiso   1.00
O570   O     0.62709   0.89345   0.25000   0.00000  Uiso   1.00
O571   O     0.62706   0.77321   0.25000   0.00000  Uiso   1.00
O572   O     0.37294   0.89346   0.24999   0.00000  Uiso   1.00
O573   O     0.35186   0.83334   0.31491   0.00000  Uiso   1.00
O574   O     0.64814   0.83332   0.18508   0.00000  Uiso   1.00
O575   O     0.60600   0.83333   0.31492   0.00000  Uiso   1.00
O576   O     0.39400   0.83333   0.18508   0.00000  Uiso   1.00
C577   C     0.46262   0.80159   0.11390   0.00000  Uiso   1.00
O578   O     0.47313   0.76573   0.10422   0.00000  Uiso   1.00
O579   O     0.48455   0.82199   0.14207   0.00000  Uiso   1.00
H580   H     0.50867   0.80398   0.15195   0.00000  Uiso   1.00
C581   C     0.53688   0.86611   0.38671   0.00000  Uiso   1.00
O582   O     0.51969   0.84962   0.35983   0.00000  Uiso   1.00
O583   O     0.52124   0.90551   0.40206   0.00000  Uiso   1.00
H584   H     0.49535   0.91699   0.38884   0.00000  Uiso   1.00
C585   C     0.57142   0.96252   0.26937   0.00000  Uiso   1.00
O586   O     0.54335   0.97235   0.24808   0.00000  Uiso   1.00
O587   O     0.55617   0.93566   0.30476   0.00000  Uiso   1.00
H588   H     0.52190   0.92528   0.30823   0.00000  Uiso   1.00
C589   C     0.42844   0.70405   0.23051   0.00000  Uiso   1.00
O590   O     0.45657   0.69465   0.25191   0.00000  Uiso   1.00
O591   O     0.44370   0.73017   0.19447   0.00000  Uiso   1.00
H592   H     0.47844   0.73979   0.19005   0.00000  Uiso   1.00
C593   C     0.66750   0.75402   0.24867   0.00000  Uiso   1.00
C594   C     0.99913   0.91264   0.25141   0.00000  Uiso   1.00
C595   C     0.85979   0.85191   0.04366   0.00000  Uiso   1.00
C596   C     0.80663   0.81531   0.45617   0.00000  Uiso   1.00
C597   C     0.90902   0.85502   0.02097   0.00000  Uiso   1.00
C598   C     0.75743   0.81216   0.47892   0.00000  Uiso   1.00
C599   C     0.95697   0.68945   0.25562   0.00000  Uiso   1.00
C600   C     0.70954   0.97721   0.24475   0.00000  Uiso   1.00
C601   C     0.95421   0.98048   0.25863   0.00000  Uiso   1.00
C602   C     0.71229   0.68616   0.24167   0.00000  Uiso   1.00
C603   C     0.99800   0.95730   0.25253   0.00000  Uiso   1.00
C604   C     0.66853   0.70935   0.24776   0.00000  Uiso   1.00
C605   C     0.85161   0.80390   0.27208   0.00000  Uiso   1.00
C606   C     0.81496   0.86298   0.22825   0.00000  Uiso   1.00
C607   C     0.80196   0.80394   0.27211   0.00000  Uiso   1.00
C608   C     0.86467   0.86281   0.22802   0.00000  Uiso   1.00
C609   C     0.97206   0.83572   0.33568   0.00000  Uiso   1.00
C610   C     0.69457   0.83110   0.16430   0.00000  Uiso   1.00
C611   C     0.95520   0.84018   0.38392   0.00000  Uiso   1.00
C612   C     0.71128   0.82688   0.11602   0.00000  Uiso   1.00
C613   C     0.97442   0.84936   0.45306   0.00000  Uiso   1.00
C614   C     0.69206   0.81775   0.04688   0.00000  Uiso   1.00
C615   C     0.98975   0.84278   0.40780   0.00000  Uiso   1.00
C616   C     0.67673   0.82429   0.09215   0.00000  Uiso   1.00
C617   C     0.90459   0.84372   0.40664   0.00000  Uiso   1.00
C618   C     0.76184   0.82345   0.09333   0.00000  Uiso   1.00
C619   C     0.88981   0.83951   0.45280   0.00000  Uiso   1.00
C620   C     0.77670   0.82752   0.04712   0.00000  Uiso   1.00
C621   C     0.92471   0.84723   0.47587   0.00000  Uiso   1.00
C622   C     0.74178   0.81983   0.02406   0.00000  Uiso   1.00
C623   C     0.84069   0.83082   0.47682   0.00000  Uiso   1.00
C624   C     0.82582   0.83617   0.02308   0.00000  Uiso   1.00
Cu625  Cu    0.71355   0.83334   0.25000   0.00000  Uiso   1.00
Cu626  Cu    0.95311   0.83333   0.25000   0.00000  Uiso   1.00
H627   H     0.93452   0.86495   0.03851   0.00000  Uiso   1.00
H628   H     0.73187   0.80240   0.46137   0.00000  Uiso   1.00
H629   H     0.97120   0.82477   0.10876   0.00000  Uiso   1.00
H630   H     0.69529   0.84226   0.39121   0.00000  Uiso   1.00
H631   H     0.66812   0.85568   0.47020   0.00000  Uiso   1.00
H632   H     0.99835   0.81149   0.02973   0.00000  Uiso   1.00
H633   H     0.84871   0.86243   0.07731   0.00000  Uiso   1.00
H634   H     0.81757   0.80525   0.42231   0.00000  Uiso   1.00
H635   H     0.92320   0.70700   0.26094   0.00000  Uiso   1.00
H636   H     0.74332   0.95967   0.23941   0.00000  Uiso   1.00
H637   H     0.86501   0.78044   0.28997   0.00000  Uiso   1.00
H638   H     0.80151   0.88655   0.21053   0.00000  Uiso   1.00
H639   H     0.77794   0.78051   0.28996   0.00000  Uiso   1.00
H640   H     0.88868   0.88625   0.21018   0.00000  Uiso   1.00
N641   N     0.78403   0.83334   0.24999   0.00000  Uiso   1.00
N642   N     0.88264   0.83332   0.25001   0.00000  Uiso   1.00
O643   O     0.70625   0.77322   0.25000   0.00000  Uiso   1.00
O644   O     0.96042   0.89345   0.25000   0.00000  Uiso   1.00
O645   O     0.96039   0.77321   0.25000   0.00000  Uiso   1.00
O646   O     0.70628   0.89346   0.24999   0.00000  Uiso   1.00
O647   O     0.68519   0.83334   0.31491   0.00000  Uiso   1.00
O648   O     0.98148   0.83332   0.18508   0.00000  Uiso   1.00
O649   O     0.93933   0.83333   0.31492   0.00000  Uiso   1.00
O650   O     0.72733   0.83333   0.18508   0.00000  Uiso   1.00
C651   C     0.79595   0.80159   0.11390   0.00000  Uiso   1.00
O652   O     0.80646   0.76573   0.10422   0.00000  Uiso   1.00
O653   O     0.81789   0.82199   0.14207   0.00000  Uiso   1.00
H654   H     0.84200   0.80398   0.15195   0.00000  Uiso   1.00
C655   C     0.87021   0.86611   0.38671   0.00000  Uiso   1.00
O656   O     0.85302   0.84962   0.35983   0.00000  Uiso   1.00
O657   O     0.85458   0.90551   0.40206   0.00000  Uiso   1.00
H658   H     0.82869   0.91699   0.38884   0.00000  Uiso   1.00
C659   C     0.90475   0.96252   0.26937   0.00000  Uiso   1.00
O660   O     0.87669   0.97235   0.24808   0.00000  Uiso   1.00
O661   O     0.88951   0.93566   0.30476   0.00000  Uiso   1.00
H662   H     0.85523   0.92528   0.30823   0.00000  Uiso   1.00
C663   C     0.76178   0.70405   0.23051   0.00000  Uiso   1.00
O664   O     0.78990   0.69465   0.25191   0.00000  Uiso   1.00
O665   O     0.77704   0.73017   0.19447   0.00000  Uiso   1.00
H666   H     0.81178   0.73979   0.19005   0.00000  Uiso   1.00
C667   C     0.00083   0.08735   0.74867   0.00000  Uiso   1.00
C668   C     0.33246   0.24598   0.75141   0.00000  Uiso   1.00
C669   C     0.19313   0.18524   0.54366   0.00000  Uiso   1.00
C670   C     0.13997   0.14864   0.95617   0.00000  Uiso   1.00
C671   C     0.24235   0.18835   0.52097   0.00000  Uiso   1.00
C672   C     0.09076   0.14550   0.97892   0.00000  Uiso   1.00
C673   C     0.29030   0.02279   0.75562   0.00000  Uiso   1.00
C674   C     0.04287   0.31054   0.74475   0.00000  Uiso   1.00
C675   C     0.28755   0.31382   0.75863   0.00000  Uiso   1.00
C676   C     0.04562   0.01949   0.74167   0.00000  Uiso   1.00
C677   C     0.33133   0.29063   0.75253   0.00000  Uiso   1.00
C678   C     0.00187   0.04269   0.74776   0.00000  Uiso   1.00
C679   C     0.18494   0.13723   0.77208   0.00000  Uiso   1.00
C680   C     0.14829   0.19631   0.72825   0.00000  Uiso   1.00
C681   C     0.13529   0.13728   0.77211   0.00000  Uiso   1.00
C682   C     0.19800   0.19614   0.72802   0.00000  Uiso   1.00
C683   C     0.30539   0.16906   0.83568   0.00000  Uiso   1.00
C684   C     0.02790   0.16444   0.66430   0.00000  Uiso   1.00
C685   C     0.28854   0.17352   0.88392   0.00000  Uiso   1.00
C686   C     0.04462   0.16021   0.61602   0.00000  Uiso   1.00
C687   C     0.30775   0.18270   0.95306   0.00000  Uiso   1.00
C688   C     0.02539   0.15108   0.54688   0.00000  Uiso   1.00
C689   C     0.32308   0.17611   0.90780   0.00000  Uiso   1.00
C690   C     0.01006   0.15762   0.59215   0.00000  Uiso   1.00
C691   C     0.23792   0.17705   0.90664   0.00000  Uiso   1.00
C692   C     0.09518   0.15678   0.59333   0.00000  Uiso   1.00
C693   C     0.22315   0.17284   0.95280   0.00000  Uiso   1.00
C694   C     0.11003   0.16085   0.54712   0.00000  Uiso   1.00
C695   C     0.25804   0.18056   0.97587   0.00000  Uiso   1.00
C696   C     0.07512   0.15317   0.52406   0.00000  Uiso   1.00
C697   C     0.17402   0.16415   0.97682   0.00000  Uiso   1.00
C698   C     0.15915   0.16950   0.52308   0.00000  Uiso   1.00
Cu699  Cu    0.04689   0.16667   0.75000   0.00000  Uiso   1.00
Cu700  Cu    0.28645   0.16666   0.75000   0.00000  Uiso   1.00
H701   H     0.26785   0.19828   0.53851   0.00000  Uiso   1.00
H702   H     0.06520   0.13573   0.96137   0.00000  Uiso   1.00
H703   H     0.30453   0.15810   0.60876   0.00000  Uiso   1.00
H704   H     0.02862   0.17559   0.89121   0.00000  Uiso   1.00
H705   H     0.00145   0.18901   0.97020   0.00000  Uiso   1.00
H706   H     0.33168   0.14482   0.52973   0.00000  Uiso   1.00
H707   H     0.18205   0.19576   0.57731   0.00000  Uiso   1.00
H708   H     0.15090   0.13858   0.92231   0.00000  Uiso   1.00
H709   H     0.25654   0.04034   0.76094   0.00000  Uiso   1.00
H710   H     0.07665   0.29301   0.73941   0.00000  Uiso   1.00
H711   H     0.19835   0.11378   0.78997   0.00000  Uiso   1.00
H712   H     0.13485   0.21988   0.71053   0.00000  Uiso   1.00
H713   H     0.11127   0.11384   0.78996   0.00000  Uiso   1.00
H714   H     0.22202   0.21958   0.71018   0.00000  Uiso   1.00
N715   N     0.11736   0.16668   0.74999   0.00000  Uiso   1.00
N716   N     0.21597   0.16666   0.75001   0.00000  Uiso   1.00
O717   O     0.03958   0.10655   0.75000   0.00000  Uiso   1.00
O718   O     0.29375   0.22678   0.75000   0.00000  Uiso   1.00
O719   O     0.29372   0.10654   0.75000   0.00000  Uiso   1.00
O720   O     0.03961   0.22679   0.74999   0.00000  Uiso   1.00
O721   O     0.01852   0.16668   0.81491   0.00000  Uiso   1.00
O722   O     0.31481   0.16666   0.68508   0.00000  Uiso   1.00
O723   O     0.27267   0.16667   0.81492   0.00000  Uiso   1.00
O724   O     0.06067   0.16667   0.68508   0.00000  Uiso   1.00
C725   C     0.12929   0.13492   0.61390   0.00000  Uiso   1.00
O726   O     0.13979   0.09907   0.60422   0.00000  Uiso   1.00
O727   O     0.15122   0.15532   0.64207   0.00000  Uiso   1.00
H728   H     0.17534   0.13731   0.65195   0.00000  Uiso   1.00
C729   C     0.20354   0.19944   0.88671   0.00000  Uiso   1.00
O730   O     0.18635   0.18296   0.85983   0.00000  Uiso   1.00
O731   O     0.18791   0.23885   0.90206   0.00000  Uiso   1.00
H732   H     0.16202   0.25033   0.88884   0.00000  Uiso   1.00
C733   C     0.23808   0.29586   0.76937   0.00000  Uiso   1.00
O734   O     0.21002   0.30568   0.74808   0.00000  Uiso   1.00
O735   O     0.22284   0.26900   0.80476   0.00000  Uiso   1.00
H736   H     0.18857   0.25862   0.80823   0.00000  Uiso   1.00
C737   C     0.09511   0.03738   0.73051   0.00000  Uiso   1.00
O738   O     0.12324   0.02799   0.75191   0.00000  Uiso   1.00
O739   O     0.11037   0.06350   0.69447   0.00000  Uiso   1.00
H740   H     0.14511   0.07312   0.69005   0.00000  Uiso   1.00
C741   C     0.33417   0.08735   0.74867   0.00000  Uiso   1.00
C742   C     0.66580   0.24598   0.75141   0.00000  Uiso   1.00
C743   C     0.52646   0.18524   0.54366   0.00000  Uiso   1.00
C744   C     0.47330   0.14864   0.95617   0.00000  Uiso   1.00
C745   C     0.57568   0.18835   0.52097   0.00000  Uiso   1.00
C746   C     0.42409   0.14550   0.97892   0.00000  Uiso   1.00
C747   C     0.62364   0.02279   0.75562   0.00000  Uiso   1.00
C748   C     0.37621   0.31054   0.74475   0.00000  Uiso   1.00
C749   C     0.62088   0.31382   0.75863   0.00000  Uiso   1.00
C750   C     0.37896   0.01949   0.74167   0.00000  Uiso   1.00
C751   C     0.66467   0.29063   0.75253   0.00000  Uiso   1.00
C752   C     0.33520   0.04269   0.74776   0.00000  Uiso   1.00
C753   C     0.51828   0.13723   0.77208   0.00000  Uiso   1.00
C754   C     0.48162   0.19631   0.72825   0.00000  Uiso   1.00
C755   C     0.46862   0.13728   0.77211   0.00000  Uiso   1.00
C756   C     0.53134   0.19614   0.72802   0.00000  Uiso   1.00
C757   C     0.63873   0.16906   0.83568   0.00000  Uiso   1.00
C758   C     0.36123   0.16444   0.66430   0.00000  Uiso   1.00
C759   C     0.62187   0.17352   0.88392   0.00000  Uiso   1.00
C760   C     0.37795   0.16021   0.61602   0.00000  Uiso   1.00
C761   C     0.64109   0.18270   0.95306   0.00000  Uiso   1.00
C762   C     0.35873   0.15108   0.54688   0.00000  Uiso   1.00
C763   C     0.65641   0.17611   0.90780   0.00000  Uiso   1.00
C764   C     0.34340   0.15762   0.59215   0.00000  Uiso   1.00
C765   C     0.57125   0.17705   0.90664   0.00000  Uiso   1.00
C766   C     0.42851   0.15678   0.59333   0.00000  Uiso   1.00
C767   C     0.55648   0.17284   0.95280   0.00000  Uiso   1.00
C768   C     0.44337   0.16085   0.54712   0.00000  Uiso   1.00
C769   C     0.59138   0.18056   0.97587   0.00000  Uiso   1.00
C770   C     0.40845   0.15317   0.52406   0.00000  Uiso   1.00
C771   C     0.50735   0.16415   0.97682   0.00000  Uiso   1.00
C772   C     0.49248   0.16950   0.52308   0.00000  Uiso   1.00
Cu773  Cu    0.38022   0.16667   0.75000   0.00000  Uiso   1.00
Cu774  Cu    0.61978   0.16666   0.75000   0.00000  Uiso   1.00
H775   H     0.60119   0.19828   0.53851   0.00000  Uiso   1.00
H776   H     0.39853   0.13573   0.96137   0.00000  Uiso   1.00
H777   H     0.63786   0.15810   0.60876   0.00000  Uiso   1.00
H778   H     0.36195   0.17559   0.89121   0.00000  Uiso   1.00
H779   H     0.33479   0.18901   0.97020   0.00000  Uiso   1.00
H780   H     0.66501   0.14482   0.52973   0.00000  Uiso   1.00
H781   H     0.51538   0.19576   0.57731   0.00000  Uiso   1.00
H782   H     0.48424   0.13858   0.92231   0.00000  Uiso   1.00
H783   H     0.58987   0.04034   0.76094   0.00000  Uiso   1.00
H784   H     0.40999   0.29301   0.73941   0.00000  Uiso   1.00
H785   H     0.53168   0.11378   0.78997   0.00000  Uiso   1.00
H786   H     0.46818   0.21988   0.71053   0.00000  Uiso   1.00
H787   H     0.44461   0.11384   0.78996   0.00000  Uiso   1.00
H788   H     0.55535   0.21958   0.71018   0.00000  Uiso   1.00
N789   N     0.45069   0.16668   0.74999   0.00000  Uiso   1.00
N790   N     0.54931   0.16666   0.75001   0.00000  Uiso   1.00
O791   O     0.37291   0.10655   0.75000   0.00000  Uiso   1.00
O792   O     0.62709   0.22678   0.75000   0.00000  Uiso   1.00
O793   O     0.62706   0.10654   0.75000   0.00000  Uiso   1.00
O794   O     0.37294   0.22679   0.74999   0.00000  Uiso   1.00
O795   O     0.35186   0.16668   0.81491   0.00000  Uiso   1.00
O796   O     0.64814   0.16666   0.68508   0.00000  Uiso   1.00
O797   O     0.60600   0.16667   0.81492   0.00000  Uiso   1.00
O798   O     0.39400   0.16667   0.68508   0.00000  Uiso   1.00
C799   C     0.46262   0.13492   0.61390   0.00000  Uiso   1.00
O800   O     0.47313   0.09907   0.60422   0.00000  Uiso   1.00
O801   O     0.48455   0.15532   0.64207   0.00000  Uiso   1.00
H802   H     0.50867   0.13731   0.65195   0.00000  Uiso   1.00
C803   C     0.53688   0.19944   0.88671   0.00000  Uiso   1.00
O804   O     0.51969   0.18296   0.85983   0.00000  Uiso   1.00
O805   O     0.52124   0.23885   0.90206   0.00000  Uiso   1.00
H806   H     0.49535   0.25033   0.88884   0.00000  Uiso   1.00
C807   C     0.57142   0.29586   0.76937   0.00000  Uiso   1.00
O808   O     0.54335   0.30568   0.74808   0.00000  Uiso   1.00
O809   O     0.55617   0.26900   0.80476   0.00000  Uiso   1.00
H810   H     0.52190   0.25862   0.80823   0.00000  Uiso   1.00
C811   C     0.42844   0.03738   0.73051   0.00000  Uiso   1.00
O812   O     0.45657   0.02799   0.75191   0.00000  Uiso   1.00
O813   O     0.44370   0.06350   0.69447   0.00000  Uiso   1.00
H814   H     0.47844   0.07312   0.69005   0.00000  Uiso   1.00
C815   C     0.66750   0.08735   0.74867   0.00000  Uiso   1.00
C816   C     0.99913   0.24598   0.75141   0.00000  Uiso   1.00
C817   C     0.85979   0.18524   0.54366   0.00000  Uiso   1.00
C818   C     0.80663   0.14864   0.95617   0.00000  Uiso   1.00
C819   C     0.90902   0.18835   0.52097   0.00000  Uiso   1.00
C820   C     0.75743   0.14550   0.97892   0.00000  Uiso   1.00
C821   C     0.95697   0.02279   0.75562   0.00000  Uiso   1.00
C822   C     0.70954   0.31054   0.74475   0.00000  Uiso   1.00
C823   C     0.95421   0.31382   0.75863   0.00000  Uiso   1.00
C824   C     0.71229   0.01949   0.74167   0.00000  Uiso   1.00
C825   C     0.99800   0.29063   0.75253   0.00000  Uiso   1.00
C826   C     0.66853   0.04269   0.74776   0.00000  Uiso   1.00
C827   C     0.85161   0.13723   0.77208   0.00000  Uiso   1.00
C828   C     0.81496   0.19631   0.72825   0.00000  Uiso   1.00
C829   C     0.80196   0.13728   0.77211   0.00000  Uiso   1.00
C830   C     0.86467   0.19614   0.72802   0.00000  Uiso   1.00
C831   C     0.97206   0.16906   0.83568   0.00000  Uiso   1.00
C832   C     0.69457   0.16444   0.66430   0.00000  Uiso   1.00
C833   C     0.95520   0.17352   0.88392   0.00000  Uiso   1.00
C834   C     0.71128   0.16021   0.61602   0.00000  Uiso   1.00
C835   C     0.97442   0.18270   0.95306   0.00000  Uiso   1.00
C836   C     0.69206   0.15108   0.54688   0.00000  Uiso   1.00
C837   C     0.98975   0.17611   0.90780   0.00000  Uiso   1.00
C838   C     0.67673   0.15762   0.59215   0.00000  Uiso   1.00
C839   C     0.90459   0.17705   0.90664   0.00000  Uiso   1.00
C840   C     0.76184   0.15678   0.59333   0.00000  Uiso   1.00
C841   C     0.88981   0.17284   0.95280   0.00000  Uiso   1.00
C842   C     0.77670   0.16085   0.54712   0.00000  Uiso   1.00
C843   C     0.92471   0.18056   0.97587   0.00000  Uiso   1.00
C844   C     0.74178   0.15317   0.52406   0.00000  Uiso   1.00
C845   C     0.84069   0.16415   0.97682   0.00000  Uiso   1.00
C846   C     0.82582   0.16950   0.52308   0.00000  Uiso   1.00
Cu847  Cu    0.71355   0.16667   0.75000   0.00000  Uiso   1.00
Cu848  Cu    0.95311   0.16666   0.75000   0.00000  Uiso   1.00
H849   H     0.93452   0.19828   0.53851   0.00000  Uiso   1.00
H850   H     0.73187   0.13573   0.96137   0.00000  Uiso   1.00
H851   H     0.97120   0.15810   0.60876   0.00000  Uiso   1.00
H852   H     0.69529   0.17559   0.89121   0.00000  Uiso   1.00
H853   H     0.66812   0.18901   0.97020   0.00000  Uiso   1.00
H854   H     0.99835   0.14482   0.52973   0.00000  Uiso   1.00
H855   H     0.84871   0.19576   0.57731   0.00000  Uiso   1.00
H856   H     0.81757   0.13858   0.92231   0.00000  Uiso   1.00
H857   H     0.92320   0.04034   0.76094   0.00000  Uiso   1.00
H858   H     0.74332   0.29301   0.73941   0.00000  Uiso   1.00
H859   H     0.86501   0.11378   0.78997   0.00000  Uiso   1.00
H860   H     0.80151   0.21988   0.71053   0.00000  Uiso   1.00
H861   H     0.77794   0.11384   0.78996   0.00000  Uiso   1.00
H862   H     0.88868   0.21958   0.71018   0.00000  Uiso   1.00
N863   N     0.78403   0.16668   0.74999   0.00000  Uiso   1.00
N864   N     0.88264   0.16666   0.75001   0.00000  Uiso   1.00
O865   O     0.70625   0.10655   0.75000   0.00000  Uiso   1.00
O866   O     0.96042   0.22678   0.75000   0.00000  Uiso   1.00
O867   O     0.96039   0.10654   0.75000   0.00000  Uiso   1.00
O868   O     0.70628   0.22679   0.74999   0.00000  Uiso   1.00
O869   O     0.68519   0.16668   0.81491   0.00000  Uiso   1.00
O870   O     0.98148   0.16666   0.68508   0.00000  Uiso   1.00
O871   O     0.93933   0.16667   0.81492   0.00000  Uiso   1.00
O872   O     0.72733   0.16667   0.68508   0.00000  Uiso   1.00
C873   C     0.79595   0.13492   0.61390   0.00000  Uiso   1.00
O874   O     0.80646   0.09907   0.60422   0.00000  Uiso   1.00
O875   O     0.81789   0.15532   0.64207   0.00000  Uiso   1.00
H876   H     0.84200   0.13731   0.65195   0.00000  Uiso   1.00
C877   C     0.87021   0.19944   0.88671   0.00000  Uiso   1.00
O878   O     0.85302   0.18296   0.85983   0.00000  Uiso   1.00
O879   O     0.85458   0.23885   0.90206   0.00000  Uiso   1.00
H880   H     0.82869   0.25033   0.88884   0.00000  Uiso   1.00
C881   C     0.90475   0.29586   0.76937   0.00000  Uiso   1.00
O882   O     0.87669   0.30568   0.74808   0.00000  Uiso   1.00
O883   O     0.88951   0.26900   0.80476   0.00000  Uiso   1.00
H884   H     0.85523   0.25862   0.80823   0.00000  Uiso   1.00
C885   C     0.76178   0.03738   0.73051   0.00000  Uiso   1.00
O886   O     0.78990   0.02799   0.75191   0.00000  Uiso   1.00
O887   O     0.77704   0.06350   0.69447   0.00000  Uiso   1.00
H888   H     0.81178   0.07312   0.69005   0.00000  Uiso   1.00
C889   C     0.00083   0.42068   0.74867   0.00000  Uiso   1.00
C890   C     0.33246   0.57931   0.75141   0.00000  Uiso   1.00
C891   C     0.19313   0.51858   0.54366   0.00000  Uiso   1.00
C892   C     0.13997   0.48197   0.95617   0.00000  Uiso   1.00
C893   C     0.24235   0.52168   0.52097   0.00000  Uiso   1.00
C894   C     0.09076   0.47883   0.97892   0.00000  Uiso   1.00
C895   C     0.29030   0.35612   0.75562   0.00000  Uiso   1.00
C896   C     0.04287   0.64388   0.74475   0.00000  Uiso   1.00
C897   C     0.28755   0.64715   0.75863   0.00000  Uiso   1.00
C898   C     0.04562   0.35283   0.74167   0.00000  Uiso   1.00
C899   C     0.33133   0.62397   0.75253   0.00000  Uiso   1.00
C900   C     0.00187   0.37602   0.74776   0.00000  Uiso   1.00
C901   C     0.18494   0.47057   0.77208   0.00000  Uiso   1.00
C902   C     0.14829   0.52965   0.72825   0.00000  Uiso   1.00
C903   C     0.13529   0.47061   0.77211   0.00000  Uiso   1.00
C904   C     0.19800   0.52947   0.72802   0.00000  Uiso   1.00
C905   C     0.30539   0.50239   0.83568   0.00000  Uiso   1.00
C906   C     0.02790   0.49777   0.66430   0.00000  Uiso   1.00
C907   C     0.28854   0.50685   0.88392   0.00000  Uiso   1.00
C908   C     0.04462   0.49354   0.61602   0.00000  Uiso   1.00
C909   C     0.30775   0.51603   0.95306   0.00000  Uiso   1.00
C910   C     0.02539   0.48441   0.54688   0.00000  Uiso   1.00
C911   C     0.32308   0.50944   0.90780   0.00000  Uiso   1.00
C912   C     0.01006   0.49096   0.59215   0.00000  Uiso   1.00
C913   C     0.23792   0.51038   0.90664   0.00000  Uiso   1.00
C914   C     0.09518   0.49011   0.59333   0.00000  Uiso   1.00
C915   C     0.22315   0.50618   0.95280   0.00000  Uiso   1.00
C916   C     0.11003   0.49418   0.54712   0.00000  Uiso   1.00
C917   C     0.25804   0.51390   0.97587   0.00000  Uiso   1.00
C918   C     0.07512   0.48650   0.52406   0.00000  Uiso   1.00
C919   C     0.17402   0.49749   0.97682   0.00000  Uiso   1.00
C920   C     0.15915   0.50284   0.52308   0.00000  Uiso   1.00
Cu921  Cu    0.04689   0.50001   0.75000   0.00000  Uiso   1.00
Cu922  Cu    0.28645   0.49999   0.75000   0.00000  Uiso   1.00
H923   H     0.26785   0.53162   0.53851   0.00000  Uiso   1.00
H924   H     0.06520   0.46907   0.96137   0.00000  Uiso   1.00
H925   H     0.30453   0.49144   0.60876   0.00000  Uiso   1.00
H926   H     0.02862   0.50892   0.89121   0.00000  Uiso   1.00
H927   H     0.00145   0.52234   0.97020   0.00000  Uiso   1.00
H928   H     0.33168   0.47816   0.52973   0.00000  Uiso   1.00
H929   H     0.18205   0.52910   0.57731   0.00000  Uiso   1.00
H930   H     0.15090   0.47192   0.92231   0.00000  Uiso   1.00
H931   H     0.25654   0.37367   0.76094   0.00000  Uiso   1.00
H932   H     0.07665   0.62634   0.73941   0.00000  Uiso   1.00
H933   H     0.19835   0.44711   0.78997   0.00000  Uiso   1.00
H934   H     0.13485   0.55322   0.71053   0.00000  Uiso   1.00
H935   H     0.11127   0.44718   0.78996   0.00000  Uiso   1.00
H936   H     0.22202   0.55291   0.71018   0.00000  Uiso   1.00
N937   N     0.11736   0.50001   0.74999   0.00000  Uiso   1.00
N938   N     0.21597   0.49999   0.75001   0.00000  Uiso   1.00
O939   O     0.03958   0.43989   0.75000   0.00000  Uiso   1.00
O940   O     0.29375   0.56011   0.75000   0.00000  Uiso   1.00
O941   O     0.29372   0.43988   0.75000   0.00000  Uiso   1.00
O942   O     0.03961   0.56012   0.74999   0.00000  Uiso   1.00
O943   O     0.01852   0.50001   0.81491   0.00000  Uiso   1.00
O944   O     0.31481   0.49999   0.68508   0.00000  Uiso   1.00
O945   O     0.27267   0.50000   0.81492   0.00000  Uiso   1.00
O946   O     0.06067   0.50000   0.68508   0.00000  Uiso   1.00
C947   C     0.12929   0.46826   0.61390   0.00000  Uiso   1.00
O948   O     0.13979   0.43240   0.60422   0.00000  Uiso   1.00
O949   O     0.15122   0.48866   0.64207   0.00000  Uiso   1.00
H950   H     0.17534   0.47065   0.65195   0.00000  Uiso   1.00
C951   C     0.20354   0.53277   0.88671   0.00000  Uiso   1.00
O952   O     0.18635   0.51629   0.85983   0.00000  Uiso   1.00
O953   O     0.18791   0.57218   0.90206   0.00000  Uiso   1.00
H954   H     0.16202   0.58366   0.88884   0.00000  Uiso   1.00
C955   C     0.23808   0.62919   0.76937   0.00000  Uiso   1.00
O956   O     0.21002   0.63902   0.74808   0.00000  Uiso   1.00
O957   O     0.22284   0.60233   0.80476   0.00000  Uiso   1.00
H958   H     0.18857   0.59195   0.80823   0.00000  Uiso   1.00
C959   C     0.09511   0.37072   0.73051   0.00000  Uiso   1.00
O960   O     0.12324   0.36132   0.75191   0.00000  Uiso   1.00
O961   O     0.11037   0.39683   0.69447   0.00000  Uiso   1.00
H962   H     0.14511   0.40646   0.69005   0.00000  Uiso   1.00
C963   C     0.33417   0.42068   0.74867   0.00000  Uiso   1.00
C964   C     0.66580   0.57931   0.75141   0.00000  Uiso   1.00
C965   C     0.52646   0.51858   0.54366   0.00000  Uiso   1.00
C966   C     0.47330   0.48197   0.95617   0.00000  Uiso   1.00
C967   C     0.57568   0.52168   0.52097   0.00000  Uiso   1.00
C968   C     0.42409   0.47883   0.97892   0.00000  Uiso   1.00
C969   C     0.62364   0.35612   0.75562   0.00000  Uiso   1.00
C970   C     0.37621   0.64388   0.74475   0.00000  Uiso   1.00
C971   C     0.62088   0.64715   0.75863   0.00000  Uiso   1.00
C972   C     0.37896   0.35283   0.74167   0.00000  Uiso   1.00
C973   C     0.66467   0.62397   0.75253   0.00000  Uiso   1.00
C974   C     0.33520   0.37602   0.74776   0.00000  Uiso   1.00
C975   C     0.51828   0.47057   0.77208   0.00000  Uiso   1.00
C976   C     0.48162   0.52965   0.72825   0.00000  Uiso   1.00
C977   C     0.46862   0.47061   0.77211   0.00000  Uiso   1.00
C978   C     0.53134   0.52947   0.72802   0.00000  Uiso   1.00
C979   C     0.63873   0.50239   0.83568   0.00000  Uiso   1.00
C980   C     0.36123   0.49777   0.66430   0.00000  Uiso   1.00
C981   C     0.62187   0.50685   0.88392   0.00000  Uiso   1.00
C982   C     0.37795   0.49354   0.61602   0.00000  Uiso   1.00
C983   C     0.64109   0.51603   0.95306   0.00000  Uiso   1.00
C984   C     0.35873   0.48441   0.54688   0.00000  Uiso   1.00
C985   C     0.65641   0.50944   0.90780   0.00000  Uiso   1.00
C986   C     0.34340   0.49096   0.59215   0.00000  Uiso   1.00
C987   C     0.57125   0.51038   0.90664   0.00000  Uiso   1.00
C988   C     0.42851   0.49011   0.59333   0.00000  Uiso   1.00
C989   C     0.55648   0.50618   0.95280   0.00000  Uiso   1.00
C990   C     0.44337   0.49418   0.54712   0.00000  Uiso   1.00
C991   C     0.59138   0.51390   0.97587   0.00000  Uiso   1.00
C992   C     0.40845   0.48650   0.52406   0.00000  Uiso   1.00
C993   C     0.50735   0.49749   0.97682   0.00000  Uiso   1.00
C994   C     0.49248   0.50284   0.52308   0.00000  Uiso   1.00
Cu995  Cu    0.38022   0.50001   0.75000   0.00000  Uiso   1.00
Cu996  Cu    0.61978   0.49999   0.75000   0.00000  Uiso   1.00
H997   H     0.60119   0.53162   0.53851   0.00000  Uiso   1.00
H998   H     0.39853   0.46907   0.96137   0.00000  Uiso   1.00
H999   H     0.63786   0.49144   0.60876   0.00000  Uiso   1.00
H1000  H     0.36195   0.50892   0.89121   0.00000  Uiso   1.00
H1001  H     0.33479   0.52234   0.97020   0.00000  Uiso   1.00
H1002  H     0.66501   0.47816   0.52973   0.00000  Uiso   1.00
H1003  H     0.51538   0.52910   0.57731   0.00000  Uiso   1.00
H1004  H     0.48424   0.47192   0.92231   0.00000  Uiso   1.00
H1005  H     0.58987   0.37367   0.76094   0.00000  Uiso   1.00
H1006  H     0.40999   0.62634   0.73941   0.00000  Uiso   1.00
H1007  H     0.53168   0.44711   0.78997   0.00000  Uiso   1.00
H1008  H     0.46818   0.55322   0.71053   0.00000  Uiso   1.00
H1009  H     0.44461   0.44718   0.78996   0.00000  Uiso   1.00
H1010  H     0.55535   0.55291   0.71018   0.00000  Uiso   1.00
N1011  N     0.45069   0.50001   0.74999   0.00000  Uiso   1.00
N1012  N     0.54931   0.49999   0.75001   0.00000  Uiso   1.00
O1013  O     0.37291   0.43989   0.75000   0.00000  Uiso   1.00
O1014  O     0.62709   0.56011   0.75000   0.00000  Uiso   1.00
O1015  O     0.62706   0.43988   0.75000   0.00000  Uiso   1.00
O1016  O     0.37294   0.56012   0.74999   0.00000  Uiso   1.00
O1017  O     0.35186   0.50001   0.81491   0.00000  Uiso   1.00
O1018  O     0.64814   0.49999   0.68508   0.00000  Uiso   1.00
O1019  O     0.60600   0.50000   0.81492   0.00000  Uiso   1.00
O1020  O     0.39400   0.50000   0.68508   0.00000  Uiso   1.00
C1021  C     0.46262   0.46826   0.61390   0.00000  Uiso   1.00
O1022  O     0.47313   0.43240   0.60422   0.00000  Uiso   1.00
O1023  O     0.48455   0.48866   0.64207   0.00000  Uiso   1.00
H1024  H     0.50867   0.47065   0.65195   0.00000  Uiso   1.00
C1025  C     0.53688   0.53277   0.88671   0.00000  Uiso   1.00
O1026  O     0.51969   0.51629   0.85983   0.00000  Uiso   1.00
O1027  O     0.52124   0.57218   0.90206   0.00000  Uiso   1.00
H1028  H     0.49535   0.58366   0.88884   0.00000  Uiso   1.00
C1029  C     0.57142   0.62919   0.76937   0.00000  Uiso   1.00
O1030  O     0.54335   0.63902   0.74808   0.00000  Uiso   1.00
O1031  O     0.55617   0.60233   0.80476   0.00000  Uiso   1.00
H1032  H     0.52190   0.59195   0.80823   0.00000  Uiso   1.00
C1033  C     0.42844   0.37072   0.73051   0.00000  Uiso   1.00
O1034  O     0.45657   0.36132   0.75191   0.00000  Uiso   1.00
O1035  O     0.44370   0.39683   0.69447   0.00000  Uiso   1.00
H1036  H     0.47844   0.40646   0.69005   0.00000  Uiso   1.00
C1037  C     0.66750   0.42068   0.74867   0.00000  Uiso   1.00
C1038  C     0.99913   0.57931   0.75141   0.00000  Uiso   1.00
C1039  C     0.85979   0.51858   0.54366   0.00000  Uiso   1.00
C1040  C     0.80663   0.48197   0.95617   0.00000  Uiso   1.00
C1041  C     0.90902   0.52168   0.52097   0.00000  Uiso   1.00
C1042  C     0.75743   0.47883   0.97892   0.00000  Uiso   1.00
C1043  C     0.95697   0.35612   0.75562   0.00000  Uiso   1.00
C1044  C     0.70954   0.64388   0.74475   0.00000  Uiso   1.00
C1045  C     0.95421   0.64715   0.75863   0.00000  Uiso   1.00
C1046  C     0.71229   0.35283   0.74167   0.00000  Uiso   1.00
C1047  C     0.99800   0.62397   0.75253   0.00000  Uiso   1.00
C1048  C     0.66853   0.37602   0.74776   0.00000  Uiso   1.00
C1049  C     0.85161   0.47057   0.77208   0.00000  Uiso   1.00
C1050  C     0.81496   0.52965   0.72825   0.00000  Uiso   1.00
C1051  C     0.80196   0.47061   0.77211   0.00000  Uiso   1.00
C1052  C     0.86467   0.52947   0.72802   0.00000  Uiso   1.00
C1053  C     0.97206   0.50239   0.83568   0.00000  Uiso   1.00
C1054  C     0.69457   0.49777   0.66430   0.00000  Uiso   1.00
C1055  C     0.95520   0.50685   0.88392   0.00000  Uiso   1.00
C1056  C     0.71128   0.49354   0.61602   0.00000  Uiso   1.00
C1057  C     0.97442   0.51603   0.95306   0.00000  Uiso   1.00
C1058  C     0.69206   0.48441   0.54688   0.00000  Uiso   1.00
C1059  C     0.98975   0.50944   0.90780   0.00000  Uiso   1.00
C1060  C     0.67673   0.49096   0.59215   0.00000  Uiso   1.00
C1061  C     0.90459   0.51038   0.90664   0.00000  Uiso   1.00
C1062  C     0.76184   0.49011   0.59333   0.00000  Uiso   1.00
C1063  C     0.88981   0.50618   0.95280   0.00000  Uiso   1.00
C1064  C     0.77670   0.49418   0.54712   0.00000  Uiso   1.00
C1065  C     0.92471   0.51390   0.97587   0.00000  Uiso   1.00
C1066  C     0.74178   0.48650   0.52406   0.00000  Uiso   1.00
C1067  C     0.84069   0.49749   0.97682   0.00000  Uiso   1.00
C1068  C     0.82582   0.50284   0.52308   0.00000  Uiso   1.00
Cu1069 Cu    0.71355   0.50001   0.75000   0.00000  Uiso   1.00
Cu1070 Cu    0.95311   0.49999   0.75000   0.00000  Uiso   1.00
H1071  H     0.93452   0.53162   0.53851   0.00000  Uiso   1.00
H1072  H     0.73187   0.46907   0.96137   0.00000  Uiso   1.00
H1073  H     0.97120   0.49144   0.60876   0.00000  Uiso   1.00
H1074  H     0.69529   0.50892   0.89121   0.00000  Uiso   1.00
H1075  H     0.66812   0.52234   0.97020   0.00000  Uiso   1.00
H1076  H     0.99835   0.47816   0.52973   0.00000  Uiso   1.00
H1077  H     0.84871   0.52910   0.57731   0.00000  Uiso   1.00
H1078  H     0.81757   0.47192   0.92231   0.00000  Uiso   1.00
H1079  H     0.92320   0.37367   0.76094   0.00000  Uiso   1.00
H1080  H     0.74332   0.62634   0.73941   0.00000  Uiso   1.00
H1081  H     0.86501   0.44711   0.78997   0.00000  Uiso   1.00
H1082  H     0.80151   0.55322   0.71053   0.00000  Uiso   1.00
H1083  H     0.77794   0.44718   0.78996   0.00000  Uiso   1.00
H1084  H     0.88868   0.55291   0.71018   0.00000  Uiso   1.00
N1085  N     0.78403   0.50001   0.74999   0.00000  Uiso   1.00
N1086  N     0.88264   0.49999   0.75001   0.00000  Uiso   1.00
O1087  O     0.70625   0.43989   0.75000   0.00000  Uiso   1.00
O1088  O     0.96042   0.56011   0.75000   0.00000  Uiso   1.00
O1089  O     0.96039   0.43988   0.75000   0.00000  Uiso   1.00
O1090  O     0.70628   0.56012   0.74999   0.00000  Uiso   1.00
O1091  O     0.68519   0.50001   0.81491   0.00000  Uiso   1.00
O1092  O     0.98148   0.49999   0.68508   0.00000  Uiso   1.00
O1093  O     0.93933   0.50000   0.81492   0.00000  Uiso   1.00
O1094  O     0.72733   0.50000   0.68508   0.00000  Uiso   1.00
C1095  C     0.79595   0.46826   0.61390   0.00000  Uiso   1.00
O1096  O     0.80646   0.43240   0.60422   0.00000  Uiso   1.00
O1097  O     0.81789   0.48866   0.64207   0.00000  Uiso   1.00
H1098  H     0.84200   0.47065   0.65195   0.00000  Uiso   1.00
C1099  C     0.87021   0.53277   0.88671   0.00000  Uiso   1.00
O1100  O     0.85302   0.51629   0.85983   0.00000  Uiso   1.00
O1101  O     0.85458   0.57218   0.90206   0.00000  Uiso   1.00
H1102  H     0.82869   0.58366   0.88884   0.00000  Uiso   1.00
C1103  C     0.90475   0.62919   0.76937   0.00000  Uiso   1.00
O1104  O     0.87669   0.63902   0.74808   0.00000  Uiso   1.00
O1105  O     0.88951   0.60233   0.80476   0.00000  Uiso   1.00
H1106  H     0.85523   0.59195   0.80823   0.00000  Uiso   1.00
C1107  C     0.76178   0.37072   0.73051   0.00000  Uiso   1.00
O1108  O     0.78990   0.36132   0.75191   0.00000  Uiso   1.00
O1109  O     0.77704   0.39683   0.69447   0.00000  Uiso   1.00
H1110  H     0.81178   0.40646   0.69005   0.00000  Uiso   1.00
C1111  C     0.00083   0.75402   0.74867   0.00000  Uiso   1.00
C1112  C     0.33246   0.91264   0.75141   0.00000  Uiso   1.00
C1113  C     0.19313   0.85191   0.54366   0.00000  Uiso   1.00
C1114  C     0.13997   0.81531   0.95617   0.00000  Uiso   1.00
C1115  C     0.24235   0.85502   0.52097   0.00000  Uiso   1.00
C1116  C     0.09076   0.81216   0.97892   0.00000  Uiso   1.00
C1117  C     0.29030   0.68945   0.75562   0.00000  Uiso   1.00
C1118  C     0.04287   0.97721   0.74475   0.00000  Uiso   1.00
C1119  C     0.28755   0.98048   0.75863   0.00000  Uiso   1.00
C1120  C     0.04562   0.68616   0.74167   0.00000  Uiso   1.00
C1121  C     0.33133   0.95730   0.75253   0.00000  Uiso   1.00
C1122  C     0.00187   0.70935   0.74776   0.00000  Uiso   1.00
C1123  C     0.18494   0.80390   0.77208   0.00000  Uiso   1.00
C1124  C     0.14829   0.86298   0.72825   0.00000  Uiso   1.00
C1125  C     0.13529   0.80394   0.77211   0.00000  Uiso   1.00
C1126  C     0.19800   0.86281   0.72802   0.00000  Uiso   1.00
C1127  C     0.30539   0.83572   0.83568   0.00000  Uiso   1.00
C1128  C     0.02790   0.83110   0.66430   0.00000  Uiso   1.00
C1129  C     0.28854   0.84018   0.88392   0.00000  Uiso   1.00
C1130  C     0.04462   0.82688   0.61602   0.00000  Uiso   1.00
C1131  C     0.30775   0.84936   0.95306   0.00000  Uiso   1.00
C1132  C     0.02539   0.81775   0.54688   0.00000  Uiso   1.00
C1133  C     0.32308   0.84278   0.90780   0.00000  Uiso   1.00
C1134  C     0.01006   0.82429   0.59215   0.00000  Uiso   1.00
C1135  C     0.23792   0.84372   0.90664   0.00000  Uiso   1.00
C1136  C     0.09518   0.82345   0.59333   0.00000  Uiso   1.00
C1137  C     0.22315   0.83951   0.95280   0.00000  Uiso   1.00
C1138  C     0.11003   0.82752   0.54712   0.00000  Uiso   1.00
C1139  C     0.25804   0.84723   0.97587   0.00000  Uiso   1.00
C1140  C     0.07512   0.81983   0.52406   0.00000  Uiso   1.00
C1141  C     0.17402   0.83082   0.97682   0.00000  Uiso   1.00
C1142  C     0.15915   0.83617   0.52308   0.00000  Uiso   1.00
Cu1143 Cu    0.04689   0.83334   0.75000   0.00000  Uiso   1.00
Cu1144 Cu    0.28645   0.83333   0.75000   0.00000  Uiso   1.00
H1145  H     0.26785   0.86495   0.53851   0.00000  Uiso   1.00
H1146  H     0.06520   0.80240   0.96137   0.00000  Uiso   1.00
H1147  H     0.30453   0.82477   0.60876   0.00000  Uiso   1.00
H1148  H     0.02862   0.84226   0.89121   0.00000  Uiso   1.00
H1149  H     0.00145   0.85568   0.97020   0.00000  Uiso   1.00
H1150  H     0.33168   0.81149   0.52973   0.00000  Uiso   1.00
H1151  H     0.18205   0.86243   0.57731   0.00000  Uiso   1.00
H1152  H     0.15090   0.80525   0.92231   0.00000  Uiso   1.00
H1153  H     0.25654   0.70700   0.76094   0.00000  Uiso   1.00
H1154  H     0.07665   0.95967   0.73941   0.00000  Uiso   1.00
H1155  H     0.19835   0.78044   0.78997   0.00000  Uiso   1.00
H1156  H     0.13485   0.88655   0.71053   0.00000  Uiso   1.00
H1157  H     0.11127   0.78051   0.78996   0.00000  Uiso   1.00
H1158  H     0.22202   0.88625   0.71018   0.00000  Uiso   1.00
N1159  N     0.11736   0.83334   0.74999   0.00000  Uiso   1.00
N1160  N     0.21597   0.83332   0.75001   0.00000  Uiso   1.00
O1161  O     0.03958   0.77322   0.75000   0.00000  Uiso   1.00
O1162  O     0.29375   0.89345   0.75000   0.00000  Uiso   1.00
O1163  O     0.29372   0.77321   0.75000   0.00000  Uiso   1.00
O1164  O     0.03961   0.89346   0.74999   0.00000  Uiso   1.00
O1165  O     0.01852   0.83334   0.81491   0.00000  Uiso   1.00
O1166  O     0.31481   0.83332   0.68508   0.00000  Uiso   1.00
O1167  O     0.27267   0.83333   0.81492   0.00000  Uiso   1.00
O1168  O     0.06067   0.83333   0.68508   0.00000  Uiso   1.00
C1169  C     0.12929   0.80159   0.61390   0.00000  Uiso   1.00
O1170  O     0.13979   0.76573   0.60422   0.00000  Uiso   1.00
O1171  O     0.15122   0.82199   0.64207   0.00000  Uiso   1.00
H1172  H     0.17534   0.80398   0.65195   0.00000  Uiso   1.00
C1173  C     0.20354   0.86611   0.88671   0.00000  Uiso   1.00
O1174  O     0.18635   0.84962   0.85983   0.00000  Uiso   1.00
O1175  O     0.18791   0.90551   0.90206   0.00000  Uiso   1.00
H1176  H     0.16202   0.91699   0.88884   0.00000  Uiso   1.00
C1177  C     0.23808   0.96252   0.76937   0.00000  Uiso   1.00
O1178  O     0.21002   0.97235   0.74808   0.00000  Uiso   1.00
O1179  O     0.22284   0.93566   0.80476   0.00000  Uiso   1.00
H1180  H     0.18857   0.92528   0.80823   0.00000  Uiso   1.00
C1181  C     0.09511   0.70405   0.73051   0.00000  Uiso   1.00
O1182  O     0.12324   0.69465   0.75191   0.00000  Uiso   1.00
O1183  O     0.11037   0.73017   0.69447   0.00000  Uiso   1.00
H1184  H     0.14511   0.73979   0.69005   0.00000  Uiso   1.00
C1185  C     0.33417   0.75402   0.74867   0.00000  Uiso   1.00
C1186  C     0.66580   0.91264   0.75141   0.00000  Uiso   1.00
C1187  C     0.52646   0.85191   0.54366   0.00000  Uiso   1.00
C1188  C     0.47330   0.81531   0.95617   0.00000  Uiso   1.00
C1189  C     0.57568   0.85502   0.52097   0.00000  Uiso   1.00
C1190  C     0.42409   0.81216   0.97892   0.00000  Uiso   1.00
C1191  C     0.62364   0.68945   0.75562   0.00000  Uiso   1.00
C1192  C     0.37621   0.97721   0.74475   0.00000  Uiso   1.00
C1193  C     0.62088   0.98048   0.75863   0.00000  Uiso   1.00
C1194  C     0.37896   0.68616   0.74167   0.00000  Uiso   1.00
C1195  C     0.66467   0.95730   0.75253   0.00000  Uiso   1.00
C1196  C     0.33520   0.70935   0.74776   0.00000  Uiso   1.00
C1197  C     0.51828   0.80390   0.77208   0.00000  Uiso   1.00
C1198  C     0.48162   0.86298   0.72825   0.00000  Uiso   1.00
C1199  C     0.46862   0.80394   0.77211   0.00000  Uiso   1.00
C1200  C     0.53134   0.86281   0.72802   0.00000  Uiso   1.00
C1201  C     0.63873   0.83572   0.83568   0.00000  Uiso   1.00
C1202  C     0.36123   0.83110   0.66430   0.00000  Uiso   1.00
C1203  C     0.62187   0.84018   0.88392   0.00000  Uiso   1.00
C1204  C     0.37795   0.82688   0.61602   0.00000  Uiso   1.00
C1205  C     0.64109   0.84936   0.95306   0.00000  Uiso   1.00
C1206  C     0.35873   0.81775   0.54688   0.00000  Uiso   1.00
C1207  C     0.65641   0.84278   0.90780   0.00000  Uiso   1.00
C1208  C     0.34340   0.82429   0.59215   0.00000  Uiso   1.00
C1209  C     0.57125   0.84372   0.90664   0.00000  Uiso   1.00
C1210  C     0.42851   0.82345   0.59333   0.00000  Uiso   1.00
C1211  C     0.55648   0.83951   0.95280   0.00000  Uiso   1.00
C1212  C     0.44337   0.82752   0.54712   0.00000  Uiso   1.00
C1213  C     0.59138   0.84723   0.97587   0.00000  Uiso   1.00
C1214  C     0.40845   0.81983   0.52406   0.00000  Uiso   1.00
C1215  C     0.50735   0.83082   0.97682   0.00000  Uiso   1.00
C1216  C     0.49248   0.83617   0.52308   0.00000  Uiso   1.00
Cu1217 Cu    0.38022   0.83334   0.75000   0.00000  Uiso   1.00
Cu1218 Cu    0.61978   0.83333   0.75000   0.00000  Uiso   1.00
H1219  H     0.60119   0.86495   0.53851   0.00000  Uiso   1.00
H1220  H     0.39853   0.80240   0.96137   0.00000  Uiso   1.00
H1221  H     0.63786   0.82477   0.60876   0.00000  Uiso   1.00
H1222  H     0.36195   0.84226   0.89121   0.00000  Uiso   1.00
H1223  H     0.33479   0.85568   0.97020   0.00000  Uiso   1.00
H1224  H     0.66501   0.81149   0.52973   0.00000  Uiso   1.00
H1225  H     0.51538   0.86243   0.57731   0.00000  Uiso   1.00
H1226  H     0.48424   0.80525   0.92231   0.00000  Uiso   1.00
H1227  H     0.58987   0.70700   0.76094   0.00000  Uiso   1.00
H1228  H     0.40999   0.95967   0.73941   0.00000  Uiso   1.00
H1229  H     0.53168   0.78044   0.78997   0.00000  Uiso   1.00
H1230  H     0.46818   0.88655   0.71053   0.00000  Uiso   1.00
H1231  H     0.44461   0.78051   0.78996   0.00000  Uiso   1.00
H1232  H     0.55535   0.88625   0.71018   0.00000  Uiso   1.00
N1233  N     0.45069   0.83334   0.74999   0.00000  Uiso   1.00
N1234  N     0.54931   0.83332   0.75001   0.00000  Uiso   1.00
O1235  O     0.37291   0.77322   0.75000   0.00000  Uiso   1.00
O1236  O     0.62709   0.89345   0.75000   0.00000  Uiso   1.00
O1237  O     0.62706   0.77321   0.75000   0.00000  Uiso   1.00
O1238  O     0.37294   0.89346   0.74999   0.00000  Uiso   1.00
O1239  O     0.35186   0.83334   0.81491   0.00000  Uiso   1.00
O1240  O     0.64814   0.83332   0.68508   0.00000  Uiso   1.00
O1241  O     0.60600   0.83333   0.81492   0.00000  Uiso   1.00
O1242  O     0.39400   0.83333   0.68508   0.00000  Uiso   1.00
C1243  C     0.46262   0.80159   0.61390   0.00000  Uiso   1.00
O1244  O     0.47313   0.76573   0.60422   0.00000  Uiso   1.00
O1245  O     0.48455   0.82199   0.64207   0.00000  Uiso   1.00
H1246  H     0.50867   0.80398   0.65195   0.00000  Uiso   1.00
C1247  C     0.53688   0.86611   0.88671   0.00000  Uiso   1.00
O1248  O     0.51969   0.84962   0.85983   0.00000  Uiso   1.00
O1249  O     0.52124   0.90551   0.90206   0.00000  Uiso   1.00
H1250  H     0.49535   0.91699   0.88884   0.00000  Uiso   1.00
C1251  C     0.57142   0.96252   0.76937   0.00000  Uiso   1.00
O1252  O     0.54335   0.97235   0.74808   0.00000  Uiso   1.00
O1253  O     0.55617   0.93566   0.80476   0.00000  Uiso   1.00
H1254  H     0.52190   0.92528   0.80823   0.00000  Uiso   1.00
C1255  C     0.42844   0.70405   0.73051   0.00000  Uiso   1.00
O1256  O     0.45657   0.69465   0.75191   0.00000  Uiso   1.00
O1257  O     0.44370   0.73017   0.69447   0.00000  Uiso   1.00
H1258  H     0.47844   0.73979   0.69005   0.00000  Uiso   1.00
C1259  C     0.66750   0.75402   0.74867   0.00000  Uiso   1.00
C1260  C     0.99913   0.91264   0.75141   0.00000  Uiso   1.00
C1261  C     0.85979   0.85191   0.54366   0.00000  Uiso   1.00
C1262  C     0.80663   0.81531   0.95617   0.00000  Uiso   1.00
C1263  C     0.90902   0.85502   0.52097   0.00000  Uiso   1.00
C1264  C     0.75743   0.81216   0.97892   0.00000  Uiso   1.00
C1265  C     0.95697   0.68945   0.75562   0.00000  Uiso   1.00
C1266  C     0.70954   0.97721   0.74475   0.00000  Uiso   1.00
C1267  C     0.95421   0.98048   0.75863   0.00000  Uiso   1.00
C1268  C     0.71229   0.68616   0.74167   0.00000  Uiso   1.00
C1269  C     0.99800   0.95730   0.75253   0.00000  Uiso   1.00
C1270  C     0.66853   0.70935   0.74776   0.00000  Uiso   1.00
C1271  C     0.85161   0.80390   0.77208   0.00000  Uiso   1.00
C1272  C     0.81496   0.86298   0.72825   0.00000  Uiso   1.00
C1273  C     0.80196   0.80394   0.77211   0.00000  Uiso   1.00
C1274  C     0.86467   0.86281   0.72802   0.00000  Uiso   1.00
C1275  C     0.97206   0.83572   0.83568   0.00000  Uiso   1.00
C1276  C     0.69457   0.83110   0.66430   0.00000  Uiso   1.00
C1277  C     0.95520   0.84018   0.88392   0.00000  Uiso   1.00
C1278  C     0.71128   0.82688   0.61602   0.00000  Uiso   1.00
C1279  C     0.97442   0.84936   0.95306   0.00000  Uiso   1.00
C1280  C     0.69206   0.81775   0.54688   0.00000  Uiso   1.00
C1281  C     0.98975   0.84278   0.90780   0.00000  Uiso   1.00
C1282  C     0.67673   0.82429   0.59215   0.00000  Uiso   1.00
C1283  C     0.90459   0.84372   0.90664   0.00000  Uiso   1.00
C1284  C     0.76184   0.82345   0.59333   0.00000  Uiso   1.00
C1285  C     0.88981   0.83951   0.95280   0.00000  Uiso   1.00
C1286  C     0.77670   0.82752   0.54712   0.00000  Uiso   1.00
C1287  C     0.92471   0.84723   0.97587   0.00000  Uiso   1.00
C1288  C     0.74178   0.81983   0.52406   0.00000  Uiso   1.00
C1289  C     0.84069   0.83082   0.97682   0.00000  Uiso   1.00
C1290  C     0.82582   0.83617   0.52308   0.00000  Uiso   1.00
Cu1291 Cu    0.71355   0.83334   0.75000   0.00000  Uiso   1.00
Cu1292 Cu    0.95311   0.83333   0.75000   0.00000  Uiso   1.00
H1293  H     0.93452   0.86495   0.53851   0.00000  Uiso   1.00
H1294  H     0.73187   0.80240   0.96137   0.00000  Uiso   1.00
H1295  H     0.97120   0.82477   0.60876   0.00000  Uiso   1.00
H1296  H     0.69529   0.84226   0.89121   0.00000  Uiso   1.00
H1297  H     0.66812   0.85568   0.97020   0.00000  Uiso   1.00
H1298  H     0.99835   0.81149   0.52973   0.00000  Uiso   1.00
H1299  H     0.84871   0.86243   0.57731   0.00000  Uiso   1.00
H1300  H     0.81757   0.80525   0.92231   0.00000  Uiso   1.00
H1301  H     0.92320   0.70700   0.76094   0.00000  Uiso   1.00
H1302  H     0.74332   0.95967   0.73941   0.00000  Uiso   1.00
H1303  H     0.86501   0.78044   0.78997   0.00000  Uiso   1.00
H1304  H     0.80151   0.88655   0.71053   0.00000  Uiso   1.00
H1305  H     0.77794   0.78051   0.78996   0.00000  Uiso   1.00
H1306  H     0.88868   0.88625   0.71018   0.00000  Uiso   1.00
N1307  N     0.78403   0.83334   0.74999   0.00000  Uiso   1.00
N1308  N     0.88264   0.83332   0.75001   0.00000  Uiso   1.00
O1309  O     0.70625   0.77322   0.75000   0.00000  Uiso   1.00
O1310  O     0.96042   0.89345   0.75000   0.00000  Uiso   1.00
O1311  O     0.96039   0.77321   0.75000   0.00000  Uiso   1.00
O1312  O     0.70628   0.89346   0.74999   0.00000  Uiso   1.00
O1313  O     0.68519   0.83334   0.81491   0.00000  Uiso   1.00
O1314  O     0.98148   0.83332   0.68508   0.00000  Uiso   1.00
O1315  O     0.93933   0.83333   0.81492   0.00000  Uiso   1.00
O1316  O     0.72733   0.83333   0.68508   0.00000  Uiso   1.00
C1317  C     0.79595   0.80159   0.61390   0.00000  Uiso   1.00
O1318  O     0.80646   0.76573   0.60422   0.00000  Uiso   1.00
O1319  O     0.81789   0.82199   0.64207   0.00000  Uiso   1.00
H1320  H     0.84200   0.80398   0.65195   0.00000  Uiso   1.00
C1321  C     0.87021   0.86611   0.88671   0.00000  Uiso   1.00
O1322  O     0.85302   0.84962   0.85983   0.00000  Uiso   1.00
O1323  O     0.85458   0.90551   0.90206   0.00000  Uiso   1.00
H1324  H     0.82869   0.91699   0.88884   0.00000  Uiso   1.00
C1325  C     0.90475   0.96252   0.76937   0.00000  Uiso   1.00
O1326  O     0.87669   0.97235   0.74808   0.00000  Uiso   1.00
O1327  O     0.88951   0.93566   0.80476   0.00000  Uiso   1.00
H1328  H     0.85523   0.92528   0.80823   0.00000  Uiso   1.00
C1329  C     0.76178   0.70405   0.73051   0.00000  Uiso   1.00
O1330  O     0.78990   0.69465   0.75191   0.00000  Uiso   1.00
O1331  O     0.77704   0.73017   0.69447   0.00000  Uiso   1.00
H1332  H     0.81178   0.73979   0.69005   0.00000  Uiso   1.00
loop_
_geom_bond_atom_site_label_1
_geom_bond_atom_site_label_2
_geom_bond_distance
_geom_bond_site_symmetry_2
_ccdc_geom_bond_type
C1     C12     1.459   .     S
C1     O51     1.287   .     A
C1     O201    1.295   1_455 S
C2     C11     1.459   .     S
C2     O52     1.287   .     A
C2     O128    1.295   .     S
C3     H41     1.077   .     S
C3     C5      1.388   .     A
C3     C32     1.412   .     A
C4     C6      1.388   .     A
C4     H42     1.078   .     S
C4     C31     1.412   .     A
C5     H35     1.083   .     S
C5     C695    1.393   1_554 S
C6     H36     1.083   .     S
C6     C696    1.393   .     S
C7     H43     1.085   .     S
C7     C453    1.387   1_545 S
C7     C86     1.401   .     S
C8     H44     1.085   .     S
C8     C232    1.387   .     S
C8     C159    1.400   1_455 S
C9     C67     1.482   .     S
C9     C11     1.417   .     A
C9     C229    1.387   .     S
C10    C71     1.481   .     S
C10    C12     1.416   .     A
C10    C452    1.387   1_545 S
C11    C82     1.400   .     S
C12    C155    1.401   1_455 S
C13    C15     1.414   .     A
C13    H45     1.081   .     S
C13    N50     1.367   .     A
C14    H46     1.081   .     S
C14    N49     1.367   .     A
C14    C16     1.414   .     A
C15    H47     1.081   .     S
C15    N49     1.366   .     A
C16    H48     1.081   .     S
C16    N50     1.366   .     A
C17    C19     1.472   .     S
C17    O57     1.286   .     A
C17    O129    1.302   .     S
C18    O58     1.287   .     A
C18    C20     1.473   .     S
C18    O204    1.301   1_455 S
C19    C23     1.403   .     A
C19    C25     1.421   .     A
C20    C26     1.419   .     A
C20    C24     1.403   .     A
C21    C23     1.391   .     A
C21    C29     1.399   .     A
C21    H113    1.081   .     S
C22    C24     1.391   .     A
C22    C30     1.399   .     A
C22    H188    1.081   1_455 S
C23    H112    1.083   .     S
C24    H185    1.083   1_455 S
C25    C63     1.491   .     S
C25    C27     1.410   .     A
C26    C59     1.490   .     S
C26    C28     1.410   .     A
C27    C29     1.414   .     A
C27    C31     1.424   .     A
C28    C32     1.423   .     A
C28    C30     1.414   .     A
C29    C671    1.393   .     S
C30    C672    1.393   1_554 S
C31    C698    1.415   .     S
C32    C697    1.415   1_554 S
Cu33   O55     1.985   .     S
Cu33   O58     1.981   .     S
Cu33   N49     2.007   .     S
Cu33   O54     1.973   .     S
Cu33   O51     1.978   .     S
Cu33   Cu182   2.671   1_455 S
Cu34   O56     1.985   .     S
Cu34   O57     1.981   .     S
Cu34   N50     2.007   .     S
Cu34   O52     1.978   .     S
Cu34   O53     1.973   .     S
Cu34   Cu107   2.671   .     S
H37    C98     1.083   .     S
H38    C171    1.083   1_455 S
H39    C169    1.081   1_455 S
H40    C96     1.081   .     S
O53    C75     1.295   .     S
O54    C150    1.295   1_455 S
O55    C165    1.302   1_455 S
O56    C92     1.301   .     S
C59    O60     1.223   .     D
C59    O61     1.397   .     S
O61    H62     1.014   .     S
C63    O65     1.398   .     S
C63    O64     1.222   .     D
O65    H66     1.013   .     S
C67    O68     1.223   .     D
C67    O69     1.397   .     S
O69    H70     1.014   .     S
C71    O73     1.397   .     S
C71    O72     1.223   .     D
O73    H74     1.014   .     S
C75    C86     1.459   .     S
C75    O125    1.287   .     A
C76    C85     1.459   .     S
C76    O126    1.287   .     A
C76    O202    1.295   .     S
C77    H115    1.077   .     S
C77    C79     1.388   .     A
C77    C106    1.412   .     A
C78    C80     1.388   .     A
C78    H116    1.078   .     S
C78    C105    1.412   .     A
C79    H109    1.083   .     S
C79    C769    1.393   1_554 S
C80    H110    1.083   .     S
C80    C770    1.393   .     S
C81    H117    1.085   .     S
C81    C527    1.387   1_545 S
C81    C160    1.401   .     S
C82    H118    1.085   .     S
C82    C306    1.387   .     S
C83    C141    1.482   .     S
C83    C85     1.417   .     A
C83    C303    1.387   .     S
C84    C145    1.481   .     S
C84    C86     1.416   .     A
C84    C526    1.387   1_545 S
C85    C156    1.400   .     S
C87    C89     1.414   .     A
C87    H119    1.081   .     S
C87    N124    1.367   .     A
C88    H120    1.081   .     S
C88    N123    1.367   .     A
C88    C90     1.414   .     A
C89    H121    1.081   .     S
C89    N123    1.366   .     A
C90    H122    1.081   .     S
C90    N124    1.366   .     A
C91    C93     1.472   .     S
C91    O131    1.286   .     A
C91    O203    1.302   .     S
C92    O132    1.287   .     A
C92    C94     1.473   .     S
C93    C97     1.403   .     A
C93    C99     1.421   .     A
C94    C100    1.419   .     A
C94    C98     1.403   .     A
C95    C97     1.391   .     A
C95    C103    1.399   .     A
C95    H187    1.081   .     S
C96    C98     1.391   .     A
C96    C104    1.399   .     A
C97    H186    1.083   .     S
C99    C137    1.491   .     S
C99    C101    1.410   .     A
C100   C133    1.490   .     S
C100   C102    1.410   .     A
C101   C103    1.414   .     A
C101   C105    1.424   .     A
C102   C106    1.423   .     A
C102   C104    1.414   .     A
C103   C745    1.393   .     S
C104   C746    1.393   1_554 S
C105   C772    1.415   .     S
C106   C771    1.415   1_554 S
Cu107  O129    1.985   .     S
Cu107  O132    1.981   .     S
Cu107  N123    2.007   .     S
Cu107  O128    1.973   .     S
Cu107  O125    1.978   .     S
Cu108  O130    1.985   .     S
Cu108  O131    1.981   .     S
Cu108  N124    2.007   .     S
Cu108  O126    1.978   .     S
Cu108  O127    1.973   .     S
Cu108  Cu181   2.671   .     S
H111   C172    1.083   .     S
H114   C170    1.081   .     S
O127   C149    1.295   .     S
O130   C166    1.301   .     S
C133   O134    1.223   .     D
C133   O135    1.397   .     S
O135   H136    1.014   .     S
C137   O139    1.398   .     S
C137   O138    1.222   .     D
O139   H140    1.013   .     S
C141   O142    1.223   .     D
C141   O143    1.397   .     S
O143   H144    1.014   .     S
C145   O147    1.397   .     S
C145   O146    1.223   .     D
O147   H148    1.014   .     S
C149   C160    1.459   .     S
C149   O199    1.287   .     A
C150   C159    1.459   .     S
C150   O200    1.287   .     A
C150   O54     1.295   1_655 S
C151   H189    1.077   .     S
C151   C153    1.388   .     A
C151   C180    1.412   .     A
C152   C154    1.388   .     A
C152   H190    1.078   .     S
C152   C179    1.412   .     A
C153   H183    1.083   .     S
C153   C843    1.393   1_554 S
C154   H184    1.083   .     S
C154   C844    1.393   .     S
C155   H191    1.085   .     S
C155   C601    1.387   1_545 S
C155   C12     1.401   1_655 S
C156   H192    1.085   .     S
C156   C380    1.387   .     S
C157   C215    1.482   .     S
C157   C159    1.417   .     A
C157   C377    1.387   .     S
C158   C219    1.481   .     S
C158   C160    1.416   .     A
C158   C600    1.387   1_545 S
C159   C8      1.400   1_655 S
C161   C163    1.414   .     A
C161   H193    1.081   .     S
C161   N198    1.367   .     A
C162   H194    1.081   .     S
C162   N197    1.367   .     A
C162   C164    1.414   .     A
C163   H195    1.081   .     S
C163   N197    1.366   .     A
C164   H196    1.081   .     S
C164   N198    1.366   .     A
C165   C167    1.472   .     S
C165   O205    1.286   .     A
C165   O55     1.302   1_655 S
C166   O206    1.287   .     A
C166   C168    1.473   .     S
C167   C171    1.403   .     A
C167   C173    1.421   .     A
C168   C174    1.419   .     A
C168   C172    1.403   .     A
C169   C171    1.391   .     A
C169   C177    1.399   .     A
C169   H39     1.081   1_655 S
C170   C172    1.391   .     A
C170   C178    1.399   .     A
C171   H38     1.083   1_655 S
C173   C211    1.491   .     S
C173   C175    1.410   .     A
C174   C207    1.490   .     S
C174   C176    1.410   .     A
C175   C177    1.414   .     A
C175   C179    1.424   .     A
C176   C180    1.423   .     A
C176   C178    1.414   .     A
C177   C819    1.393   .     S
C178   C820    1.393   1_554 S
C179   C846    1.415   .     S
C180   C845    1.415   1_554 S
Cu181  O203    1.985   .     S
Cu181  O206    1.981   .     S
Cu181  N197    2.007   .     S
Cu181  O202    1.973   .     S
Cu181  O199    1.978   .     S
Cu182  O204    1.985   .     S
Cu182  O205    1.981   .     S
Cu182  N198    2.007   .     S
Cu182  O200    1.978   .     S
Cu182  O201    1.973   .     S
Cu182  Cu33    2.671   1_655 S
H185   C24     1.083   1_655 S
H188   C22     1.081   1_655 S
O201   C1      1.295   1_655 S
O204   C18     1.301   1_655 S
C207   O208    1.223   .     D
C207   O209    1.397   .     S
O209   H210    1.014   .     S
C211   O213    1.398   .     S
C211   O212    1.222   .     D
O213   H214    1.013   .     S
C215   O216    1.223   .     D
C215   O217    1.397   .     S
O217   H218    1.014   .     S
C219   O221    1.397   .     S
C219   O220    1.223   .     D
O221   H222    1.014   .     S
C223   C234    1.459   .     S
C223   O273    1.287   .     A
C223   O423    1.295   1_455 S
C224   C233    1.459   .     S
C224   O274    1.287   .     A
C224   O350    1.295   .     S
C225   H263    1.077   .     S
C225   C227    1.388   .     A
C225   C254    1.412   .     A
C226   C228    1.388   .     A
C226   H264    1.078   .     S
C226   C253    1.412   .     A
C227   H257    1.083   .     S
C227   C917    1.393   1_554 S
C228   H258    1.083   .     S
C228   C918    1.393   .     S
C229   H265    1.085   .     S
C229   C308    1.401   .     S
C230   H266    1.085   .     S
C230   C454    1.387   .     S
C230   C381    1.400   1_455 S
C231   C289    1.482   .     S
C231   C233    1.417   .     A
C231   C451    1.387   .     S
C232   C293    1.481   .     S
C232   C234    1.416   .     A
C233   C304    1.400   .     S
C234   C377    1.401   1_455 S
C235   C237    1.414   .     A
C235   H267    1.081   .     S
C235   N272    1.367   .     A
C236   H268    1.081   .     S
C236   N271    1.367   .     A
C236   C238    1.414   .     A
C237   H269    1.081   .     S
C237   N271    1.366   .     A
C238   H270    1.081   .     S
C238   N272    1.366   .     A
C239   C241    1.472   .     S
C239   O279    1.286   .     A
C239   O351    1.302   .     S
C240   O280    1.287   .     A
C240   C242    1.473   .     S
C240   O426    1.301   1_455 S
C241   C245    1.403   .     A
C241   C247    1.421   .     A
C242   C248    1.419   .     A
C242   C246    1.403   .     A
C243   C245    1.391   .     A
C243   C251    1.399   .     A
C243   H335    1.081   .     S
C244   C246    1.391   .     A
C244   C252    1.399   .     A
C244   H410    1.081   1_455 S
C245   H334    1.083   .     S
C246   H407    1.083   1_455 S
C247   C285    1.491   .     S
C247   C249    1.410   .     A
C248   C281    1.490   .     S
C248   C250    1.410   .     A
C249   C251    1.414   .     A
C249   C253    1.424   .     A
C250   C254    1.423   .     A
C250   C252    1.414   .     A
C251   C893    1.393   .     S
C252   C894    1.393   1_554 S
C253   C920    1.415   .     S
C254   C919    1.415   1_554 S
Cu255  O277    1.985   .     S
Cu255  O280    1.981   .     S
Cu255  N271    2.007   .     S
Cu255  O276    1.973   .     S
Cu255  O273    1.978   .     S
Cu255  Cu404   2.671   1_455 S
Cu256  O278    1.985   .     S
Cu256  O279    1.981   .     S
Cu256  N272    2.007   .     S
Cu256  O274    1.978   .     S
Cu256  O275    1.973   .     S
Cu256  Cu329   2.671   .     S
H259   C320    1.083   .     S
H260   C393    1.083   1_455 S
H261   C391    1.081   1_455 S
H262   C318    1.081   .     S
O275   C297    1.295   .     S
O276   C372    1.295   1_455 S
O277   C387    1.302   1_455 S
O278   C314    1.301   .     S
C281   O282    1.223   .     D
C281   O283    1.397   .     S
O283   H284    1.014   .     S
C285   O287    1.398   .     S
C285   O286    1.222   .     D
O287   H288    1.013   .     S
C289   O290    1.223   .     D
C289   O291    1.397   .     S
O291   H292    1.014   .     S
C293   O295    1.397   .     S
C293   O294    1.223   .     D
O295   H296    1.014   .     S
C297   C308    1.459   .     S
C297   O347    1.287   .     A
C298   C307    1.459   .     S
C298   O348    1.287   .     A
C298   O424    1.295   .     S
C299   H337    1.077   .     S
C299   C301    1.388   .     A
C299   C328    1.412   .     A
C300   C302    1.388   .     A
C300   H338    1.078   .     S
C300   C327    1.412   .     A
C301   H331    1.083   .     S
C301   C991    1.393   1_554 S
C302   H332    1.083   .     S
C302   C992    1.393   .     S
C303   H339    1.085   .     S
C303   C382    1.401   .     S
C304   H340    1.085   .     S
C304   C528    1.387   .     S
C305   C363    1.482   .     S
C305   C307    1.417   .     A
C305   C525    1.387   .     S
C306   C367    1.481   .     S
C306   C308    1.416   .     A
C307   C378    1.400   .     S
C309   C311    1.414   .     A
C309   H341    1.081   .     S
C309   N346    1.367   .     A
C310   H342    1.081   .     S
C310   N345    1.367   .     A
C310   C312    1.414   .     A
C311   H343    1.081   .     S
C311   N345    1.366   .     A
C312   H344    1.081   .     S
C312   N346    1.366   .     A
C313   C315    1.472   .     S
C313   O353    1.286   .     A
C313   O425    1.302   .     S
C314   O354    1.287   .     A
C314   C316    1.473   .     S
C315   C319    1.403   .     A
C315   C321    1.421   .     A
C316   C322    1.419   .     A
C316   C320    1.403   .     A
C317   C319    1.391   .     A
C317   C325    1.399   .     A
C317   H409    1.081   .     S
C318   C320    1.391   .     A
C318   C326    1.399   .     A
C319   H408    1.083   .     S
C321   C359    1.491   .     S
C321   C323    1.410   .     A
C322   C355    1.490   .     S
C322   C324    1.410   .     A
C323   C325    1.414   .     A
C323   C327    1.424   .     A
C324   C328    1.423   .     A
C324   C326    1.414   .     A
C325   C967    1.393   .     S
C326   C968    1.393   1_554 S
C327   C994    1.415   .     S
C328   C993    1.415   1_554 S
Cu329  O351    1.985   .     S
Cu329  O354    1.981   .     S
Cu329  N345    2.007   .     S
Cu329  O350    1.973   .     S
Cu329  O347    1.978   .     S
Cu330  O352    1.985   .     S
Cu330  O353    1.981   .     S
Cu330  N346    2.007   .     S
Cu330  O348    1.978   .     S
Cu330  O349    1.973   .     S
Cu330  Cu403   2.671   .     S
H333   C394    1.083   .     S
H336   C392    1.081   .     S
O349   C371    1.295   .     S
O352   C388    1.301   .     S
C355   O356    1.223   .     D
C355   O357    1.397   .     S
O357   H358    1.014   .     S
C359   O361    1.398   .     S
C359   O360    1.222   .     D
O361   H362    1.013   .     S
C363   O364    1.223   .     D
C363   O365    1.397   .     S
O365   H366    1.014   .     S
C367   O369    1.397   .     S
C367   O368    1.223   .     D
O369   H370    1.014   .     S
C371   C382    1.459   .     S
C371   O421    1.287   .     A
C372   C381    1.459   .     S
C372   O422    1.287   .     A
C372   O276    1.295   1_655 S
C373   H411    1.077   .     S
C373   C375    1.388   .     A
C373   C402    1.412   .     A
C374   C376    1.388   .     A
C374   H412    1.078   .     S
C374   C401    1.412   .     A
C375   H405    1.083   .     S
C375   C1065   1.393   1_554 S
C376   H406    1.083   .     S
C376   C1066   1.393   .     S
C377   H413    1.085   .     S
C377   C234    1.401   1_655 S
C378   H414    1.085   .     S
C378   C602    1.387   .     S
C379   C437    1.482   .     S
C379   C381    1.417   .     A
C379   C599    1.387   .     S
C380   C441    1.481   .     S
C380   C382    1.416   .     A
C381   C230    1.400   1_655 S
C383   C385    1.414   .     A
C383   H415    1.081   .     S
C383   N420    1.367   .     A
C384   H416    1.081   .     S
C384   N419    1.367   .     A
C384   C386    1.414   .     A
C385   H417    1.081   .     S
C385   N419    1.366   .     A
C386   H418    1.081   .     S
C386   N420    1.366   .     A
C387   C389    1.472   .     S
C387   O427    1.286   .     A
C387   O277    1.302   1_655 S
C388   O428    1.287   .     A
C388   C390    1.473   .     S
C389   C393    1.403   .     A
C389   C395    1.421   .     A
C390   C396    1.419   .     A
C390   C394    1.403   .     A
C391   C393    1.391   .     A
C391   C399    1.399   .     A
C391   H261    1.081   1_655 S
C392   C394    1.391   .     A
C392   C400    1.399   .     A
C393   H260    1.083   1_655 S
C395   C433    1.491   .     S
C395   C397    1.410   .     A
C396   C429    1.490   .     S
C396   C398    1.410   .     A
C397   C399    1.414   .     A
C397   C401    1.424   .     A
C398   C402    1.423   .     A
C398   C400    1.414   .     A
C399   C1041   1.393   .     S
C400   C1042   1.393   1_554 S
C401   C1068   1.415   .     S
C402   C1067   1.415   1_554 S
Cu403  O425    1.985   .     S
Cu403  O428    1.981   .     S
Cu403  N419    2.007   .     S
Cu403  O424    1.973   .     S
Cu403  O421    1.978   .     S
Cu404  O426    1.985   .     S
Cu404  O427    1.981   .     S
Cu404  N420    2.007   .     S
Cu404  O422    1.978   .     S
Cu404  O423    1.973   .     S
Cu404  Cu255   2.671   1_655 S
H407   C246    1.083   1_655 S
H410   C244    1.081   1_655 S
O423   C223    1.295   1_655 S
O426   C240    1.301   1_655 S
C429   O430    1.223   .     D
C429   O431    1.397   .     S
O431   H432    1.014   .     S
C433   O435    1.398   .     S
C433   O434    1.222   .     D
O435   H436    1.013   .     S
C437   O438    1.223   .     D
C437   O439    1.397   .     S
O439   H440    1.014   .     S
C441   O443    1.397   .     S
C441   O442    1.223   .     D
O443   H444    1.014   .     S
C445   C456    1.459   .     S
C445   O495    1.287   .     A
C445   O645    1.295   1_455 S
C446   C455    1.459   .     S
C446   O496    1.287   .     A
C446   O572    1.295   .     S
C447   H485    1.077   .     S
C447   C449    1.388   .     A
C447   C476    1.412   .     A
C448   C450    1.388   .     A
C448   H486    1.078   .     S
C448   C475    1.412   .     A
C449   H479    1.083   .     S
C449   C1139   1.393   1_554 S
C450   H480    1.083   .     S
C450   C1140   1.393   .     S
C451   H487    1.085   .     S
C451   C530    1.401   .     S
C452   H488    1.085   .     S
C452   C10     1.387   1_565 S
C452   C603    1.400   1_455 S
C453   C511    1.482   .     S
C453   C455    1.417   .     A
C453   C7      1.387   1_565 S
C454   C515    1.481   .     S
C454   C456    1.416   .     A
C455   C526    1.400   .     S
C456   C599    1.401   1_455 S
C457   C459    1.414   .     A
C457   H489    1.081   .     S
C457   N494    1.367   .     A
C458   H490    1.081   .     S
C458   N493    1.367   .     A
C458   C460    1.414   .     A
C459   H491    1.081   .     S
C459   N493    1.366   .     A
C460   H492    1.081   .     S
C460   N494    1.366   .     A
C461   C463    1.472   .     S
C461   O501    1.286   .     A
C461   O573    1.302   .     S
C462   O502    1.287   .     A
C462   C464    1.473   .     S
C462   O648    1.301   1_455 S
C463   C467    1.403   .     A
C463   C469    1.421   .     A
C464   C470    1.419   .     A
C464   C468    1.403   .     A
C465   C467    1.391   .     A
C465   C473    1.399   .     A
C465   H557    1.081   .     S
C466   C468    1.391   .     A
C466   C474    1.399   .     A
C466   H632    1.081   1_455 S
C467   H556    1.083   .     S
C468   H629    1.083   1_455 S
C469   C507    1.491   .     S
C469   C471    1.410   .     A
C470   C503    1.490   .     S
C470   C472    1.410   .     A
C471   C473    1.414   .     A
C471   C475    1.424   .     A
C472   C476    1.423   .     A
C472   C474    1.414   .     A
C473   C1115   1.393   .     S
C474   C1116   1.393   1_554 S
C475   C1142   1.415   .     S
C476   C1141   1.415   1_554 S
Cu477  O499    1.985   .     S
Cu477  O502    1.981   .     S
Cu477  N493    2.007   .     S
Cu477  O498    1.973   .     S
Cu477  O495    1.978   .     S
Cu477  Cu626   2.671   1_455 S
Cu478  O500    1.985   .     S
Cu478  O501    1.981   .     S
Cu478  N494    2.007   .     S
Cu478  O496    1.978   .     S
Cu478  O497    1.973   .     S
Cu478  Cu551   2.671   .     S
H481   C542    1.083   .     S
H482   C615    1.083   1_455 S
H483   C613    1.081   1_455 S
H484   C540    1.081   .     S
O497   C519    1.295   .     S
O498   C594    1.295   1_455 S
O499   C609    1.302   1_455 S
O500   C536    1.301   .     S
C503   O504    1.223   .     D
C503   O505    1.397   .     S
O505   H506    1.014   .     S
C507   O509    1.398   .     S
C507   O508    1.222   .     D
O509   H510    1.013   .     S
C511   O512    1.223   .     D
C511   O513    1.397   .     S
O513   H514    1.014   .     S
C515   O517    1.397   .     S
C515   O516    1.223   .     D
O517   H518    1.014   .     S
C519   C530    1.459   .     S
C519   O569    1.287   .     A
C520   C529    1.459   .     S
C520   O570    1.287   .     A
C520   O646    1.295   .     S
C521   H559    1.077   .     S
C521   C523    1.388   .     A
C521   C550    1.412   .     A
C522   C524    1.388   .     A
C522   H560    1.078   .     S
C522   C549    1.412   .     A
C523   H553    1.083   .     S
C523   C1213   1.393   1_554 S
C524   H554    1.083   .     S
C524   C1214   1.393   .     S
C525   H561    1.085   .     S
C525   C604    1.401   .     S
C526   H562    1.085   .     S
C526   C84     1.387   1_565 S
C527   C585    1.482   .     S
C527   C529    1.417   .     A
C527   C81     1.387   1_565 S
C528   C589    1.481   .     S
C528   C530    1.416   .     A
C529   C600    1.400   .     S
C531   C533    1.414   .     A
C531   H563    1.081   .     S
C531   N568    1.367   .     A
C532   H564    1.081   .     S
C532   N567    1.367   .     A
C532   C534    1.414   .     A
C533   H565    1.081   .     S
C533   N567    1.366   .     A
C534   H566    1.081   .     S
C534   N568    1.366   .     A
C535   C537    1.472   .     S
C535   O575    1.286   .     A
C535   O647    1.302   .     S
C536   O576    1.287   .     A
C536   C538    1.473   .     S
C537   C541    1.403   .     A
C537   C543    1.421   .     A
C538   C544    1.419   .     A
C538   C542    1.403   .     A
C539   C541    1.391   .     A
C539   C547    1.399   .     A
C539   H631    1.081   .     S
C540   C542    1.391   .     A
C540   C548    1.399   .     A
C541   H630    1.083   .     S
C543   C581    1.491   .     S
C543   C545    1.410   .     A
C544   C577    1.490   .     S
C544   C546    1.410   .     A
C545   C547    1.414   .     A
C545   C549    1.424   .     A
C546   C550    1.423   .     A
C546   C548    1.414   .     A
C547   C1189   1.393   .     S
C548   C1190   1.393   1_554 S
C549   C1216   1.415   .     S
C550   C1215   1.415   1_554 S
Cu551  O573    1.985   .     S
Cu551  O576    1.981   .     S
Cu551  N567    2.007   .     S
Cu551  O572    1.973   .     S
Cu551  O569    1.978   .     S
Cu552  O574    1.985   .     S
Cu552  O575    1.981   .     S
Cu552  N568    2.007   .     S
Cu552  O570    1.978   .     S
Cu552  O571    1.973   .     S
Cu552  Cu625   2.671   .     S
H555   C616    1.083   .     S
H558   C614    1.081   .     S
O571   C593    1.295   .     S
O574   C610    1.301   .     S
C577   O578    1.223   .     D
C577   O579    1.397   .     S
O579   H580    1.014   .     S
C581   O583    1.398   .     S
C581   O582    1.222   .     D
O583   H584    1.013   .     S
C585   O586    1.223   .     D
C585   O587    1.397   .     S
O587   H588    1.014   .     S
C589   O591    1.397   .     S
C589   O590    1.223   .     D
O591   H592    1.014   .     S
C593   C604    1.459   .     S
C593   O643    1.287   .     A
C594   C603    1.459   .     S
C594   O644    1.287   .     A
C594   O498    1.295   1_655 S
C595   H633    1.077   .     S
C595   C597    1.388   .     A
C595   C624    1.412   .     A
C596   C598    1.388   .     A
C596   H634    1.078   .     S
C596   C623    1.412   .     A
C597   H627    1.083   .     S
C597   C1287   1.393   1_554 S
C598   H628    1.083   .     S
C598   C1288   1.393   .     S
C599   H635    1.085   .     S
C599   C456    1.401   1_655 S
C600   H636    1.085   .     S
C600   C158    1.387   1_565 S
C601   C659    1.482   .     S
C601   C603    1.417   .     A
C601   C155    1.387   1_565 S
C602   C663    1.481   .     S
C602   C604    1.416   .     A
C603   C452    1.400   1_655 S
C605   C607    1.414   .     A
C605   H637    1.081   .     S
C605   N642    1.367   .     A
C606   H638    1.081   .     S
C606   N641    1.367   .     A
C606   C608    1.414   .     A
C607   H639    1.081   .     S
C607   N641    1.366   .     A
C608   H640    1.081   .     S
C608   N642    1.366   .     A
C609   C611    1.472   .     S
C609   O649    1.286   .     A
C609   O499    1.302   1_655 S
C610   O650    1.287   .     A
C610   C612    1.473   .     S
C611   C615    1.403   .     A
C611   C617    1.421   .     A
C612   C618    1.419   .     A
C612   C616    1.403   .     A
C613   C615    1.391   .     A
C613   C621    1.399   .     A
C613   H483    1.081   1_655 S
C614   C616    1.391   .     A
C614   C622    1.399   .     A
C615   H482    1.083   1_655 S
C617   C655    1.491   .     S
C617   C619    1.410   .     A
C618   C651    1.490   .     S
C618   C620    1.410   .     A
C619   C621    1.414   .     A
C619   C623    1.424   .     A
C620   C624    1.423   .     A
C620   C622    1.414   .     A
C621   C1263   1.393   .     S
C622   C1264   1.393   1_554 S
C623   C1290   1.415   .     S
C624   C1289   1.415   1_554 S
Cu625  O647    1.985   .     S
Cu625  O650    1.981   .     S
Cu625  N641    2.007   .     S
Cu625  O646    1.973   .     S
Cu625  O643    1.978   .     S
Cu626  O648    1.985   .     S
Cu626  O649    1.981   .     S
Cu626  N642    2.007   .     S
Cu626  O644    1.978   .     S
Cu626  O645    1.973   .     S
Cu626  Cu477   2.671   1_655 S
H629   C468    1.083   1_655 S
H632   C466    1.081   1_655 S
O645   C445    1.295   1_655 S
O648   C462    1.301   1_655 S
C651   O652    1.223   .     D
C651   O653    1.397   .     S
O653   H654    1.014   .     S
C655   O657    1.398   .     S
C655   O656    1.222   .     D
O657   H658    1.013   .     S
C659   O660    1.223   .     D
C659   O661    1.397   .     S
O661   H662    1.014   .     S
C663   O665    1.397   .     S
C663   O664    1.223   .     D
O665   H666    1.014   .     S
C667   C678    1.459   .     S
C667   O717    1.287   .     A
C667   O867    1.295   1_455 S
C668   C677    1.459   .     S
C668   O718    1.287   .     A
C668   O794    1.295   .     S
C669   H707    1.077   .     S
C669   C671    1.388   .     A
C669   C698    1.412   .     A
C670   C672    1.388   .     A
C670   H708    1.078   .     S
C670   C697    1.412   .     A
C671   H701    1.083   .     S
C672   H702    1.083   .     S
C672   C30     1.393   1_556 S
C673   H709    1.085   .     S
C673   C1119   1.387   1_545 S
C673   C752    1.401   .     S
C674   H710    1.085   .     S
C674   C898    1.387   .     S
C674   C825    1.400   1_455 S
C675   C733    1.482   .     S
C675   C677    1.417   .     A
C675   C895    1.387   .     S
C676   C737    1.481   .     S
C676   C678    1.416   .     A
C676   C1118   1.387   1_545 S
C677   C748    1.400   .     S
C678   C821    1.401   1_455 S
C679   C681    1.414   .     A
C679   H711    1.081   .     S
C679   N716    1.367   .     A
C680   H712    1.081   .     S
C680   N715    1.367   .     A
C680   C682    1.414   .     A
C681   H713    1.081   .     S
C681   N715    1.366   .     A
C682   H714    1.081   .     S
C682   N716    1.366   .     A
C683   C685    1.472   .     S
C683   O723    1.286   .     A
C683   O795    1.302   .     S
C684   O724    1.287   .     A
C684   C686    1.473   .     S
C684   O870    1.301   1_455 S
C685   C689    1.403   .     A
C685   C691    1.421   .     A
C686   C692    1.419   .     A
C686   C690    1.403   .     A
C687   C689    1.391   .     A
C687   C695    1.399   .     A
C687   H779    1.081   .     S
C688   C690    1.391   .     A
C688   C696    1.399   .     A
C688   H854    1.081   1_455 S
C689   H778    1.083   .     S
C690   H851    1.083   1_455 S
C691   C729    1.491   .     S
C691   C693    1.410   .     A
C692   C725    1.490   .     S
C692   C694    1.410   .     A
C693   C695    1.414   .     A
C693   C697    1.424   .     A
C694   C698    1.423   .     A
C694   C696    1.414   .     A
C695   C5      1.393   1_556 S
C697   C32     1.415   1_556 S
Cu699  O721    1.985   .     S
Cu699  O724    1.981   .     S
Cu699  N715    2.007   .     S
Cu699  O720    1.973   .     S
Cu699  O717    1.978   .     S
Cu699  Cu848   2.671   1_455 S
Cu700  O722    1.985   .     S
Cu700  O723    1.981   .     S
Cu700  N716    2.007   .     S
Cu700  O718    1.978   .     S
Cu700  O719    1.973   .     S
Cu700  Cu773   2.671   .     S
H703   C764    1.083   .     S
H704   C837    1.083   1_455 S
H705   C835    1.081   1_455 S
H706   C762    1.081   .     S
O719   C741    1.295   .     S
O720   C816    1.295   1_455 S
O721   C831    1.302   1_455 S
O722   C758    1.301   .     S
C725   O726    1.223   .     D
C725   O727    1.397   .     S
O727   H728    1.014   .     S
C729   O731    1.398   .     S
C729   O730    1.222   .     D
O731   H732    1.013   .     S
C733   O734    1.223   .     D
C733   O735    1.397   .     S
O735   H736    1.014   .     S
C737   O739    1.397   .     S
C737   O738    1.223   .     D
O739   H740    1.014   .     S
C741   C752    1.459   .     S
C741   O791    1.287   .     A
C742   C751    1.459   .     S
C742   O792    1.287   .     A
C742   O868    1.295   .     S
C743   H781    1.077   .     S
C743   C745    1.388   .     A
C743   C772    1.412   .     A
C744   C746    1.388   .     A
C744   H782    1.078   .     S
C744   C771    1.412   .     A
C745   H775    1.083   .     S
C746   H776    1.083   .     S
C746   C104    1.393   1_556 S
C747   H783    1.085   .     S
C747   C1193   1.387   1_545 S
C747   C826    1.401   .     S
C748   H784    1.085   .     S
C748   C972    1.387   .     S
C749   C807    1.482   .     S
C749   C751    1.417   .     A
C749   C969    1.387   .     S
C750   C811    1.481   .     S
C750   C752    1.416   .     A
C750   C1192   1.387   1_545 S
C751   C822    1.400   .     S
C753   C755    1.414   .     A
C753   H785    1.081   .     S
C753   N790    1.367   .     A
C754   H786    1.081   .     S
C754   N789    1.367   .     A
C754   C756    1.414   .     A
C755   H787    1.081   .     S
C755   N789    1.366   .     A
C756   H788    1.081   .     S
C756   N790    1.366   .     A
C757   C759    1.472   .     S
C757   O797    1.286   .     A
C757   O869    1.302   .     S
C758   O798    1.287   .     A
C758   C760    1.473   .     S
C759   C763    1.403   .     A
C759   C765    1.421   .     A
C760   C766    1.419   .     A
C760   C764    1.403   .     A
C761   C763    1.391   .     A
C761   C769    1.399   .     A
C761   H853    1.081   .     S
C762   C764    1.391   .     A
C762   C770    1.399   .     A
C763   H852    1.083   .     S
C765   C803    1.491   .     S
C765   C767    1.410   .     A
C766   C799    1.490   .     S
C766   C768    1.410   .     A
C767   C769    1.414   .     A
C767   C771    1.424   .     A
C768   C772    1.423   .     A
C768   C770    1.414   .     A
C769   C79     1.393   1_556 S
C771   C106    1.415   1_556 S
Cu773  O795    1.985   .     S
Cu773  O798    1.981   .     S
Cu773  N789    2.007   .     S
Cu773  O794    1.973   .     S
Cu773  O791    1.978   .     S
Cu774  O796    1.985   .     S
Cu774  O797    1.981   .     S
Cu774  N790    2.007   .     S
Cu774  O792    1.978   .     S
Cu774  O793    1.973   .     S
Cu774  Cu847   2.671   .     S
H777   C838    1.083   .     S
H780   C836    1.081   .     S
O793   C815    1.295   .     S
O796   C832    1.301   .     S
C799   O800    1.223   .     D
C799   O801    1.397   .     S
O801   H802    1.014   .     S
C803   O805    1.398   .     S
C803   O804    1.222   .     D
O805   H806    1.013   .     S
C807   O808    1.223   .     D
C807   O809    1.397   .     S
O809   H810    1.014   .     S
C811   O813    1.397   .     S
C811   O812    1.223   .     D
O813   H814    1.014   .     S
C815   C826    1.459   .     S
C815   O865    1.287   .     A
C816   C825    1.459   .     S
C816   O866    1.287   .     A
C816   O720    1.295   1_655 S
C817   H855    1.077   .     S
C817   C819    1.388   .     A
C817   C846    1.412   .     A
C818   C820    1.388   .     A
C818   H856    1.078   .     S
C818   C845    1.412   .     A
C819   H849    1.083   .     S
C820   H850    1.083   .     S
C820   C178    1.393   1_556 S
C821   H857    1.085   .     S
C821   C1267   1.387   1_545 S
C821   C678    1.401   1_655 S
C822   H858    1.085   .     S
C822   C1046   1.387   .     S
C823   C881    1.482   .     S
C823   C825    1.417   .     A
C823   C1043   1.387   .     S
C824   C885    1.481   .     S
C824   C826    1.416   .     A
C824   C1266   1.387   1_545 S
C825   C674    1.400   1_655 S
C827   C829    1.414   .     A
C827   H859    1.081   .     S
C827   N864    1.367   .     A
C828   H860    1.081   .     S
C828   N863    1.367   .     A
C828   C830    1.414   .     A
C829   H861    1.081   .     S
C829   N863    1.366   .     A
C830   H862    1.081   .     S
C830   N864    1.366   .     A
C831   C833    1.472   .     S
C831   O871    1.286   .     A
C831   O721    1.302   1_655 S
C832   O872    1.287   .     A
C832   C834    1.473   .     S
C833   C837    1.403   .     A
C833   C839    1.421   .     A
C834   C840    1.419   .     A
C834   C838    1.403   .     A
C835   C837    1.391   .     A
C835   C843    1.399   .     A
C835   H705    1.081   1_655 S
C836   C838    1.391   .     A
C836   C844    1.399   .     A
C837   H704    1.083   1_655 S
C839   C877    1.491   .     S
C839   C841    1.410   .     A
C840   C873    1.490   .     S
C840   C842    1.410   .     A
C841   C843    1.414   .     A
C841   C845    1.424   .     A
C842   C846    1.423   .     A
C842   C844    1.414   .     A
C843   C153    1.393   1_556 S
C845   C180    1.415   1_556 S
Cu847  O869    1.985   .     S
Cu847  O872    1.981   .     S
Cu847  N863    2.007   .     S
Cu847  O868    1.973   .     S
Cu847  O865    1.978   .     S
Cu848  O870    1.985   .     S
Cu848  O871    1.981   .     S
Cu848  N864    2.007   .     S
Cu848  O866    1.978   .     S
Cu848  O867    1.973   .     S
Cu848  Cu699   2.671   1_655 S
H851   C690    1.083   1_655 S
H854   C688    1.081   1_655 S
O867   C667    1.295   1_655 S
O870   C684    1.301   1_655 S
C873   O874    1.223   .     D
C873   O875    1.397   .     S
O875   H876    1.014   .     S
C877   O879    1.398   .     S
C877   O878    1.222   .     D
O879   H880    1.013   .     S
C881   O882    1.223   .     D
C881   O883    1.397   .     S
O883   H884    1.014   .     S
C885   O887    1.397   .     S
C885   O886    1.223   .     D
O887   H888    1.014   .     S
C889   C900    1.459   .     S
C889   O939    1.287   .     A
C889   O1089   1.295   1_455 S
C890   C899    1.459   .     S
C890   O940    1.287   .     A
C890   O1016   1.295   .     S
C891   H929    1.077   .     S
C891   C893    1.388   .     A
C891   C920    1.412   .     A
C892   C894    1.388   .     A
C892   H930    1.078   .     S
C892   C919    1.412   .     A
C893   H923    1.083   .     S
C894   H924    1.083   .     S
C894   C252    1.393   1_556 S
C895   H931    1.085   .     S
C895   C974    1.401   .     S
C896   H932    1.085   .     S
C896   C1120   1.387   .     S
C896   C1047   1.400   1_455 S
C897   C955    1.482   .     S
C897   C899    1.417   .     A
C897   C1117   1.387   .     S
C898   C959    1.481   .     S
C898   C900    1.416   .     A
C899   C970    1.400   .     S
C900   C1043   1.401   1_455 S
C901   C903    1.414   .     A
C901   H933    1.081   .     S
C901   N938    1.367   .     A
C902   H934    1.081   .     S
C902   N937    1.367   .     A
C902   C904    1.414   .     A
C903   H935    1.081   .     S
C903   N937    1.366   .     A
C904   H936    1.081   .     S
C904   N938    1.366   .     A
C905   C907    1.472   .     S
C905   O945    1.286   .     A
C905   O1017   1.302   .     S
C906   O946    1.287   .     A
C906   C908    1.473   .     S
C906   O1092   1.301   1_455 S
C907   C911    1.403   .     A
C907   C913    1.421   .     A
C908   C914    1.419   .     A
C908   C912    1.403   .     A
C909   C911    1.391   .     A
C909   C917    1.399   .     A
C909   H1001   1.081   .     S
C910   C912    1.391   .     A
C910   C918    1.399   .     A
C910   H1076   1.081   1_455 S
C911   H1000   1.083   .     S
C912   H1073   1.083   1_455 S
C913   C951    1.491   .     S
C913   C915    1.410   .     A
C914   C947    1.490   .     S
C914   C916    1.410   .     A
C915   C917    1.414   .     A
C915   C919    1.424   .     A
C916   C920    1.423   .     A
C916   C918    1.414   .     A
C917   C227    1.393   1_556 S
C919   C254    1.415   1_556 S
Cu921  O943    1.985   .     S
Cu921  O946    1.981   .     S
Cu921  N937    2.007   .     S
Cu921  O942    1.973   .     S
Cu921  O939    1.978   .     S
Cu921  Cu1070  2.671   1_455 S
Cu922  O944    1.985   .     S
Cu922  O945    1.981   .     S
Cu922  N938    2.007   .     S
Cu922  O940    1.978   .     S
Cu922  O941    1.973   .     S
Cu922  Cu995   2.671   .     S
H925   C986    1.083   .     S
H926   C1059   1.083   1_455 S
H927   C1057   1.081   1_455 S
H928   C984    1.081   .     S
O941   C963    1.295   .     S
O942   C1038   1.295   1_455 S
O943   C1053   1.302   1_455 S
O944   C980    1.301   .     S
C947   O948    1.223   .     D
C947   O949    1.397   .     S
O949   H950    1.014   .     S
C951   O953    1.398   .     S
C951   O952    1.222   .     D
O953   H954    1.013   .     S
C955   O956    1.223   .     D
C955   O957    1.397   .     S
O957   H958    1.014   .     S
C959   O961    1.397   .     S
C959   O960    1.223   .     D
O961   H962    1.014   .     S
C963   C974    1.459   .     S
C963   O1013   1.287   .     A
C964   C973    1.459   .     S
C964   O1014   1.287   .     A
C964   O1090   1.295   .     S
C965   H1003   1.077   .     S
C965   C967    1.388   .     A
C965   C994    1.412   .     A
C966   C968    1.388   .     A
C966   H1004   1.078   .     S
C966   C993    1.412   .     A
C967   H997    1.083   .     S
C968   H998    1.083   .     S
C968   C326    1.393   1_556 S
C969   H1005   1.085   .     S
C969   C1048   1.401   .     S
C970   H1006   1.085   .     S
C970   C1194   1.387   .     S
C971   C1029   1.482   .     S
C971   C973    1.417   .     A
C971   C1191   1.387   .     S
C972   C1033   1.481   .     S
C972   C974    1.416   .     A
C973   C1044   1.400   .     S
C975   C977    1.414   .     A
C975   H1007   1.081   .     S
C975   N1012   1.367   .     A
C976   H1008   1.081   .     S
C976   N1011   1.367   .     A
C976   C978    1.414   .     A
C977   H1009   1.081   .     S
C977   N1011   1.366   .     A
C978   H1010   1.081   .     S
C978   N1012   1.366   .     A
C979   C981    1.472   .     S
C979   O1019   1.286   .     A
C979   O1091   1.302   .     S
C980   O1020   1.287   .     A
C980   C982    1.473   .     S
C981   C985    1.403   .     A
C981   C987    1.421   .     A
C982   C988    1.419   .     A
C982   C986    1.403   .     A
C983   C985    1.391   .     A
C983   C991    1.399   .     A
C983   H1075   1.081   .     S
C984   C986    1.391   .     A
C984   C992    1.399   .     A
C985   H1074   1.083   .     S
C987   C1025   1.491   .     S
C987   C989    1.410   .     A
C988   C1021   1.490   .     S
C988   C990    1.410   .     A
C989   C991    1.414   .     A
C989   C993    1.424   .     A
C990   C994    1.423   .     A
C990   C992    1.414   .     A
C991   C301    1.393   1_556 S
C993   C328    1.415   1_556 S
Cu995  O1017   1.985   .     S
Cu995  O1020   1.981   .     S
Cu995  N1011   2.007   .     S
Cu995  O1016   1.973   .     S
Cu995  O1013   1.978   .     S
Cu996  O1018   1.985   .     S
Cu996  O1019   1.981   .     S
Cu996  N1012   2.007   .     S
Cu996  O1014   1.978   .     S
Cu996  O1015   1.973   .     S
Cu996  Cu1069  2.671   .     S
H999   C1060   1.083   .     S
H1002  C1058   1.081   .     S
O1015  C1037   1.295   .     S
O1018  C1054   1.301   .     S
C1021  O1022   1.223   .     D
C1021  O1023   1.397   .     S
O1023  H1024   1.014   .     S
C1025  O1027   1.398   .     S
C1025  O1026   1.222   .     D
O1027  H1028   1.013   .     S
C1029  O1030   1.223   .     D
C1029  O1031   1.397   .     S
O1031  H1032   1.014   .     S
C1033  O1035   1.397   .     S
C1033  O1034   1.223   .     D
O1035  H1036   1.014   .     S
C1037  C1048   1.459   .     S
C1037  O1087   1.287   .     A
C1038  C1047   1.459   .     S
C1038  O1088   1.287   .     A
C1038  O942    1.295   1_655 S
C1039  H1077   1.077   .     S
C1039  C1041   1.388   .     A
C1039  C1068   1.412   .     A
C1040  C1042   1.388   .     A
C1040  H1078   1.078   .     S
C1040  C1067   1.412   .     A
C1041  H1071   1.083   .     S
C1042  H1072   1.083   .     S
C1042  C400    1.393   1_556 S
C1043  H1079   1.085   .     S
C1043  C900    1.401   1_655 S
C1044  H1080   1.085   .     S
C1044  C1268   1.387   .     S
C1045  C1103   1.482   .     S
C1045  C1047   1.417   .     A
C1045  C1265   1.387   .     S
C1046  C1107   1.481   .     S
C1046  C1048   1.416   .     A
C1047  C896    1.400   1_655 S
C1049  C1051   1.414   .     A
C1049  H1081   1.081   .     S
C1049  N1086   1.367   .     A
C1050  H1082   1.081   .     S
C1050  N1085   1.367   .     A
C1050  C1052   1.414   .     A
C1051  H1083   1.081   .     S
C1051  N1085   1.366   .     A
C1052  H1084   1.081   .     S
C1052  N1086   1.366   .     A
C1053  C1055   1.472   .     S
C1053  O1093   1.286   .     A
C1053  O943    1.302   1_655 S
C1054  O1094   1.287   .     A
C1054  C1056   1.473   .     S
C1055  C1059   1.403   .     A
C1055  C1061   1.421   .     A
C1056  C1062   1.419   .     A
C1056  C1060   1.403   .     A
C1057  C1059   1.391   .     A
C1057  C1065   1.399   .     A
C1057  H927    1.081   1_655 S
C1058  C1060   1.391   .     A
C1058  C1066   1.399   .     A
C1059  H926    1.083   1_655 S
C1061  C1099   1.491   .     S
C1061  C1063   1.410   .     A
C1062  C1095   1.490   .     S
C1062  C1064   1.410   .     A
C1063  C1065   1.414   .     A
C1063  C1067   1.424   .     A
C1064  C1068   1.423   .     A
C1064  C1066   1.414   .     A
C1065  C375    1.393   1_556 S
C1067  C402    1.415   1_556 S
Cu1069 O1091   1.985   .     S
Cu1069 O1094   1.981   .     S
Cu1069 N1085   2.007   .     S
Cu1069 O1090   1.973   .     S
Cu1069 O1087   1.978   .     S
Cu1070 O1092   1.985   .     S
Cu1070 O1093   1.981   .     S
Cu1070 N1086   2.007   .     S
Cu1070 O1088   1.978   .     S
Cu1070 O1089   1.973   .     S
Cu1070 Cu921   2.671   1_655 S
H1073  C912    1.083   1_655 S
H1076  C910    1.081   1_655 S
O1089  C889    1.295   1_655 S
O1092  C906    1.301   1_655 S
C1095  O1096   1.223   .     D
C1095  O1097   1.397   .     S
O1097  H1098   1.014   .     S
C1099  O1101   1.398   .     S
C1099  O1100   1.222   .     D
O1101  H1102   1.013   .     S
C1103  O1104   1.223   .     D
C1103  O1105   1.397   .     S
O1105  H1106   1.014   .     S
C1107  O1109   1.397   .     S
C1107  O1108   1.223   .     D
O1109  H1110   1.014   .     S
C1111  C1122   1.459   .     S
C1111  O1161   1.287   .     A
C1111  O1311   1.295   1_455 S
C1112  C1121   1.459   .     S
C1112  O1162   1.287   .     A
C1112  O1238   1.295   .     S
C1113  H1151   1.077   .     S
C1113  C1115   1.388   .     A
C1113  C1142   1.412   .     A
C1114  C1116   1.388   .     A
C1114  H1152   1.078   .     S
C1114  C1141   1.412   .     A
C1115  H1145   1.083   .     S
C1116  H1146   1.083   .     S
C1116  C474    1.393   1_556 S
C1117  H1153   1.085   .     S
C1117  C1196   1.401   .     S
C1118  H1154   1.085   .     S
C1118  C676    1.387   1_565 S
C1118  C1269   1.400   1_455 S
C1119  C1177   1.482   .     S
C1119  C1121   1.417   .     A
C1119  C673    1.387   1_565 S
C1120  C1181   1.481   .     S
C1120  C1122   1.416   .     A
C1121  C1192   1.400   .     S
C1122  C1265   1.401   1_455 S
C1123  C1125   1.414   .     A
C1123  H1155   1.081   .     S
C1123  N1160   1.367   .     A
C1124  H1156   1.081   .     S
C1124  N1159   1.367   .     A
C1124  C1126   1.414   .     A
C1125  H1157   1.081   .     S
C1125  N1159   1.366   .     A
C1126  H1158   1.081   .     S
C1126  N1160   1.366   .     A
C1127  C1129   1.472   .     S
C1127  O1167   1.286   .     A
C1127  O1239   1.302   .     S
C1128  O1168   1.287   .     A
C1128  C1130   1.473   .     S
C1128  O1314   1.301   1_455 S
C1129  C1133   1.403   .     A
C1129  C1135   1.421   .     A
C1130  C1136   1.419   .     A
C1130  C1134   1.403   .     A
C1131  C1133   1.391   .     A
C1131  C1139   1.399   .     A
C1131  H1223   1.081   .     S
C1132  C1134   1.391   .     A
C1132  C1140   1.399   .     A
C1132  H1298   1.081   1_455 S
C1133  H1222   1.083   .     S
C1134  H1295   1.083   1_455 S
C1135  C1173   1.491   .     S
C1135  C1137   1.410   .     A
C1136  C1169   1.490   .     S
C1136  C1138   1.410   .     A
C1137  C1139   1.414   .     A
C1137  C1141   1.424   .     A
C1138  C1142   1.423   .     A
C1138  C1140   1.414   .     A
C1139  C449    1.393   1_556 S
C1141  C476    1.415   1_556 S
Cu1143 O1165   1.985   .     S
Cu1143 O1168   1.981   .     S
Cu1143 N1159   2.007   .     S
Cu1143 O1164   1.973   .     S
Cu1143 O1161   1.978   .     S
Cu1143 Cu1292  2.671   1_455 S
Cu1144 O1166   1.985   .     S
Cu1144 O1167   1.981   .     S
Cu1144 N1160   2.007   .     S
Cu1144 O1162   1.978   .     S
Cu1144 O1163   1.973   .     S
Cu1144 Cu1217  2.671   .     S
H1147  C1208   1.083   .     S
H1148  C1281   1.083   1_455 S
H1149  C1279   1.081   1_455 S
H1150  C1206   1.081   .     S
O1163  C1185   1.295   .     S
O1164  C1260   1.295   1_455 S
O1165  C1275   1.302   1_455 S
O1166  C1202   1.301   .     S
C1169  O1170   1.223   .     D
C1169  O1171   1.397   .     S
O1171  H1172   1.014   .     S
C1173  O1175   1.398   .     S
C1173  O1174   1.222   .     D
O1175  H1176   1.013   .     S
C1177  O1178   1.223   .     D
C1177  O1179   1.397   .     S
O1179  H1180   1.014   .     S
C1181  O1183   1.397   .     S
C1181  O1182   1.223   .     D
O1183  H1184   1.014   .     S
C1185  C1196   1.459   .     S
C1185  O1235   1.287   .     A
C1186  C1195   1.459   .     S
C1186  O1236   1.287   .     A
C1186  O1312   1.295   .     S
C1187  H1225   1.077   .     S
C1187  C1189   1.388   .     A
C1187  C1216   1.412   .     A
C1188  C1190   1.388   .     A
C1188  H1226   1.078   .     S
C1188  C1215   1.412   .     A
C1189  H1219   1.083   .     S
C1190  H1220   1.083   .     S
C1190  C548    1.393   1_556 S
C1191  H1227   1.085   .     S
C1191  C1270   1.401   .     S
C1192  H1228   1.085   .     S
C1192  C750    1.387   1_565 S
C1193  C1251   1.482   .     S
C1193  C1195   1.417   .     A
C1193  C747    1.387   1_565 S
C1194  C1255   1.481   .     S
C1194  C1196   1.416   .     A
C1195  C1266   1.400   .     S
C1197  C1199   1.414   .     A
C1197  H1229   1.081   .     S
C1197  N1234   1.367   .     A
C1198  H1230   1.081   .     S
C1198  N1233   1.367   .     A
C1198  C1200   1.414   .     A
C1199  H1231   1.081   .     S
C1199  N1233   1.366   .     A
C1200  H1232   1.081   .     S
C1200  N1234   1.366   .     A
C1201  C1203   1.472   .     S
C1201  O1241   1.286   .     A
C1201  O1313   1.302   .     S
C1202  O1242   1.287   .     A
C1202  C1204   1.473   .     S
C1203  C1207   1.403   .     A
C1203  C1209   1.421   .     A
C1204  C1210   1.419   .     A
C1204  C1208   1.403   .     A
C1205  C1207   1.391   .     A
C1205  C1213   1.399   .     A
C1205  H1297   1.081   .     S
C1206  C1208   1.391   .     A
C1206  C1214   1.399   .     A
C1207  H1296   1.083   .     S
C1209  C1247   1.491   .     S
C1209  C1211   1.410   .     A
C1210  C1243   1.490   .     S
C1210  C1212   1.410   .     A
C1211  C1213   1.414   .     A
C1211  C1215   1.424   .     A
C1212  C1216   1.423   .     A
C1212  C1214   1.414   .     A
C1213  C523    1.393   1_556 S
C1215  C550    1.415   1_556 S
Cu1217 O1239   1.985   .     S
Cu1217 O1242   1.981   .     S
Cu1217 N1233   2.007   .     S
Cu1217 O1238   1.973   .     S
Cu1217 O1235   1.978   .     S
Cu1218 O1240   1.985   .     S
Cu1218 O1241   1.981   .     S
Cu1218 N1234   2.007   .     S
Cu1218 O1236   1.978   .     S
Cu1218 O1237   1.973   .     S
Cu1218 Cu1291  2.671   .     S
H1221  C1282   1.083   .     S
H1224  C1280   1.081   .     S
O1237  C1259   1.295   .     S
O1240  C1276   1.301   .     S
C1243  O1244   1.223   .     D
C1243  O1245   1.397   .     S
O1245  H1246   1.014   .     S
C1247  O1249   1.398   .     S
C1247  O1248   1.222   .     D
O1249  H1250   1.013   .     S
C1251  O1252   1.223   .     D
C1251  O1253   1.397   .     S
O1253  H1254   1.014   .     S
C1255  O1257   1.397   .     S
C1255  O1256   1.223   .     D
O1257  H1258   1.014   .     S
C1259  C1270   1.459   .     S
C1259  O1309   1.287   .     A
C1260  C1269   1.459   .     S
C1260  O1310   1.287   .     A
C1260  O1164   1.295   1_655 S
C1261  H1299   1.077   .     S
C1261  C1263   1.388   .     A
C1261  C1290   1.412   .     A
C1262  C1264   1.388   .     A
C1262  H1300   1.078   .     S
C1262  C1289   1.412   .     A
C1263  H1293   1.083   .     S
C1264  H1294   1.083   .     S
C1264  C622    1.393   1_556 S
C1265  H1301   1.085   .     S
C1265  C1122   1.401   1_655 S
C1266  H1302   1.085   .     S
C1266  C824    1.387   1_565 S
C1267  C1325   1.482   .     S
C1267  C1269   1.417   .     A
C1267  C821    1.387   1_565 S
C1268  C1329   1.481   .     S
C1268  C1270   1.416   .     A
C1269  C1118   1.400   1_655 S
C1271  C1273   1.414   .     A
C1271  H1303   1.081   .     S
C1271  N1308   1.367   .     A
C1272  H1304   1.081   .     S
C1272  N1307   1.367   .     A
C1272  C1274   1.414   .     A
C1273  H1305   1.081   .     S
C1273  N1307   1.366   .     A
C1274  H1306   1.081   .     S
C1274  N1308   1.366   .     A
C1275  C1277   1.472   .     S
C1275  O1315   1.286   .     A
C1275  O1165   1.302   1_655 S
C1276  O1316   1.287   .     A
C1276  C1278   1.473   .     S
C1277  C1281   1.403   .     A
C1277  C1283   1.421   .     A
C1278  C1284   1.419   .     A
C1278  C1282   1.403   .     A
C1279  C1281   1.391   .     A
C1279  C1287   1.399   .     A
C1279  H1149   1.081   1_655 S
C1280  C1282   1.391   .     A
C1280  C1288   1.399   .     A
C1281  H1148   1.083   1_655 S
C1283  C1321   1.491   .     S
C1283  C1285   1.410   .     A
C1284  C1317   1.490   .     S
C1284  C1286   1.410   .     A
C1285  C1287   1.414   .     A
C1285  C1289   1.424   .     A
C1286  C1290   1.423   .     A
C1286  C1288   1.414   .     A
C1287  C597    1.393   1_556 S
C1289  C624    1.415   1_556 S
Cu1291 O1313   1.985   .     S
Cu1291 O1316   1.981   .     S
Cu1291 N1307   2.007   .     S
Cu1291 O1312   1.973   .     S
Cu1291 O1309   1.978   .     S
Cu1292 O1314   1.985   .     S
Cu1292 O1315   1.981   .     S
Cu1292 N1308   2.007   .     S
Cu1292 O1310   1.978   .     S
Cu1292 O1311   1.973   .     S
Cu1292 Cu1143  2.671   1_655 S
H1295  C1134   1.083   1_655 S
H1298  C1132   1.081   1_655 S
O1311  C1111   1.295   1_655 S
O1314  C1128   1.301   1_655 S
C1317  O1318   1.223   .     D
C1317  O1319   1.397   .     S
O1319  H1320   1.014   .     S
C1321  O1323   1.398   .     S
C1321  O1322   1.222   .     D
O1323  H1324   1.013   .     S
C1325  O1326   1.223   .     D
C1325  O1327   1.397   .     S
O1327  H1328   1.014   .     S
C1329  O1331   1.397   .     S
C1329  O1330   1.223   .     D
O1331  H1332   1.014   .     S
