data_str_m2_o1_o17_pcu_sym.212
_audit_creation_date              2020-01-03
_audit_creation_method            'Materials Studio'
_symmetry_space_group_name_H-M    'P1'
_symmetry_Int_Tables_number       1
_symmetry_cell_setting            triclinic
loop_
_symmetry_equiv_pos_as_xyz
  x,y,z
_cell_length_a                    32.8466
_cell_length_b                    28.9717
_cell_length_c                    30.0437
_cell_angle_alpha                 90.2600
_cell_angle_beta                  90.6976
_cell_angle_gamma                 89.2806
loop_
_atom_site_label
_atom_site_type_symbol
_atom_site_fract_x
_atom_site_fract_y
_atom_site_fract_z
_atom_site_U_iso_or_equiv
_atom_site_adp_type
_atom_site_occupancy
C1     C     0.08747   0.16694   0.25030   0.00000  Uiso   1.00
C2     C     0.24570   0.16659   0.24723   0.00000  Uiso   1.00
C3     C     0.09214   0.15837   0.02247   0.00000  Uiso   1.00
C4     C     0.24006   0.15638   0.47743   0.00000  Uiso   1.00
C5     C     0.02089   0.12619   0.25490   0.00000  Uiso   1.00
C6     C     0.31152   0.20903   0.23862   0.00000  Uiso   1.00
C7     C     0.31282   0.12538   0.24496   0.00000  Uiso   1.00
C8     C     0.02071   0.20871   0.23844   0.00000  Uiso   1.00
C9     C     0.29042   0.16700   0.24331   0.00000  Uiso   1.00
C10    C     0.04259   0.16753   0.24883   0.00000  Uiso   1.00
C11    C     0.15023   0.02507   0.21515   0.00000  Uiso   1.00
C12    C     0.18013   0.30913   0.28643   0.00000  Uiso   1.00
C13    C     0.18401   0.02484   0.28431   0.00000  Uiso   1.00
C14    C     0.15406   0.30928   0.21320   0.00000  Uiso   1.00
C15    C     0.16756   0.16637   0.16473   0.00000  Uiso   1.00
C16    C     0.16518   0.16667   0.33522   0.00000  Uiso   1.00
C17    C     0.20284   0.16146   0.40646   0.00000  Uiso   1.00
C18    C     0.12947   0.16397   0.09342   0.00000  Uiso   1.00
C19    C     0.16546   0.16598   0.38350   0.00000  Uiso   1.00
C20    C     0.16695   0.16496   0.11643   0.00000  Uiso   1.00
C21    C     0.12824   0.16747   0.40614   0.00000  Uiso   1.00
C22    C     0.20391   0.16122   0.09365   0.00000  Uiso   1.00
C23    C     0.12844   0.16234   0.45277   0.00000  Uiso   1.00
C24    C     0.20358   0.15911   0.04701   0.00000  Uiso   1.00
C25    C     0.16596   0.16091   0.47639   0.00000  Uiso   1.00
C26    C     0.16614   0.16046   0.02339   0.00000  Uiso   1.00
C27    C     0.20326   0.15974   0.45321   0.00000  Uiso   1.00
C28    C     0.12891   0.16117   0.04665   0.00000  Uiso   1.00
C29    C     0.09205   0.15788   0.47627   0.00000  Uiso   1.00
C30    C     0.24014   0.15577   0.02359   0.00000  Uiso   1.00
Cu31   Cu    0.16667   0.21355   0.25000   0.00000  Uiso   1.00
Cu32   Cu    0.16667   0.11978   0.25000   0.00000  Uiso   1.00
H33    H     0.06319   0.15359   0.45926   0.00000  Uiso   1.00
H34    H     0.26918   0.15313   0.04075   0.00000  Uiso   1.00
H35    H     0.06312   0.15636   0.03901   0.00000  Uiso   1.00
H36    H     0.26918   0.15445   0.46099   0.00000  Uiso   1.00
N37    N     0.16667   0.28402   0.25000   0.00000  Uiso   1.00
N38    N     0.16667   0.04931   0.25000   0.00000  Uiso   1.00
O39    O     0.10655   0.20625   0.24999   0.00000  Uiso   1.00
O40    O     0.22679   0.12709   0.25000   0.00000  Uiso   1.00
O41    O     0.22679   0.20625   0.25000   0.00000  Uiso   1.00
O42    O     0.10655   0.12709   0.24999   0.00000  Uiso   1.00
O43    O     0.16666   0.20627   0.18513   0.00000  Uiso   1.00
O44    O     0.16668   0.12707   0.31487   0.00000  Uiso   1.00
O45    O     0.16668   0.20627   0.31487   0.00000  Uiso   1.00
O46    O     0.16666   0.12707   0.18513   0.00000  Uiso   1.00
C47    C     0.24061   0.16030   0.38168   0.00000  Uiso   1.00
N48    N     0.27066   0.15949   0.36196   0.00000  Uiso   1.00
C49    C     0.09193   0.16699   0.11820   0.00000  Uiso   1.00
N50    N     0.06213   0.16949   0.13818   0.00000  Uiso   1.00
O51    O     0.09211   0.17176   0.38175   0.00000  Uiso   1.00
C52    C     0.07294   0.21505   0.39045   0.00000  Uiso   1.00
H53    H     0.09405   0.24179   0.40357   0.00000  Uiso   1.00
H54    H     0.04837   0.21090   0.41500   0.00000  Uiso   1.00
C55    C     0.05286   0.23320   0.34811   0.00000  Uiso   1.00
H56    H     0.03717   0.26660   0.35499   0.00000  Uiso   1.00
H57    H     0.07611   0.23876   0.32237   0.00000  Uiso   1.00
H58    H     0.03005   0.20814   0.33567   0.00000  Uiso   1.00
O59    O     0.24026   0.15618   0.11706   0.00000  Uiso   1.00
C60    C     0.25743   0.20004   0.12458   0.00000  Uiso   1.00
H61    H     0.24716   0.21322   0.15729   0.00000  Uiso   1.00
H62    H     0.24937   0.22599   0.09841   0.00000  Uiso   1.00
C63    C     0.30353   0.19516   0.12611   0.00000  Uiso   1.00
H64    H     0.31523   0.18561   0.09279   0.00000  Uiso   1.00
H65    H     0.31728   0.22840   0.13648   0.00000  Uiso   1.00
H66    H     0.31273   0.16792   0.15018   0.00000  Uiso   1.00
C67    C     0.03935   0.08500   0.27425   0.00000  Uiso   1.00
N68    N     0.05378   0.05225   0.29016   0.00000  Uiso   1.00
C69    C     0.29020   0.25233   0.22993   0.00000  Uiso   1.00
N70    N     0.27290   0.28652   0.22274   0.00000  Uiso   1.00
C71    C     0.29546   0.08262   0.22915   0.00000  Uiso   1.00
N72    N     0.28156   0.04890   0.21549   0.00000  Uiso   1.00
C73    C     0.04094   0.25123   0.22725   0.00000  Uiso   1.00
N74    N     0.05681   0.28524   0.21829   0.00000  Uiso   1.00
O75    O     0.13503   0.04835   0.17830   0.00000  Uiso   1.00
C76    C     0.09204   0.05140   0.17936   0.00000  Uiso   1.00
H77    H     0.08306   0.08830   0.18106   0.00000  Uiso   1.00
H78    H     0.07805   0.03404   0.20814   0.00000  Uiso   1.00
C79    C     0.07383   0.03200   0.13651   0.00000  Uiso   1.00
H80    H     0.07943   0.32756   0.13451   0.00000  Uiso   1.00
H81    H     0.04042   0.03842   0.13588   0.00000  Uiso   1.00
H82    H     0.08742   0.04907   0.10728   0.00000  Uiso   1.00
O83    O     0.19226   0.28725   0.32521   0.00000  Uiso   1.00
C84    C     0.16296   0.29652   0.35860   0.00000  Uiso   1.00
H85    H     0.13607   0.27465   0.35264   0.00000  Uiso   1.00
H86    H     0.15185   0.33299   0.35940   0.00000  Uiso   1.00
C87    C     0.18096   0.28579   0.40445   0.00000  Uiso   1.00
H88    H     0.19902   0.31538   0.41684   0.00000  Uiso   1.00
H89    H     0.15624   0.27966   0.42850   0.00000  Uiso   1.00
H90    H     0.20103   0.25487   0.40302   0.00000  Uiso   1.00
O91    O     0.20208   0.04803   0.31958   0.00000  Uiso   1.00
C92    C     0.24497   0.04251   0.31855   0.00000  Uiso   1.00
H93    H     0.25821   0.07593   0.30906   0.00000  Uiso   1.00
H94    H     0.25622   0.01553   0.29492   0.00000  Uiso   1.00
C95    C     0.26146   0.03087   0.36473   0.00000  Uiso   1.00
H96    H     0.25548   0.32756   0.37243   0.00000  Uiso   1.00
H97    H     0.29493   0.03589   0.36579   0.00000  Uiso   1.00
H98    H     0.24716   0.05356   0.39018   0.00000  Uiso   1.00
O99    O     0.14376   0.28762   0.17369   0.00000  Uiso   1.00
C100   C     0.17449   0.29587   0.14186   0.00000  Uiso   1.00
H101   H     0.20046   0.27191   0.14767   0.00000  Uiso   1.00
H102   H     0.18700   0.33143   0.14295   0.00000  Uiso   1.00
C103   C     0.15762   0.28805   0.09505   0.00000  Uiso   1.00
H104   H     0.13814   0.31778   0.08482   0.00000  Uiso   1.00
H105   H     0.18305   0.28451   0.07119   0.00000  Uiso   1.00
H106   H     0.13915   0.25640   0.09374   0.00000  Uiso   1.00
C107   C     0.42080   0.16694   0.25030   0.00000  Uiso   1.00
C108   C     0.57903   0.16659   0.24723   0.00000  Uiso   1.00
C109   C     0.42547   0.15837   0.02247   0.00000  Uiso   1.00
C110   C     0.57340   0.15638   0.47743   0.00000  Uiso   1.00
C111   C     0.35422   0.12619   0.25490   0.00000  Uiso   1.00
C112   C     0.64485   0.20903   0.23862   0.00000  Uiso   1.00
C113   C     0.64616   0.12538   0.24496   0.00000  Uiso   1.00
C114   C     0.35405   0.20871   0.23844   0.00000  Uiso   1.00
C115   C     0.62375   0.16700   0.24331   0.00000  Uiso   1.00
C116   C     0.37592   0.16753   0.24883   0.00000  Uiso   1.00
C117   C     0.48356   0.02507   0.21515   0.00000  Uiso   1.00
C118   C     0.51347   0.30913   0.28643   0.00000  Uiso   1.00
C119   C     0.51734   0.02484   0.28431   0.00000  Uiso   1.00
C120   C     0.48739   0.30928   0.21320   0.00000  Uiso   1.00
C121   C     0.50089   0.16637   0.16473   0.00000  Uiso   1.00
C122   C     0.49851   0.16667   0.33522   0.00000  Uiso   1.00
C123   C     0.53618   0.16146   0.40646   0.00000  Uiso   1.00
C124   C     0.46280   0.16397   0.09342   0.00000  Uiso   1.00
C125   C     0.49880   0.16598   0.38350   0.00000  Uiso   1.00
C126   C     0.50028   0.16496   0.11643   0.00000  Uiso   1.00
C127   C     0.46158   0.16747   0.40614   0.00000  Uiso   1.00
C128   C     0.53724   0.16122   0.09365   0.00000  Uiso   1.00
C129   C     0.46178   0.16234   0.45277   0.00000  Uiso   1.00
C130   C     0.53692   0.15911   0.04701   0.00000  Uiso   1.00
C131   C     0.49929   0.16091   0.47639   0.00000  Uiso   1.00
C132   C     0.49948   0.16046   0.02339   0.00000  Uiso   1.00
C133   C     0.53660   0.15974   0.45321   0.00000  Uiso   1.00
C134   C     0.46225   0.16117   0.04665   0.00000  Uiso   1.00
C135   C     0.42539   0.15788   0.47627   0.00000  Uiso   1.00
C136   C     0.57348   0.15577   0.02359   0.00000  Uiso   1.00
Cu137  Cu    0.50000   0.21355   0.25000   0.00000  Uiso   1.00
Cu138  Cu    0.50000   0.11978   0.25000   0.00000  Uiso   1.00
H139   H     0.39652   0.15359   0.45926   0.00000  Uiso   1.00
H140   H     0.60252   0.15313   0.04075   0.00000  Uiso   1.00
H141   H     0.39645   0.15636   0.03901   0.00000  Uiso   1.00
H142   H     0.60251   0.15445   0.46099   0.00000  Uiso   1.00
N143   N     0.50000   0.28402   0.25000   0.00000  Uiso   1.00
N144   N     0.50000   0.04931   0.25000   0.00000  Uiso   1.00
O145   O     0.43988   0.20625   0.24999   0.00000  Uiso   1.00
O146   O     0.56012   0.12709   0.25000   0.00000  Uiso   1.00
O147   O     0.56012   0.20625   0.25000   0.00000  Uiso   1.00
O148   O     0.43988   0.12709   0.24999   0.00000  Uiso   1.00
O149   O     0.49999   0.20627   0.18513   0.00000  Uiso   1.00
O150   O     0.50001   0.12707   0.31487   0.00000  Uiso   1.00
O151   O     0.50001   0.20627   0.31487   0.00000  Uiso   1.00
O152   O     0.49999   0.12707   0.18513   0.00000  Uiso   1.00
C153   C     0.57394   0.16030   0.38168   0.00000  Uiso   1.00
N154   N     0.60399   0.15949   0.36196   0.00000  Uiso   1.00
C155   C     0.42527   0.16699   0.11820   0.00000  Uiso   1.00
N156   N     0.39547   0.16949   0.13818   0.00000  Uiso   1.00
O157   O     0.42544   0.17176   0.38175   0.00000  Uiso   1.00
C158   C     0.40628   0.21505   0.39045   0.00000  Uiso   1.00
H159   H     0.42738   0.24179   0.40357   0.00000  Uiso   1.00
H160   H     0.38170   0.21090   0.41500   0.00000  Uiso   1.00
C161   C     0.38619   0.23320   0.34811   0.00000  Uiso   1.00
H162   H     0.37050   0.26660   0.35499   0.00000  Uiso   1.00
H163   H     0.40944   0.23876   0.32237   0.00000  Uiso   1.00
H164   H     0.36338   0.20814   0.33567   0.00000  Uiso   1.00
O165   O     0.57359   0.15618   0.11706   0.00000  Uiso   1.00
C166   C     0.59076   0.20004   0.12458   0.00000  Uiso   1.00
H167   H     0.58049   0.21322   0.15729   0.00000  Uiso   1.00
H168   H     0.58271   0.22599   0.09841   0.00000  Uiso   1.00
C169   C     0.63686   0.19516   0.12611   0.00000  Uiso   1.00
H170   H     0.64857   0.18561   0.09279   0.00000  Uiso   1.00
H171   H     0.65061   0.22840   0.13648   0.00000  Uiso   1.00
H172   H     0.64606   0.16792   0.15018   0.00000  Uiso   1.00
C173   C     0.37268   0.08500   0.27425   0.00000  Uiso   1.00
N174   N     0.38711   0.05225   0.29016   0.00000  Uiso   1.00
C175   C     0.62354   0.25233   0.22993   0.00000  Uiso   1.00
N176   N     0.60623   0.28652   0.22274   0.00000  Uiso   1.00
C177   C     0.62879   0.08262   0.22915   0.00000  Uiso   1.00
N178   N     0.61489   0.04890   0.21549   0.00000  Uiso   1.00
C179   C     0.37427   0.25123   0.22725   0.00000  Uiso   1.00
N180   N     0.39014   0.28524   0.21829   0.00000  Uiso   1.00
O181   O     0.46836   0.04835   0.17830   0.00000  Uiso   1.00
C182   C     0.42537   0.05140   0.17936   0.00000  Uiso   1.00
H183   H     0.41639   0.08830   0.18106   0.00000  Uiso   1.00
H184   H     0.41138   0.03404   0.20814   0.00000  Uiso   1.00
C185   C     0.40717   0.03200   0.13651   0.00000  Uiso   1.00
H186   H     0.41276   0.32756   0.13451   0.00000  Uiso   1.00
H187   H     0.37376   0.03842   0.13588   0.00000  Uiso   1.00
H188   H     0.42076   0.04907   0.10728   0.00000  Uiso   1.00
O189   O     0.52559   0.28725   0.32521   0.00000  Uiso   1.00
C190   C     0.49630   0.29652   0.35860   0.00000  Uiso   1.00
H191   H     0.46940   0.27465   0.35264   0.00000  Uiso   1.00
H192   H     0.48518   0.33299   0.35940   0.00000  Uiso   1.00
C193   C     0.51429   0.28579   0.40445   0.00000  Uiso   1.00
H194   H     0.53235   0.31538   0.41684   0.00000  Uiso   1.00
H195   H     0.48957   0.27966   0.42850   0.00000  Uiso   1.00
H196   H     0.53437   0.25487   0.40302   0.00000  Uiso   1.00
O197   O     0.53541   0.04803   0.31958   0.00000  Uiso   1.00
C198   C     0.57831   0.04251   0.31855   0.00000  Uiso   1.00
H199   H     0.59155   0.07593   0.30906   0.00000  Uiso   1.00
H200   H     0.58955   0.01553   0.29492   0.00000  Uiso   1.00
C201   C     0.59479   0.03087   0.36473   0.00000  Uiso   1.00
H202   H     0.58881   0.32756   0.37243   0.00000  Uiso   1.00
H203   H     0.62826   0.03589   0.36579   0.00000  Uiso   1.00
H204   H     0.58049   0.05356   0.39018   0.00000  Uiso   1.00
O205   O     0.47709   0.28762   0.17369   0.00000  Uiso   1.00
C206   C     0.50782   0.29587   0.14186   0.00000  Uiso   1.00
H207   H     0.53379   0.27191   0.14767   0.00000  Uiso   1.00
H208   H     0.52033   0.33143   0.14295   0.00000  Uiso   1.00
C209   C     0.49096   0.28805   0.09505   0.00000  Uiso   1.00
H210   H     0.47147   0.31778   0.08482   0.00000  Uiso   1.00
H211   H     0.51638   0.28451   0.07119   0.00000  Uiso   1.00
H212   H     0.47249   0.25640   0.09374   0.00000  Uiso   1.00
C213   C     0.75414   0.16694   0.25030   0.00000  Uiso   1.00
C214   C     0.91237   0.16659   0.24723   0.00000  Uiso   1.00
C215   C     0.75881   0.15837   0.02247   0.00000  Uiso   1.00
C216   C     0.90673   0.15638   0.47743   0.00000  Uiso   1.00
C217   C     0.68756   0.12619   0.25490   0.00000  Uiso   1.00
C218   C     0.97819   0.20903   0.23862   0.00000  Uiso   1.00
C219   C     0.97949   0.12538   0.24496   0.00000  Uiso   1.00
C220   C     0.68738   0.20871   0.23844   0.00000  Uiso   1.00
C221   C     0.95708   0.16700   0.24331   0.00000  Uiso   1.00
C222   C     0.70926   0.16753   0.24883   0.00000  Uiso   1.00
C223   C     0.81690   0.02507   0.21515   0.00000  Uiso   1.00
C224   C     0.84680   0.30913   0.28643   0.00000  Uiso   1.00
C225   C     0.85068   0.02484   0.28431   0.00000  Uiso   1.00
C226   C     0.82073   0.30928   0.21320   0.00000  Uiso   1.00
C227   C     0.83423   0.16637   0.16473   0.00000  Uiso   1.00
C228   C     0.83184   0.16667   0.33522   0.00000  Uiso   1.00
C229   C     0.86951   0.16146   0.40646   0.00000  Uiso   1.00
C230   C     0.79614   0.16397   0.09342   0.00000  Uiso   1.00
C231   C     0.83213   0.16598   0.38350   0.00000  Uiso   1.00
C232   C     0.83362   0.16496   0.11643   0.00000  Uiso   1.00
C233   C     0.79491   0.16747   0.40614   0.00000  Uiso   1.00
C234   C     0.87058   0.16122   0.09365   0.00000  Uiso   1.00
C235   C     0.79511   0.16234   0.45277   0.00000  Uiso   1.00
C236   C     0.87025   0.15911   0.04701   0.00000  Uiso   1.00
C237   C     0.83262   0.16091   0.47639   0.00000  Uiso   1.00
C238   C     0.83281   0.16046   0.02339   0.00000  Uiso   1.00
C239   C     0.86993   0.15974   0.45321   0.00000  Uiso   1.00
C240   C     0.79558   0.16117   0.04665   0.00000  Uiso   1.00
C241   C     0.75872   0.15788   0.47627   0.00000  Uiso   1.00
C242   C     0.90681   0.15577   0.02359   0.00000  Uiso   1.00
Cu243  Cu    0.83333   0.21355   0.25000   0.00000  Uiso   1.00
Cu244  Cu    0.83333   0.11978   0.25000   0.00000  Uiso   1.00
H245   H     0.72985   0.15359   0.45926   0.00000  Uiso   1.00
H246   H     0.93585   0.15313   0.04075   0.00000  Uiso   1.00
H247   H     0.72979   0.15636   0.03901   0.00000  Uiso   1.00
H248   H     0.93585   0.15445   0.46099   0.00000  Uiso   1.00
N249   N     0.83333   0.28402   0.25000   0.00000  Uiso   1.00
N250   N     0.83333   0.04931   0.25000   0.00000  Uiso   1.00
O251   O     0.77321   0.20625   0.24999   0.00000  Uiso   1.00
O252   O     0.89345   0.12709   0.25000   0.00000  Uiso   1.00
O253   O     0.89345   0.20625   0.25000   0.00000  Uiso   1.00
O254   O     0.77321   0.12709   0.24999   0.00000  Uiso   1.00
O255   O     0.83332   0.20627   0.18513   0.00000  Uiso   1.00
O256   O     0.83334   0.12707   0.31487   0.00000  Uiso   1.00
O257   O     0.83334   0.20627   0.31487   0.00000  Uiso   1.00
O258   O     0.83332   0.12707   0.18513   0.00000  Uiso   1.00
C259   C     0.90727   0.16030   0.38168   0.00000  Uiso   1.00
N260   N     0.93732   0.15949   0.36196   0.00000  Uiso   1.00
C261   C     0.75860   0.16699   0.11820   0.00000  Uiso   1.00
N262   N     0.72880   0.16949   0.13818   0.00000  Uiso   1.00
O263   O     0.75877   0.17176   0.38175   0.00000  Uiso   1.00
C264   C     0.73961   0.21505   0.39045   0.00000  Uiso   1.00
H265   H     0.76072   0.24179   0.40357   0.00000  Uiso   1.00
H266   H     0.71503   0.21090   0.41500   0.00000  Uiso   1.00
C267   C     0.71952   0.23320   0.34811   0.00000  Uiso   1.00
H268   H     0.70383   0.26660   0.35499   0.00000  Uiso   1.00
H269   H     0.74277   0.23876   0.32237   0.00000  Uiso   1.00
H270   H     0.69671   0.20814   0.33567   0.00000  Uiso   1.00
O271   O     0.90693   0.15618   0.11706   0.00000  Uiso   1.00
C272   C     0.92410   0.20004   0.12458   0.00000  Uiso   1.00
H273   H     0.91383   0.21322   0.15729   0.00000  Uiso   1.00
H274   H     0.91604   0.22599   0.09841   0.00000  Uiso   1.00
C275   C     0.97020   0.19516   0.12611   0.00000  Uiso   1.00
H276   H     0.98190   0.18561   0.09279   0.00000  Uiso   1.00
H277   H     0.98394   0.22840   0.13648   0.00000  Uiso   1.00
H278   H     0.97939   0.16792   0.15018   0.00000  Uiso   1.00
C279   C     0.70602   0.08500   0.27425   0.00000  Uiso   1.00
N280   N     0.72044   0.05225   0.29016   0.00000  Uiso   1.00
C281   C     0.95687   0.25233   0.22993   0.00000  Uiso   1.00
N282   N     0.93956   0.28652   0.22274   0.00000  Uiso   1.00
C283   C     0.96213   0.08262   0.22915   0.00000  Uiso   1.00
N284   N     0.94822   0.04890   0.21549   0.00000  Uiso   1.00
C285   C     0.70760   0.25123   0.22725   0.00000  Uiso   1.00
N286   N     0.72348   0.28524   0.21829   0.00000  Uiso   1.00
O287   O     0.80169   0.04835   0.17830   0.00000  Uiso   1.00
C288   C     0.75870   0.05140   0.17936   0.00000  Uiso   1.00
H289   H     0.74973   0.08830   0.18106   0.00000  Uiso   1.00
H290   H     0.74471   0.03404   0.20814   0.00000  Uiso   1.00
C291   C     0.74050   0.03200   0.13651   0.00000  Uiso   1.00
H292   H     0.74610   0.32756   0.13451   0.00000  Uiso   1.00
H293   H     0.70709   0.03842   0.13588   0.00000  Uiso   1.00
H294   H     0.75409   0.04907   0.10728   0.00000  Uiso   1.00
O295   O     0.85893   0.28725   0.32521   0.00000  Uiso   1.00
C296   C     0.82963   0.29652   0.35860   0.00000  Uiso   1.00
H297   H     0.80273   0.27465   0.35264   0.00000  Uiso   1.00
H298   H     0.81851   0.33299   0.35940   0.00000  Uiso   1.00
C299   C     0.84763   0.28579   0.40445   0.00000  Uiso   1.00
H300   H     0.86569   0.31538   0.41684   0.00000  Uiso   1.00
H301   H     0.82290   0.27966   0.42850   0.00000  Uiso   1.00
H302   H     0.86770   0.25487   0.40302   0.00000  Uiso   1.00
O303   O     0.86875   0.04803   0.31958   0.00000  Uiso   1.00
C304   C     0.91164   0.04251   0.31855   0.00000  Uiso   1.00
H305   H     0.92488   0.07593   0.30906   0.00000  Uiso   1.00
H306   H     0.92289   0.01553   0.29492   0.00000  Uiso   1.00
C307   C     0.92813   0.03087   0.36473   0.00000  Uiso   1.00
H308   H     0.92215   0.32756   0.37243   0.00000  Uiso   1.00
H309   H     0.96159   0.03589   0.36579   0.00000  Uiso   1.00
H310   H     0.91383   0.05356   0.39018   0.00000  Uiso   1.00
O311   O     0.81042   0.28762   0.17369   0.00000  Uiso   1.00
C312   C     0.84116   0.29587   0.14186   0.00000  Uiso   1.00
H313   H     0.86713   0.27191   0.14767   0.00000  Uiso   1.00
H314   H     0.85366   0.33143   0.14295   0.00000  Uiso   1.00
C315   C     0.82429   0.28805   0.09505   0.00000  Uiso   1.00
H316   H     0.80481   0.31778   0.08482   0.00000  Uiso   1.00
H317   H     0.84971   0.28451   0.07119   0.00000  Uiso   1.00
H318   H     0.80582   0.25640   0.09374   0.00000  Uiso   1.00
C319   C     0.08747   0.50027   0.25030   0.00000  Uiso   1.00
C320   C     0.24570   0.49992   0.24723   0.00000  Uiso   1.00
C321   C     0.09214   0.49170   0.02247   0.00000  Uiso   1.00
C322   C     0.24006   0.48971   0.47743   0.00000  Uiso   1.00
C323   C     0.02089   0.45952   0.25490   0.00000  Uiso   1.00
C324   C     0.31152   0.54236   0.23862   0.00000  Uiso   1.00
C325   C     0.31282   0.45871   0.24496   0.00000  Uiso   1.00
C326   C     0.02071   0.54204   0.23844   0.00000  Uiso   1.00
C327   C     0.29042   0.50034   0.24331   0.00000  Uiso   1.00
C328   C     0.04259   0.50086   0.24883   0.00000  Uiso   1.00
C329   C     0.15023   0.35840   0.21515   0.00000  Uiso   1.00
C330   C     0.18013   0.64246   0.28643   0.00000  Uiso   1.00
C331   C     0.18401   0.35818   0.28431   0.00000  Uiso   1.00
C332   C     0.15406   0.64261   0.21320   0.00000  Uiso   1.00
C333   C     0.16756   0.49971   0.16473   0.00000  Uiso   1.00
C334   C     0.16518   0.50001   0.33522   0.00000  Uiso   1.00
C335   C     0.20284   0.49479   0.40646   0.00000  Uiso   1.00
C336   C     0.12947   0.49730   0.09342   0.00000  Uiso   1.00
C337   C     0.16546   0.49932   0.38350   0.00000  Uiso   1.00
C338   C     0.16695   0.49830   0.11643   0.00000  Uiso   1.00
C339   C     0.12824   0.50080   0.40614   0.00000  Uiso   1.00
C340   C     0.20391   0.49455   0.09365   0.00000  Uiso   1.00
C341   C     0.12844   0.49567   0.45277   0.00000  Uiso   1.00
C342   C     0.20358   0.49245   0.04701   0.00000  Uiso   1.00
C343   C     0.16596   0.49424   0.47639   0.00000  Uiso   1.00
C344   C     0.16614   0.49379   0.02339   0.00000  Uiso   1.00
C345   C     0.20326   0.49307   0.45321   0.00000  Uiso   1.00
C346   C     0.12891   0.49450   0.04665   0.00000  Uiso   1.00
C347   C     0.09205   0.49121   0.47627   0.00000  Uiso   1.00
C348   C     0.24014   0.48910   0.02359   0.00000  Uiso   1.00
Cu349  Cu    0.16667   0.54689   0.25000   0.00000  Uiso   1.00
Cu350  Cu    0.16667   0.45311   0.25000   0.00000  Uiso   1.00
H351   H     0.06319   0.48693   0.45926   0.00000  Uiso   1.00
H352   H     0.26918   0.48646   0.04075   0.00000  Uiso   1.00
H353   H     0.06312   0.48970   0.03901   0.00000  Uiso   1.00
H354   H     0.26918   0.48779   0.46099   0.00000  Uiso   1.00
N355   N     0.16667   0.61736   0.25000   0.00000  Uiso   1.00
N356   N     0.16667   0.38264   0.25000   0.00000  Uiso   1.00
O357   O     0.10655   0.53958   0.24999   0.00000  Uiso   1.00
O358   O     0.22679   0.46042   0.25000   0.00000  Uiso   1.00
O359   O     0.22679   0.53958   0.25000   0.00000  Uiso   1.00
O360   O     0.10655   0.46042   0.24999   0.00000  Uiso   1.00
O361   O     0.16666   0.53960   0.18513   0.00000  Uiso   1.00
O362   O     0.16668   0.46040   0.31487   0.00000  Uiso   1.00
O363   O     0.16668   0.53960   0.31487   0.00000  Uiso   1.00
O364   O     0.16666   0.46040   0.18513   0.00000  Uiso   1.00
C365   C     0.24061   0.49364   0.38168   0.00000  Uiso   1.00
N366   N     0.27066   0.49282   0.36196   0.00000  Uiso   1.00
C367   C     0.09193   0.50032   0.11820   0.00000  Uiso   1.00
N368   N     0.06213   0.50282   0.13818   0.00000  Uiso   1.00
O369   O     0.09211   0.50509   0.38175   0.00000  Uiso   1.00
C370   C     0.07294   0.54838   0.39045   0.00000  Uiso   1.00
H371   H     0.09405   0.57512   0.40357   0.00000  Uiso   1.00
H372   H     0.04837   0.54423   0.41500   0.00000  Uiso   1.00
C373   C     0.05286   0.56653   0.34811   0.00000  Uiso   1.00
H374   H     0.03717   0.59994   0.35499   0.00000  Uiso   1.00
H375   H     0.07611   0.57209   0.32237   0.00000  Uiso   1.00
H376   H     0.03005   0.54148   0.33567   0.00000  Uiso   1.00
O377   O     0.24026   0.48952   0.11706   0.00000  Uiso   1.00
C378   C     0.25743   0.53337   0.12458   0.00000  Uiso   1.00
H379   H     0.24716   0.54655   0.15729   0.00000  Uiso   1.00
H380   H     0.24937   0.55932   0.09841   0.00000  Uiso   1.00
C381   C     0.30353   0.52849   0.12611   0.00000  Uiso   1.00
H382   H     0.31523   0.51895   0.09279   0.00000  Uiso   1.00
H383   H     0.31728   0.56173   0.13648   0.00000  Uiso   1.00
H384   H     0.31273   0.50125   0.15018   0.00000  Uiso   1.00
C385   C     0.03935   0.41833   0.27425   0.00000  Uiso   1.00
N386   N     0.05378   0.38558   0.29016   0.00000  Uiso   1.00
C387   C     0.29020   0.58567   0.22993   0.00000  Uiso   1.00
N388   N     0.27290   0.61985   0.22274   0.00000  Uiso   1.00
C389   C     0.29546   0.41596   0.22915   0.00000  Uiso   1.00
N390   N     0.28156   0.38223   0.21549   0.00000  Uiso   1.00
C391   C     0.04094   0.58456   0.22725   0.00000  Uiso   1.00
N392   N     0.05681   0.61857   0.21829   0.00000  Uiso   1.00
O393   O     0.13503   0.38168   0.17830   0.00000  Uiso   1.00
C394   C     0.09204   0.38473   0.17936   0.00000  Uiso   1.00
H395   H     0.08306   0.42163   0.18106   0.00000  Uiso   1.00
H396   H     0.07805   0.36737   0.20814   0.00000  Uiso   1.00
C397   C     0.07383   0.36533   0.13651   0.00000  Uiso   1.00
H398   H     0.07943   0.66089   0.13451   0.00000  Uiso   1.00
H399   H     0.04042   0.37176   0.13588   0.00000  Uiso   1.00
H400   H     0.08742   0.38240   0.10728   0.00000  Uiso   1.00
O401   O     0.19226   0.62059   0.32521   0.00000  Uiso   1.00
C402   C     0.16296   0.62986   0.35860   0.00000  Uiso   1.00
H403   H     0.13607   0.60798   0.35264   0.00000  Uiso   1.00
H404   H     0.15185   0.66633   0.35940   0.00000  Uiso   1.00
C405   C     0.18096   0.61913   0.40445   0.00000  Uiso   1.00
H406   H     0.19902   0.64871   0.41684   0.00000  Uiso   1.00
H407   H     0.15624   0.61300   0.42850   0.00000  Uiso   1.00
H408   H     0.20103   0.58821   0.40302   0.00000  Uiso   1.00
O409   O     0.20208   0.38136   0.31958   0.00000  Uiso   1.00
C410   C     0.24497   0.37584   0.31855   0.00000  Uiso   1.00
H411   H     0.25821   0.40926   0.30906   0.00000  Uiso   1.00
H412   H     0.25622   0.34886   0.29492   0.00000  Uiso   1.00
C413   C     0.26146   0.36420   0.36473   0.00000  Uiso   1.00
H414   H     0.25548   0.66089   0.37243   0.00000  Uiso   1.00
H415   H     0.29493   0.36922   0.36579   0.00000  Uiso   1.00
H416   H     0.24716   0.38690   0.39018   0.00000  Uiso   1.00
O417   O     0.14376   0.62095   0.17369   0.00000  Uiso   1.00
C418   C     0.17449   0.62921   0.14186   0.00000  Uiso   1.00
H419   H     0.20046   0.60524   0.14767   0.00000  Uiso   1.00
H420   H     0.18700   0.66476   0.14295   0.00000  Uiso   1.00
C421   C     0.15762   0.62138   0.09505   0.00000  Uiso   1.00
H422   H     0.13814   0.65111   0.08482   0.00000  Uiso   1.00
H423   H     0.18305   0.61784   0.07119   0.00000  Uiso   1.00
H424   H     0.13915   0.58973   0.09374   0.00000  Uiso   1.00
C425   C     0.42080   0.50027   0.25030   0.00000  Uiso   1.00
C426   C     0.57903   0.49992   0.24723   0.00000  Uiso   1.00
C427   C     0.42547   0.49170   0.02247   0.00000  Uiso   1.00
C428   C     0.57340   0.48971   0.47743   0.00000  Uiso   1.00
C429   C     0.35422   0.45952   0.25490   0.00000  Uiso   1.00
C430   C     0.64485   0.54236   0.23862   0.00000  Uiso   1.00
C431   C     0.64616   0.45871   0.24496   0.00000  Uiso   1.00
C432   C     0.35405   0.54204   0.23844   0.00000  Uiso   1.00
C433   C     0.62375   0.50034   0.24331   0.00000  Uiso   1.00
C434   C     0.37592   0.50086   0.24883   0.00000  Uiso   1.00
C435   C     0.48356   0.35840   0.21515   0.00000  Uiso   1.00
C436   C     0.51347   0.64246   0.28643   0.00000  Uiso   1.00
C437   C     0.51734   0.35818   0.28431   0.00000  Uiso   1.00
C438   C     0.48739   0.64261   0.21320   0.00000  Uiso   1.00
C439   C     0.50089   0.49971   0.16473   0.00000  Uiso   1.00
C440   C     0.49851   0.50001   0.33522   0.00000  Uiso   1.00
C441   C     0.53618   0.49479   0.40646   0.00000  Uiso   1.00
C442   C     0.46280   0.49730   0.09342   0.00000  Uiso   1.00
C443   C     0.49880   0.49932   0.38350   0.00000  Uiso   1.00
C444   C     0.50028   0.49830   0.11643   0.00000  Uiso   1.00
C445   C     0.46158   0.50080   0.40614   0.00000  Uiso   1.00
C446   C     0.53724   0.49455   0.09365   0.00000  Uiso   1.00
C447   C     0.46178   0.49567   0.45277   0.00000  Uiso   1.00
C448   C     0.53692   0.49245   0.04701   0.00000  Uiso   1.00
C449   C     0.49929   0.49424   0.47639   0.00000  Uiso   1.00
C450   C     0.49948   0.49379   0.02339   0.00000  Uiso   1.00
C451   C     0.53660   0.49307   0.45321   0.00000  Uiso   1.00
C452   C     0.46225   0.49450   0.04665   0.00000  Uiso   1.00
C453   C     0.42539   0.49121   0.47627   0.00000  Uiso   1.00
C454   C     0.57348   0.48910   0.02359   0.00000  Uiso   1.00
Cu455  Cu    0.50000   0.54689   0.25000   0.00000  Uiso   1.00
Cu456  Cu    0.50000   0.45311   0.25000   0.00000  Uiso   1.00
H457   H     0.39652   0.48693   0.45926   0.00000  Uiso   1.00
H458   H     0.60252   0.48646   0.04075   0.00000  Uiso   1.00
H459   H     0.39645   0.48970   0.03901   0.00000  Uiso   1.00
H460   H     0.60251   0.48779   0.46099   0.00000  Uiso   1.00
N461   N     0.50000   0.61736   0.25000   0.00000  Uiso   1.00
N462   N     0.50000   0.38264   0.25000   0.00000  Uiso   1.00
O463   O     0.43988   0.53958   0.24999   0.00000  Uiso   1.00
O464   O     0.56012   0.46042   0.25000   0.00000  Uiso   1.00
O465   O     0.56012   0.53958   0.25000   0.00000  Uiso   1.00
O466   O     0.43988   0.46042   0.24999   0.00000  Uiso   1.00
O467   O     0.49999   0.53960   0.18513   0.00000  Uiso   1.00
O468   O     0.50001   0.46040   0.31487   0.00000  Uiso   1.00
O469   O     0.50001   0.53960   0.31487   0.00000  Uiso   1.00
O470   O     0.49999   0.46040   0.18513   0.00000  Uiso   1.00
C471   C     0.57394   0.49364   0.38168   0.00000  Uiso   1.00
N472   N     0.60399   0.49282   0.36196   0.00000  Uiso   1.00
C473   C     0.42527   0.50032   0.11820   0.00000  Uiso   1.00
N474   N     0.39547   0.50282   0.13818   0.00000  Uiso   1.00
O475   O     0.42544   0.50509   0.38175   0.00000  Uiso   1.00
C476   C     0.40628   0.54838   0.39045   0.00000  Uiso   1.00
H477   H     0.42738   0.57512   0.40357   0.00000  Uiso   1.00
H478   H     0.38170   0.54423   0.41500   0.00000  Uiso   1.00
C479   C     0.38619   0.56653   0.34811   0.00000  Uiso   1.00
H480   H     0.37050   0.59994   0.35499   0.00000  Uiso   1.00
H481   H     0.40944   0.57209   0.32237   0.00000  Uiso   1.00
H482   H     0.36338   0.54148   0.33567   0.00000  Uiso   1.00
O483   O     0.57359   0.48952   0.11706   0.00000  Uiso   1.00
C484   C     0.59076   0.53337   0.12458   0.00000  Uiso   1.00
H485   H     0.58049   0.54655   0.15729   0.00000  Uiso   1.00
H486   H     0.58271   0.55932   0.09841   0.00000  Uiso   1.00
C487   C     0.63686   0.52849   0.12611   0.00000  Uiso   1.00
H488   H     0.64857   0.51895   0.09279   0.00000  Uiso   1.00
H489   H     0.65061   0.56173   0.13648   0.00000  Uiso   1.00
H490   H     0.64606   0.50125   0.15018   0.00000  Uiso   1.00
C491   C     0.37268   0.41833   0.27425   0.00000  Uiso   1.00
N492   N     0.38711   0.38558   0.29016   0.00000  Uiso   1.00
C493   C     0.62354   0.58567   0.22993   0.00000  Uiso   1.00
N494   N     0.60623   0.61985   0.22274   0.00000  Uiso   1.00
C495   C     0.62879   0.41596   0.22915   0.00000  Uiso   1.00
N496   N     0.61489   0.38223   0.21549   0.00000  Uiso   1.00
C497   C     0.37427   0.58456   0.22725   0.00000  Uiso   1.00
N498   N     0.39014   0.61857   0.21829   0.00000  Uiso   1.00
O499   O     0.46836   0.38168   0.17830   0.00000  Uiso   1.00
C500   C     0.42537   0.38473   0.17936   0.00000  Uiso   1.00
H501   H     0.41639   0.42163   0.18106   0.00000  Uiso   1.00
H502   H     0.41138   0.36737   0.20814   0.00000  Uiso   1.00
C503   C     0.40717   0.36533   0.13651   0.00000  Uiso   1.00
H504   H     0.41276   0.66089   0.13451   0.00000  Uiso   1.00
H505   H     0.37376   0.37176   0.13588   0.00000  Uiso   1.00
H506   H     0.42076   0.38240   0.10728   0.00000  Uiso   1.00
O507   O     0.52559   0.62059   0.32521   0.00000  Uiso   1.00
C508   C     0.49630   0.62986   0.35860   0.00000  Uiso   1.00
H509   H     0.46940   0.60798   0.35264   0.00000  Uiso   1.00
H510   H     0.48518   0.66633   0.35940   0.00000  Uiso   1.00
C511   C     0.51429   0.61913   0.40445   0.00000  Uiso   1.00
H512   H     0.53235   0.64871   0.41684   0.00000  Uiso   1.00
H513   H     0.48957   0.61300   0.42850   0.00000  Uiso   1.00
H514   H     0.53437   0.58821   0.40302   0.00000  Uiso   1.00
O515   O     0.53541   0.38136   0.31958   0.00000  Uiso   1.00
C516   C     0.57831   0.37584   0.31855   0.00000  Uiso   1.00
H517   H     0.59155   0.40926   0.30906   0.00000  Uiso   1.00
H518   H     0.58955   0.34886   0.29492   0.00000  Uiso   1.00
C519   C     0.59479   0.36420   0.36473   0.00000  Uiso   1.00
H520   H     0.58881   0.66089   0.37243   0.00000  Uiso   1.00
H521   H     0.62826   0.36922   0.36579   0.00000  Uiso   1.00
H522   H     0.58049   0.38690   0.39018   0.00000  Uiso   1.00
O523   O     0.47709   0.62095   0.17369   0.00000  Uiso   1.00
C524   C     0.50782   0.62921   0.14186   0.00000  Uiso   1.00
H525   H     0.53379   0.60524   0.14767   0.00000  Uiso   1.00
H526   H     0.52033   0.66476   0.14295   0.00000  Uiso   1.00
C527   C     0.49096   0.62138   0.09505   0.00000  Uiso   1.00
H528   H     0.47147   0.65111   0.08482   0.00000  Uiso   1.00
H529   H     0.51638   0.61784   0.07119   0.00000  Uiso   1.00
H530   H     0.47249   0.58973   0.09374   0.00000  Uiso   1.00
C531   C     0.75414   0.50027   0.25030   0.00000  Uiso   1.00
C532   C     0.91237   0.49992   0.24723   0.00000  Uiso   1.00
C533   C     0.75881   0.49170   0.02247   0.00000  Uiso   1.00
C534   C     0.90673   0.48971   0.47743   0.00000  Uiso   1.00
C535   C     0.68756   0.45952   0.25490   0.00000  Uiso   1.00
C536   C     0.97819   0.54236   0.23862   0.00000  Uiso   1.00
C537   C     0.97949   0.45871   0.24496   0.00000  Uiso   1.00
C538   C     0.68738   0.54204   0.23844   0.00000  Uiso   1.00
C539   C     0.95708   0.50034   0.24331   0.00000  Uiso   1.00
C540   C     0.70926   0.50086   0.24883   0.00000  Uiso   1.00
C541   C     0.81690   0.35840   0.21515   0.00000  Uiso   1.00
C542   C     0.84680   0.64246   0.28643   0.00000  Uiso   1.00
C543   C     0.85068   0.35818   0.28431   0.00000  Uiso   1.00
C544   C     0.82073   0.64261   0.21320   0.00000  Uiso   1.00
C545   C     0.83423   0.49971   0.16473   0.00000  Uiso   1.00
C546   C     0.83184   0.50001   0.33522   0.00000  Uiso   1.00
C547   C     0.86951   0.49479   0.40646   0.00000  Uiso   1.00
C548   C     0.79614   0.49730   0.09342   0.00000  Uiso   1.00
C549   C     0.83213   0.49932   0.38350   0.00000  Uiso   1.00
C550   C     0.83362   0.49830   0.11643   0.00000  Uiso   1.00
C551   C     0.79491   0.50080   0.40614   0.00000  Uiso   1.00
C552   C     0.87058   0.49455   0.09365   0.00000  Uiso   1.00
C553   C     0.79511   0.49567   0.45277   0.00000  Uiso   1.00
C554   C     0.87025   0.49245   0.04701   0.00000  Uiso   1.00
C555   C     0.83262   0.49424   0.47639   0.00000  Uiso   1.00
C556   C     0.83281   0.49379   0.02339   0.00000  Uiso   1.00
C557   C     0.86993   0.49307   0.45321   0.00000  Uiso   1.00
C558   C     0.79558   0.49450   0.04665   0.00000  Uiso   1.00
C559   C     0.75872   0.49121   0.47627   0.00000  Uiso   1.00
C560   C     0.90681   0.48910   0.02359   0.00000  Uiso   1.00
Cu561  Cu    0.83333   0.54689   0.25000   0.00000  Uiso   1.00
Cu562  Cu    0.83333   0.45311   0.25000   0.00000  Uiso   1.00
H563   H     0.72985   0.48693   0.45926   0.00000  Uiso   1.00
H564   H     0.93585   0.48646   0.04075   0.00000  Uiso   1.00
H565   H     0.72979   0.48970   0.03901   0.00000  Uiso   1.00
H566   H     0.93585   0.48779   0.46099   0.00000  Uiso   1.00
N567   N     0.83333   0.61736   0.25000   0.00000  Uiso   1.00
N568   N     0.83333   0.38264   0.25000   0.00000  Uiso   1.00
O569   O     0.77321   0.53958   0.24999   0.00000  Uiso   1.00
O570   O     0.89345   0.46042   0.25000   0.00000  Uiso   1.00
O571   O     0.89345   0.53958   0.25000   0.00000  Uiso   1.00
O572   O     0.77321   0.46042   0.24999   0.00000  Uiso   1.00
O573   O     0.83332   0.53960   0.18513   0.00000  Uiso   1.00
O574   O     0.83334   0.46040   0.31487   0.00000  Uiso   1.00
O575   O     0.83334   0.53960   0.31487   0.00000  Uiso   1.00
O576   O     0.83332   0.46040   0.18513   0.00000  Uiso   1.00
C577   C     0.90727   0.49364   0.38168   0.00000  Uiso   1.00
N578   N     0.93732   0.49282   0.36196   0.00000  Uiso   1.00
C579   C     0.75860   0.50032   0.11820   0.00000  Uiso   1.00
N580   N     0.72880   0.50282   0.13818   0.00000  Uiso   1.00
O581   O     0.75877   0.50509   0.38175   0.00000  Uiso   1.00
C582   C     0.73961   0.54838   0.39045   0.00000  Uiso   1.00
H583   H     0.76072   0.57512   0.40357   0.00000  Uiso   1.00
H584   H     0.71503   0.54423   0.41500   0.00000  Uiso   1.00
C585   C     0.71952   0.56653   0.34811   0.00000  Uiso   1.00
H586   H     0.70383   0.59994   0.35499   0.00000  Uiso   1.00
H587   H     0.74277   0.57209   0.32237   0.00000  Uiso   1.00
H588   H     0.69671   0.54148   0.33567   0.00000  Uiso   1.00
O589   O     0.90693   0.48952   0.11706   0.00000  Uiso   1.00
C590   C     0.92410   0.53337   0.12458   0.00000  Uiso   1.00
H591   H     0.91383   0.54655   0.15729   0.00000  Uiso   1.00
H592   H     0.91604   0.55932   0.09841   0.00000  Uiso   1.00
C593   C     0.97020   0.52849   0.12611   0.00000  Uiso   1.00
H594   H     0.98190   0.51895   0.09279   0.00000  Uiso   1.00
H595   H     0.98394   0.56173   0.13648   0.00000  Uiso   1.00
H596   H     0.97939   0.50125   0.15018   0.00000  Uiso   1.00
C597   C     0.70602   0.41833   0.27425   0.00000  Uiso   1.00
N598   N     0.72044   0.38558   0.29016   0.00000  Uiso   1.00
C599   C     0.95687   0.58567   0.22993   0.00000  Uiso   1.00
N600   N     0.93956   0.61985   0.22274   0.00000  Uiso   1.00
C601   C     0.96213   0.41596   0.22915   0.00000  Uiso   1.00
N602   N     0.94822   0.38223   0.21549   0.00000  Uiso   1.00
C603   C     0.70760   0.58456   0.22725   0.00000  Uiso   1.00
N604   N     0.72348   0.61857   0.21829   0.00000  Uiso   1.00
O605   O     0.80169   0.38168   0.17830   0.00000  Uiso   1.00
C606   C     0.75870   0.38473   0.17936   0.00000  Uiso   1.00
H607   H     0.74973   0.42163   0.18106   0.00000  Uiso   1.00
H608   H     0.74471   0.36737   0.20814   0.00000  Uiso   1.00
C609   C     0.74050   0.36533   0.13651   0.00000  Uiso   1.00
H610   H     0.74610   0.66089   0.13451   0.00000  Uiso   1.00
H611   H     0.70709   0.37176   0.13588   0.00000  Uiso   1.00
H612   H     0.75409   0.38240   0.10728   0.00000  Uiso   1.00
O613   O     0.85893   0.62059   0.32521   0.00000  Uiso   1.00
C614   C     0.82963   0.62986   0.35860   0.00000  Uiso   1.00
H615   H     0.80273   0.60798   0.35264   0.00000  Uiso   1.00
H616   H     0.81851   0.66633   0.35940   0.00000  Uiso   1.00
C617   C     0.84763   0.61913   0.40445   0.00000  Uiso   1.00
H618   H     0.86569   0.64871   0.41684   0.00000  Uiso   1.00
H619   H     0.82290   0.61300   0.42850   0.00000  Uiso   1.00
H620   H     0.86770   0.58821   0.40302   0.00000  Uiso   1.00
O621   O     0.86875   0.38136   0.31958   0.00000  Uiso   1.00
C622   C     0.91164   0.37584   0.31855   0.00000  Uiso   1.00
H623   H     0.92488   0.40926   0.30906   0.00000  Uiso   1.00
H624   H     0.92289   0.34886   0.29492   0.00000  Uiso   1.00
C625   C     0.92813   0.36420   0.36473   0.00000  Uiso   1.00
H626   H     0.92215   0.66089   0.37243   0.00000  Uiso   1.00
H627   H     0.96159   0.36922   0.36579   0.00000  Uiso   1.00
H628   H     0.91383   0.38690   0.39018   0.00000  Uiso   1.00
O629   O     0.81042   0.62095   0.17369   0.00000  Uiso   1.00
C630   C     0.84116   0.62921   0.14186   0.00000  Uiso   1.00
H631   H     0.86713   0.60524   0.14767   0.00000  Uiso   1.00
H632   H     0.85366   0.66476   0.14295   0.00000  Uiso   1.00
C633   C     0.82429   0.62138   0.09505   0.00000  Uiso   1.00
H634   H     0.80481   0.65111   0.08482   0.00000  Uiso   1.00
H635   H     0.84971   0.61784   0.07119   0.00000  Uiso   1.00
H636   H     0.80582   0.58973   0.09374   0.00000  Uiso   1.00
C637   C     0.08747   0.83360   0.25030   0.00000  Uiso   1.00
C638   C     0.24570   0.83325   0.24723   0.00000  Uiso   1.00
C639   C     0.09214   0.82504   0.02247   0.00000  Uiso   1.00
C640   C     0.24006   0.82305   0.47743   0.00000  Uiso   1.00
C641   C     0.02089   0.79285   0.25490   0.00000  Uiso   1.00
C642   C     0.31152   0.87569   0.23862   0.00000  Uiso   1.00
C643   C     0.31282   0.79204   0.24496   0.00000  Uiso   1.00
C644   C     0.02071   0.87537   0.23844   0.00000  Uiso   1.00
C645   C     0.29042   0.83367   0.24331   0.00000  Uiso   1.00
C646   C     0.04259   0.83419   0.24883   0.00000  Uiso   1.00
C647   C     0.15023   0.69173   0.21515   0.00000  Uiso   1.00
C648   C     0.18013   0.97579   0.28643   0.00000  Uiso   1.00
C649   C     0.18401   0.69151   0.28431   0.00000  Uiso   1.00
C650   C     0.15406   0.97594   0.21320   0.00000  Uiso   1.00
C651   C     0.16756   0.83304   0.16473   0.00000  Uiso   1.00
C652   C     0.16518   0.83334   0.33522   0.00000  Uiso   1.00
C653   C     0.20284   0.82812   0.40646   0.00000  Uiso   1.00
C654   C     0.12947   0.83064   0.09342   0.00000  Uiso   1.00
C655   C     0.16546   0.83265   0.38350   0.00000  Uiso   1.00
C656   C     0.16695   0.83163   0.11643   0.00000  Uiso   1.00
C657   C     0.12824   0.83413   0.40614   0.00000  Uiso   1.00
C658   C     0.20391   0.82788   0.09365   0.00000  Uiso   1.00
C659   C     0.12844   0.82900   0.45277   0.00000  Uiso   1.00
C660   C     0.20358   0.82578   0.04701   0.00000  Uiso   1.00
C661   C     0.16596   0.82757   0.47639   0.00000  Uiso   1.00
C662   C     0.16614   0.82713   0.02339   0.00000  Uiso   1.00
C663   C     0.20326   0.82640   0.45321   0.00000  Uiso   1.00
C664   C     0.12891   0.82784   0.04665   0.00000  Uiso   1.00
C665   C     0.09205   0.82455   0.47627   0.00000  Uiso   1.00
C666   C     0.24014   0.82243   0.02359   0.00000  Uiso   1.00
Cu667  Cu    0.16667   0.88022   0.25000   0.00000  Uiso   1.00
Cu668  Cu    0.16667   0.78645   0.25000   0.00000  Uiso   1.00
H669   H     0.06319   0.82026   0.45926   0.00000  Uiso   1.00
H670   H     0.26918   0.81979   0.04075   0.00000  Uiso   1.00
H671   H     0.06312   0.82303   0.03901   0.00000  Uiso   1.00
H672   H     0.26918   0.82112   0.46099   0.00000  Uiso   1.00
N673   N     0.16667   0.95069   0.25000   0.00000  Uiso   1.00
N674   N     0.16667   0.71598   0.25000   0.00000  Uiso   1.00
O675   O     0.10655   0.87291   0.24999   0.00000  Uiso   1.00
O676   O     0.22679   0.79375   0.25000   0.00000  Uiso   1.00
O677   O     0.22679   0.87291   0.25000   0.00000  Uiso   1.00
O678   O     0.10655   0.79375   0.24999   0.00000  Uiso   1.00
O679   O     0.16666   0.87293   0.18513   0.00000  Uiso   1.00
O680   O     0.16668   0.79373   0.31487   0.00000  Uiso   1.00
O681   O     0.16668   0.87293   0.31487   0.00000  Uiso   1.00
O682   O     0.16666   0.79373   0.18513   0.00000  Uiso   1.00
C683   C     0.24061   0.82697   0.38168   0.00000  Uiso   1.00
N684   N     0.27066   0.82616   0.36196   0.00000  Uiso   1.00
C685   C     0.09193   0.83365   0.11820   0.00000  Uiso   1.00
N686   N     0.06213   0.83615   0.13818   0.00000  Uiso   1.00
O687   O     0.09211   0.83843   0.38175   0.00000  Uiso   1.00
C688   C     0.07294   0.88172   0.39045   0.00000  Uiso   1.00
H689   H     0.09405   0.90846   0.40357   0.00000  Uiso   1.00
H690   H     0.04837   0.87757   0.41500   0.00000  Uiso   1.00
C691   C     0.05286   0.89986   0.34811   0.00000  Uiso   1.00
H692   H     0.03717   0.93327   0.35499   0.00000  Uiso   1.00
H693   H     0.07611   0.90542   0.32237   0.00000  Uiso   1.00
H694   H     0.03005   0.87481   0.33567   0.00000  Uiso   1.00
O695   O     0.24026   0.82285   0.11706   0.00000  Uiso   1.00
C696   C     0.25743   0.86671   0.12458   0.00000  Uiso   1.00
H697   H     0.24716   0.87988   0.15729   0.00000  Uiso   1.00
H698   H     0.24937   0.89265   0.09841   0.00000  Uiso   1.00
C699   C     0.30353   0.86183   0.12611   0.00000  Uiso   1.00
H700   H     0.31523   0.85228   0.09279   0.00000  Uiso   1.00
H701   H     0.31728   0.89506   0.13648   0.00000  Uiso   1.00
H702   H     0.31273   0.83459   0.15018   0.00000  Uiso   1.00
C703   C     0.03935   0.75167   0.27425   0.00000  Uiso   1.00
N704   N     0.05378   0.71892   0.29016   0.00000  Uiso   1.00
C705   C     0.29020   0.91900   0.22993   0.00000  Uiso   1.00
N706   N     0.27290   0.95318   0.22274   0.00000  Uiso   1.00
C707   C     0.29546   0.74929   0.22915   0.00000  Uiso   1.00
N708   N     0.28156   0.71556   0.21549   0.00000  Uiso   1.00
C709   C     0.04094   0.91790   0.22725   0.00000  Uiso   1.00
N710   N     0.05681   0.95191   0.21829   0.00000  Uiso   1.00
O711   O     0.13503   0.71502   0.17830   0.00000  Uiso   1.00
C712   C     0.09204   0.71806   0.17936   0.00000  Uiso   1.00
H713   H     0.08306   0.75496   0.18106   0.00000  Uiso   1.00
H714   H     0.07805   0.70070   0.20814   0.00000  Uiso   1.00
C715   C     0.07383   0.69866   0.13651   0.00000  Uiso   1.00
H716   H     0.07943   0.99423   0.13451   0.00000  Uiso   1.00
H717   H     0.04042   0.70509   0.13588   0.00000  Uiso   1.00
H718   H     0.08742   0.71573   0.10728   0.00000  Uiso   1.00
O719   O     0.19226   0.95392   0.32521   0.00000  Uiso   1.00
C720   C     0.16296   0.96319   0.35860   0.00000  Uiso   1.00
H721   H     0.13607   0.94132   0.35264   0.00000  Uiso   1.00
H722   H     0.15185   0.99966   0.35940   0.00000  Uiso   1.00
C723   C     0.18096   0.95246   0.40445   0.00000  Uiso   1.00
H724   H     0.19902   0.98204   0.41684   0.00000  Uiso   1.00
H725   H     0.15624   0.94633   0.42850   0.00000  Uiso   1.00
H726   H     0.20103   0.92154   0.40302   0.00000  Uiso   1.00
O727   O     0.20208   0.71469   0.31958   0.00000  Uiso   1.00
C728   C     0.24497   0.70918   0.31855   0.00000  Uiso   1.00
H729   H     0.25821   0.74260   0.30906   0.00000  Uiso   1.00
H730   H     0.25622   0.68219   0.29492   0.00000  Uiso   1.00
C731   C     0.26146   0.69753   0.36473   0.00000  Uiso   1.00
H732   H     0.25548   0.99422   0.37243   0.00000  Uiso   1.00
H733   H     0.29493   0.70256   0.36579   0.00000  Uiso   1.00
H734   H     0.24716   0.72023   0.39018   0.00000  Uiso   1.00
O735   O     0.14376   0.95428   0.17369   0.00000  Uiso   1.00
C736   C     0.17449   0.96254   0.14186   0.00000  Uiso   1.00
H737   H     0.20046   0.93858   0.14767   0.00000  Uiso   1.00
H738   H     0.18700   0.99809   0.14295   0.00000  Uiso   1.00
C739   C     0.15762   0.95471   0.09505   0.00000  Uiso   1.00
H740   H     0.13814   0.98445   0.08482   0.00000  Uiso   1.00
H741   H     0.18305   0.95117   0.07119   0.00000  Uiso   1.00
H742   H     0.13915   0.92307   0.09374   0.00000  Uiso   1.00
C743   C     0.42080   0.83360   0.25030   0.00000  Uiso   1.00
C744   C     0.57903   0.83325   0.24723   0.00000  Uiso   1.00
C745   C     0.42547   0.82504   0.02247   0.00000  Uiso   1.00
C746   C     0.57340   0.82305   0.47743   0.00000  Uiso   1.00
C747   C     0.35422   0.79285   0.25490   0.00000  Uiso   1.00
C748   C     0.64485   0.87569   0.23862   0.00000  Uiso   1.00
C749   C     0.64616   0.79204   0.24496   0.00000  Uiso   1.00
C750   C     0.35405   0.87537   0.23844   0.00000  Uiso   1.00
C751   C     0.62375   0.83367   0.24331   0.00000  Uiso   1.00
C752   C     0.37592   0.83419   0.24883   0.00000  Uiso   1.00
C753   C     0.48356   0.69173   0.21515   0.00000  Uiso   1.00
C754   C     0.51347   0.97579   0.28643   0.00000  Uiso   1.00
C755   C     0.51734   0.69151   0.28431   0.00000  Uiso   1.00
C756   C     0.48739   0.97594   0.21320   0.00000  Uiso   1.00
C757   C     0.50089   0.83304   0.16473   0.00000  Uiso   1.00
C758   C     0.49851   0.83334   0.33522   0.00000  Uiso   1.00
C759   C     0.53618   0.82812   0.40646   0.00000  Uiso   1.00
C760   C     0.46280   0.83064   0.09342   0.00000  Uiso   1.00
C761   C     0.49880   0.83265   0.38350   0.00000  Uiso   1.00
C762   C     0.50028   0.83163   0.11643   0.00000  Uiso   1.00
C763   C     0.46158   0.83413   0.40614   0.00000  Uiso   1.00
C764   C     0.53724   0.82788   0.09365   0.00000  Uiso   1.00
C765   C     0.46178   0.82900   0.45277   0.00000  Uiso   1.00
C766   C     0.53692   0.82578   0.04701   0.00000  Uiso   1.00
C767   C     0.49929   0.82757   0.47639   0.00000  Uiso   1.00
C768   C     0.49948   0.82713   0.02339   0.00000  Uiso   1.00
C769   C     0.53660   0.82640   0.45321   0.00000  Uiso   1.00
C770   C     0.46225   0.82784   0.04665   0.00000  Uiso   1.00
C771   C     0.42539   0.82455   0.47627   0.00000  Uiso   1.00
C772   C     0.57348   0.82243   0.02359   0.00000  Uiso   1.00
Cu773  Cu    0.50000   0.88022   0.25000   0.00000  Uiso   1.00
Cu774  Cu    0.50000   0.78645   0.25000   0.00000  Uiso   1.00
H775   H     0.39652   0.82026   0.45926   0.00000  Uiso   1.00
H776   H     0.60252   0.81979   0.04075   0.00000  Uiso   1.00
H777   H     0.39645   0.82303   0.03901   0.00000  Uiso   1.00
H778   H     0.60251   0.82112   0.46099   0.00000  Uiso   1.00
N779   N     0.50000   0.95069   0.25000   0.00000  Uiso   1.00
N780   N     0.50000   0.71598   0.25000   0.00000  Uiso   1.00
O781   O     0.43988   0.87291   0.24999   0.00000  Uiso   1.00
O782   O     0.56012   0.79375   0.25000   0.00000  Uiso   1.00
O783   O     0.56012   0.87291   0.25000   0.00000  Uiso   1.00
O784   O     0.43988   0.79375   0.24999   0.00000  Uiso   1.00
O785   O     0.49999   0.87293   0.18513   0.00000  Uiso   1.00
O786   O     0.50001   0.79373   0.31487   0.00000  Uiso   1.00
O787   O     0.50001   0.87293   0.31487   0.00000  Uiso   1.00
O788   O     0.49999   0.79373   0.18513   0.00000  Uiso   1.00
C789   C     0.57394   0.82697   0.38168   0.00000  Uiso   1.00
N790   N     0.60399   0.82616   0.36196   0.00000  Uiso   1.00
C791   C     0.42527   0.83365   0.11820   0.00000  Uiso   1.00
N792   N     0.39547   0.83615   0.13818   0.00000  Uiso   1.00
O793   O     0.42544   0.83843   0.38175   0.00000  Uiso   1.00
C794   C     0.40628   0.88172   0.39045   0.00000  Uiso   1.00
H795   H     0.42738   0.90846   0.40357   0.00000  Uiso   1.00
H796   H     0.38170   0.87757   0.41500   0.00000  Uiso   1.00
C797   C     0.38619   0.89986   0.34811   0.00000  Uiso   1.00
H798   H     0.37050   0.93327   0.35499   0.00000  Uiso   1.00
H799   H     0.40944   0.90542   0.32237   0.00000  Uiso   1.00
H800   H     0.36338   0.87481   0.33567   0.00000  Uiso   1.00
O801   O     0.57359   0.82285   0.11706   0.00000  Uiso   1.00
C802   C     0.59076   0.86671   0.12458   0.00000  Uiso   1.00
H803   H     0.58049   0.87988   0.15729   0.00000  Uiso   1.00
H804   H     0.58271   0.89265   0.09841   0.00000  Uiso   1.00
C805   C     0.63686   0.86183   0.12611   0.00000  Uiso   1.00
H806   H     0.64857   0.85228   0.09279   0.00000  Uiso   1.00
H807   H     0.65061   0.89506   0.13648   0.00000  Uiso   1.00
H808   H     0.64606   0.83459   0.15018   0.00000  Uiso   1.00
C809   C     0.37268   0.75167   0.27425   0.00000  Uiso   1.00
N810   N     0.38711   0.71892   0.29016   0.00000  Uiso   1.00
C811   C     0.62354   0.91900   0.22993   0.00000  Uiso   1.00
N812   N     0.60623   0.95318   0.22274   0.00000  Uiso   1.00
C813   C     0.62879   0.74929   0.22915   0.00000  Uiso   1.00
N814   N     0.61489   0.71556   0.21549   0.00000  Uiso   1.00
C815   C     0.37427   0.91790   0.22725   0.00000  Uiso   1.00
N816   N     0.39014   0.95191   0.21829   0.00000  Uiso   1.00
O817   O     0.46836   0.71502   0.17830   0.00000  Uiso   1.00
C818   C     0.42537   0.71806   0.17936   0.00000  Uiso   1.00
H819   H     0.41639   0.75496   0.18106   0.00000  Uiso   1.00
H820   H     0.41138   0.70070   0.20814   0.00000  Uiso   1.00
C821   C     0.40717   0.69866   0.13651   0.00000  Uiso   1.00
H822   H     0.41276   0.99423   0.13451   0.00000  Uiso   1.00
H823   H     0.37376   0.70509   0.13588   0.00000  Uiso   1.00
H824   H     0.42076   0.71573   0.10728   0.00000  Uiso   1.00
O825   O     0.52559   0.95392   0.32521   0.00000  Uiso   1.00
C826   C     0.49630   0.96319   0.35860   0.00000  Uiso   1.00
H827   H     0.46940   0.94132   0.35264   0.00000  Uiso   1.00
H828   H     0.48518   0.99966   0.35940   0.00000  Uiso   1.00
C829   C     0.51429   0.95246   0.40445   0.00000  Uiso   1.00
H830   H     0.53235   0.98204   0.41684   0.00000  Uiso   1.00
H831   H     0.48957   0.94633   0.42850   0.00000  Uiso   1.00
H832   H     0.53437   0.92154   0.40302   0.00000  Uiso   1.00
O833   O     0.53541   0.71469   0.31958   0.00000  Uiso   1.00
C834   C     0.57831   0.70918   0.31855   0.00000  Uiso   1.00
H835   H     0.59155   0.74260   0.30906   0.00000  Uiso   1.00
H836   H     0.58955   0.68219   0.29492   0.00000  Uiso   1.00
C837   C     0.59479   0.69753   0.36473   0.00000  Uiso   1.00
H838   H     0.58881   0.99422   0.37243   0.00000  Uiso   1.00
H839   H     0.62826   0.70256   0.36579   0.00000  Uiso   1.00
H840   H     0.58049   0.72023   0.39018   0.00000  Uiso   1.00
O841   O     0.47709   0.95428   0.17369   0.00000  Uiso   1.00
C842   C     0.50782   0.96254   0.14186   0.00000  Uiso   1.00
H843   H     0.53379   0.93858   0.14767   0.00000  Uiso   1.00
H844   H     0.52033   0.99809   0.14295   0.00000  Uiso   1.00
C845   C     0.49096   0.95471   0.09505   0.00000  Uiso   1.00
H846   H     0.47147   0.98445   0.08482   0.00000  Uiso   1.00
H847   H     0.51638   0.95117   0.07119   0.00000  Uiso   1.00
H848   H     0.47249   0.92307   0.09374   0.00000  Uiso   1.00
C849   C     0.75414   0.83360   0.25030   0.00000  Uiso   1.00
C850   C     0.91237   0.83325   0.24723   0.00000  Uiso   1.00
C851   C     0.75881   0.82504   0.02247   0.00000  Uiso   1.00
C852   C     0.90673   0.82305   0.47743   0.00000  Uiso   1.00
C853   C     0.68756   0.79285   0.25490   0.00000  Uiso   1.00
C854   C     0.97819   0.87569   0.23862   0.00000  Uiso   1.00
C855   C     0.97949   0.79204   0.24496   0.00000  Uiso   1.00
C856   C     0.68738   0.87537   0.23844   0.00000  Uiso   1.00
C857   C     0.95708   0.83367   0.24331   0.00000  Uiso   1.00
C858   C     0.70926   0.83419   0.24883   0.00000  Uiso   1.00
C859   C     0.81690   0.69173   0.21515   0.00000  Uiso   1.00
C860   C     0.84680   0.97579   0.28643   0.00000  Uiso   1.00
C861   C     0.85068   0.69151   0.28431   0.00000  Uiso   1.00
C862   C     0.82073   0.97594   0.21320   0.00000  Uiso   1.00
C863   C     0.83423   0.83304   0.16473   0.00000  Uiso   1.00
C864   C     0.83184   0.83334   0.33522   0.00000  Uiso   1.00
C865   C     0.86951   0.82812   0.40646   0.00000  Uiso   1.00
C866   C     0.79614   0.83064   0.09342   0.00000  Uiso   1.00
C867   C     0.83213   0.83265   0.38350   0.00000  Uiso   1.00
C868   C     0.83362   0.83163   0.11643   0.00000  Uiso   1.00
C869   C     0.79491   0.83413   0.40614   0.00000  Uiso   1.00
C870   C     0.87058   0.82788   0.09365   0.00000  Uiso   1.00
C871   C     0.79511   0.82900   0.45277   0.00000  Uiso   1.00
C872   C     0.87025   0.82578   0.04701   0.00000  Uiso   1.00
C873   C     0.83262   0.82757   0.47639   0.00000  Uiso   1.00
C874   C     0.83281   0.82713   0.02339   0.00000  Uiso   1.00
C875   C     0.86993   0.82640   0.45321   0.00000  Uiso   1.00
C876   C     0.79558   0.82784   0.04665   0.00000  Uiso   1.00
C877   C     0.75872   0.82455   0.47627   0.00000  Uiso   1.00
C878   C     0.90681   0.82243   0.02359   0.00000  Uiso   1.00
Cu879  Cu    0.83333   0.88022   0.25000   0.00000  Uiso   1.00
Cu880  Cu    0.83333   0.78645   0.25000   0.00000  Uiso   1.00
H881   H     0.72985   0.82026   0.45926   0.00000  Uiso   1.00
H882   H     0.93585   0.81979   0.04075   0.00000  Uiso   1.00
H883   H     0.72979   0.82303   0.03901   0.00000  Uiso   1.00
H884   H     0.93585   0.82112   0.46099   0.00000  Uiso   1.00
N885   N     0.83333   0.95069   0.25000   0.00000  Uiso   1.00
N886   N     0.83333   0.71598   0.25000   0.00000  Uiso   1.00
O887   O     0.77321   0.87291   0.24999   0.00000  Uiso   1.00
O888   O     0.89345   0.79375   0.25000   0.00000  Uiso   1.00
O889   O     0.89345   0.87291   0.25000   0.00000  Uiso   1.00
O890   O     0.77321   0.79375   0.24999   0.00000  Uiso   1.00
O891   O     0.83332   0.87293   0.18513   0.00000  Uiso   1.00
O892   O     0.83334   0.79373   0.31487   0.00000  Uiso   1.00
O893   O     0.83334   0.87293   0.31487   0.00000  Uiso   1.00
O894   O     0.83332   0.79373   0.18513   0.00000  Uiso   1.00
C895   C     0.90727   0.82697   0.38168   0.00000  Uiso   1.00
N896   N     0.93732   0.82616   0.36196   0.00000  Uiso   1.00
C897   C     0.75860   0.83365   0.11820   0.00000  Uiso   1.00
N898   N     0.72880   0.83615   0.13818   0.00000  Uiso   1.00
O899   O     0.75877   0.83843   0.38175   0.00000  Uiso   1.00
C900   C     0.73961   0.88172   0.39045   0.00000  Uiso   1.00
H901   H     0.76072   0.90846   0.40357   0.00000  Uiso   1.00
H902   H     0.71503   0.87757   0.41500   0.00000  Uiso   1.00
C903   C     0.71952   0.89986   0.34811   0.00000  Uiso   1.00
H904   H     0.70383   0.93327   0.35499   0.00000  Uiso   1.00
H905   H     0.74277   0.90542   0.32237   0.00000  Uiso   1.00
H906   H     0.69671   0.87481   0.33567   0.00000  Uiso   1.00
O907   O     0.90693   0.82285   0.11706   0.00000  Uiso   1.00
C908   C     0.92410   0.86671   0.12458   0.00000  Uiso   1.00
H909   H     0.91383   0.87988   0.15729   0.00000  Uiso   1.00
H910   H     0.91604   0.89265   0.09841   0.00000  Uiso   1.00
C911   C     0.97020   0.86183   0.12611   0.00000  Uiso   1.00
H912   H     0.98190   0.85228   0.09279   0.00000  Uiso   1.00
H913   H     0.98394   0.89506   0.13648   0.00000  Uiso   1.00
H914   H     0.97939   0.83459   0.15018   0.00000  Uiso   1.00
C915   C     0.70602   0.75167   0.27425   0.00000  Uiso   1.00
N916   N     0.72044   0.71892   0.29016   0.00000  Uiso   1.00
C917   C     0.95687   0.91900   0.22993   0.00000  Uiso   1.00
N918   N     0.93956   0.95318   0.22274   0.00000  Uiso   1.00
C919   C     0.96213   0.74929   0.22915   0.00000  Uiso   1.00
N920   N     0.94822   0.71556   0.21549   0.00000  Uiso   1.00
C921   C     0.70760   0.91790   0.22725   0.00000  Uiso   1.00
N922   N     0.72348   0.95191   0.21829   0.00000  Uiso   1.00
O923   O     0.80169   0.71502   0.17830   0.00000  Uiso   1.00
C924   C     0.75870   0.71806   0.17936   0.00000  Uiso   1.00
H925   H     0.74973   0.75496   0.18106   0.00000  Uiso   1.00
H926   H     0.74471   0.70070   0.20814   0.00000  Uiso   1.00
C927   C     0.74050   0.69866   0.13651   0.00000  Uiso   1.00
H928   H     0.74610   0.99423   0.13451   0.00000  Uiso   1.00
H929   H     0.70709   0.70509   0.13588   0.00000  Uiso   1.00
H930   H     0.75409   0.71573   0.10728   0.00000  Uiso   1.00
O931   O     0.85893   0.95392   0.32521   0.00000  Uiso   1.00
C932   C     0.82963   0.96319   0.35860   0.00000  Uiso   1.00
H933   H     0.80273   0.94132   0.35264   0.00000  Uiso   1.00
H934   H     0.81851   0.99966   0.35940   0.00000  Uiso   1.00
C935   C     0.84763   0.95246   0.40445   0.00000  Uiso   1.00
H936   H     0.86569   0.98204   0.41684   0.00000  Uiso   1.00
H937   H     0.82290   0.94633   0.42850   0.00000  Uiso   1.00
H938   H     0.86770   0.92154   0.40302   0.00000  Uiso   1.00
O939   O     0.86875   0.71469   0.31958   0.00000  Uiso   1.00
C940   C     0.91164   0.70918   0.31855   0.00000  Uiso   1.00
H941   H     0.92488   0.74260   0.30906   0.00000  Uiso   1.00
H942   H     0.92289   0.68219   0.29492   0.00000  Uiso   1.00
C943   C     0.92813   0.69753   0.36473   0.00000  Uiso   1.00
H944   H     0.92215   0.99422   0.37243   0.00000  Uiso   1.00
H945   H     0.96159   0.70256   0.36579   0.00000  Uiso   1.00
H946   H     0.91383   0.72023   0.39018   0.00000  Uiso   1.00
O947   O     0.81042   0.95428   0.17369   0.00000  Uiso   1.00
C948   C     0.84116   0.96254   0.14186   0.00000  Uiso   1.00
H949   H     0.86713   0.93858   0.14767   0.00000  Uiso   1.00
H950   H     0.85366   0.99809   0.14295   0.00000  Uiso   1.00
C951   C     0.82429   0.95471   0.09505   0.00000  Uiso   1.00
H952   H     0.80481   0.98445   0.08482   0.00000  Uiso   1.00
H953   H     0.84971   0.95117   0.07119   0.00000  Uiso   1.00
H954   H     0.80582   0.92307   0.09374   0.00000  Uiso   1.00
C955   C     0.08747   0.16694   0.75030   0.00000  Uiso   1.00
C956   C     0.24570   0.16659   0.74723   0.00000  Uiso   1.00
C957   C     0.09214   0.15837   0.52247   0.00000  Uiso   1.00
C958   C     0.24006   0.15638   0.97743   0.00000  Uiso   1.00
C959   C     0.02089   0.12619   0.75490   0.00000  Uiso   1.00
C960   C     0.31152   0.20903   0.73862   0.00000  Uiso   1.00
C961   C     0.31282   0.12538   0.74496   0.00000  Uiso   1.00
C962   C     0.02071   0.20871   0.73844   0.00000  Uiso   1.00
C963   C     0.29042   0.16700   0.74331   0.00000  Uiso   1.00
C964   C     0.04259   0.16753   0.74883   0.00000  Uiso   1.00
C965   C     0.15023   0.02507   0.71515   0.00000  Uiso   1.00
C966   C     0.18013   0.30913   0.78643   0.00000  Uiso   1.00
C967   C     0.18401   0.02484   0.78431   0.00000  Uiso   1.00
C968   C     0.15406   0.30928   0.71320   0.00000  Uiso   1.00
C969   C     0.16756   0.16637   0.66473   0.00000  Uiso   1.00
C970   C     0.16518   0.16667   0.83522   0.00000  Uiso   1.00
C971   C     0.20284   0.16146   0.90646   0.00000  Uiso   1.00
C972   C     0.12947   0.16397   0.59342   0.00000  Uiso   1.00
C973   C     0.16546   0.16598   0.88350   0.00000  Uiso   1.00
C974   C     0.16695   0.16496   0.61643   0.00000  Uiso   1.00
C975   C     0.12824   0.16747   0.90614   0.00000  Uiso   1.00
C976   C     0.20391   0.16122   0.59365   0.00000  Uiso   1.00
C977   C     0.12844   0.16234   0.95277   0.00000  Uiso   1.00
C978   C     0.20358   0.15911   0.54701   0.00000  Uiso   1.00
C979   C     0.16596   0.16091   0.97639   0.00000  Uiso   1.00
C980   C     0.16614   0.16046   0.52339   0.00000  Uiso   1.00
C981   C     0.20326   0.15974   0.95321   0.00000  Uiso   1.00
C982   C     0.12891   0.16117   0.54665   0.00000  Uiso   1.00
C983   C     0.09205   0.15788   0.97627   0.00000  Uiso   1.00
C984   C     0.24014   0.15577   0.52359   0.00000  Uiso   1.00
Cu985  Cu    0.16667   0.21355   0.75000   0.00000  Uiso   1.00
Cu986  Cu    0.16667   0.11978   0.75000   0.00000  Uiso   1.00
H987   H     0.06319   0.15359   0.95926   0.00000  Uiso   1.00
H988   H     0.26918   0.15313   0.54075   0.00000  Uiso   1.00
H989   H     0.06312   0.15636   0.53901   0.00000  Uiso   1.00
H990   H     0.26918   0.15445   0.96099   0.00000  Uiso   1.00
N991   N     0.16667   0.28402   0.75000   0.00000  Uiso   1.00
N992   N     0.16667   0.04931   0.75000   0.00000  Uiso   1.00
O993   O     0.10655   0.20625   0.74999   0.00000  Uiso   1.00
O994   O     0.22679   0.12709   0.75000   0.00000  Uiso   1.00
O995   O     0.22679   0.20625   0.75000   0.00000  Uiso   1.00
O996   O     0.10655   0.12709   0.74999   0.00000  Uiso   1.00
O997   O     0.16666   0.20627   0.68513   0.00000  Uiso   1.00
O998   O     0.16668   0.12707   0.81487   0.00000  Uiso   1.00
O999   O     0.16668   0.20627   0.81487   0.00000  Uiso   1.00
O1000  O     0.16666   0.12707   0.68513   0.00000  Uiso   1.00
C1001  C     0.24061   0.16030   0.88168   0.00000  Uiso   1.00
N1002  N     0.27066   0.15949   0.86196   0.00000  Uiso   1.00
C1003  C     0.09193   0.16699   0.61820   0.00000  Uiso   1.00
N1004  N     0.06213   0.16949   0.63818   0.00000  Uiso   1.00
O1005  O     0.09211   0.17176   0.88175   0.00000  Uiso   1.00
C1006  C     0.07294   0.21505   0.89045   0.00000  Uiso   1.00
H1007  H     0.09405   0.24179   0.90357   0.00000  Uiso   1.00
H1008  H     0.04837   0.21090   0.91500   0.00000  Uiso   1.00
C1009  C     0.05286   0.23320   0.84811   0.00000  Uiso   1.00
H1010  H     0.03717   0.26660   0.85499   0.00000  Uiso   1.00
H1011  H     0.07611   0.23876   0.82237   0.00000  Uiso   1.00
H1012  H     0.03005   0.20814   0.83567   0.00000  Uiso   1.00
O1013  O     0.24026   0.15618   0.61706   0.00000  Uiso   1.00
C1014  C     0.25743   0.20004   0.62458   0.00000  Uiso   1.00
H1015  H     0.24716   0.21322   0.65729   0.00000  Uiso   1.00
H1016  H     0.24937   0.22599   0.59841   0.00000  Uiso   1.00
C1017  C     0.30353   0.19516   0.62611   0.00000  Uiso   1.00
H1018  H     0.31523   0.18561   0.59279   0.00000  Uiso   1.00
H1019  H     0.31728   0.22840   0.63648   0.00000  Uiso   1.00
H1020  H     0.31273   0.16792   0.65018   0.00000  Uiso   1.00
C1021  C     0.03935   0.08500   0.77425   0.00000  Uiso   1.00
N1022  N     0.05378   0.05225   0.79016   0.00000  Uiso   1.00
C1023  C     0.29020   0.25233   0.72993   0.00000  Uiso   1.00
N1024  N     0.27290   0.28652   0.72274   0.00000  Uiso   1.00
C1025  C     0.29546   0.08262   0.72915   0.00000  Uiso   1.00
N1026  N     0.28156   0.04890   0.71549   0.00000  Uiso   1.00
C1027  C     0.04094   0.25123   0.72725   0.00000  Uiso   1.00
N1028  N     0.05681   0.28524   0.71829   0.00000  Uiso   1.00
O1029  O     0.13503   0.04835   0.67830   0.00000  Uiso   1.00
C1030  C     0.09204   0.05140   0.67936   0.00000  Uiso   1.00
H1031  H     0.08306   0.08830   0.68106   0.00000  Uiso   1.00
H1032  H     0.07805   0.03404   0.70814   0.00000  Uiso   1.00
C1033  C     0.07383   0.03200   0.63651   0.00000  Uiso   1.00
H1034  H     0.07943   0.32756   0.63451   0.00000  Uiso   1.00
H1035  H     0.04042   0.03842   0.63588   0.00000  Uiso   1.00
H1036  H     0.08742   0.04907   0.60728   0.00000  Uiso   1.00
O1037  O     0.19226   0.28725   0.82521   0.00000  Uiso   1.00
C1038  C     0.16296   0.29652   0.85860   0.00000  Uiso   1.00
H1039  H     0.13607   0.27465   0.85264   0.00000  Uiso   1.00
H1040  H     0.15185   0.33299   0.85940   0.00000  Uiso   1.00
C1041  C     0.18096   0.28579   0.90445   0.00000  Uiso   1.00
H1042  H     0.19902   0.31538   0.91684   0.00000  Uiso   1.00
H1043  H     0.15624   0.27966   0.92850   0.00000  Uiso   1.00
H1044  H     0.20103   0.25487   0.90302   0.00000  Uiso   1.00
O1045  O     0.20208   0.04803   0.81958   0.00000  Uiso   1.00
C1046  C     0.24497   0.04251   0.81855   0.00000  Uiso   1.00
H1047  H     0.25821   0.07593   0.80906   0.00000  Uiso   1.00
H1048  H     0.25622   0.01553   0.79492   0.00000  Uiso   1.00
C1049  C     0.26146   0.03087   0.86473   0.00000  Uiso   1.00
H1050  H     0.25548   0.32756   0.87243   0.00000  Uiso   1.00
H1051  H     0.29493   0.03589   0.86579   0.00000  Uiso   1.00
H1052  H     0.24716   0.05356   0.89018   0.00000  Uiso   1.00
O1053  O     0.14376   0.28762   0.67369   0.00000  Uiso   1.00
C1054  C     0.17449   0.29587   0.64186   0.00000  Uiso   1.00
H1055  H     0.20046   0.27191   0.64767   0.00000  Uiso   1.00
H1056  H     0.18700   0.33143   0.64295   0.00000  Uiso   1.00
C1057  C     0.15762   0.28805   0.59505   0.00000  Uiso   1.00
H1058  H     0.13814   0.31778   0.58482   0.00000  Uiso   1.00
H1059  H     0.18305   0.28451   0.57119   0.00000  Uiso   1.00
H1060  H     0.13915   0.25640   0.59374   0.00000  Uiso   1.00
C1061  C     0.42080   0.16694   0.75030   0.00000  Uiso   1.00
C1062  C     0.57903   0.16659   0.74723   0.00000  Uiso   1.00
C1063  C     0.42547   0.15837   0.52247   0.00000  Uiso   1.00
C1064  C     0.57340   0.15638   0.97743   0.00000  Uiso   1.00
C1065  C     0.35422   0.12619   0.75490   0.00000  Uiso   1.00
C1066  C     0.64485   0.20903   0.73862   0.00000  Uiso   1.00
C1067  C     0.64616   0.12538   0.74496   0.00000  Uiso   1.00
C1068  C     0.35405   0.20871   0.73844   0.00000  Uiso   1.00
C1069  C     0.62375   0.16700   0.74331   0.00000  Uiso   1.00
C1070  C     0.37592   0.16753   0.74883   0.00000  Uiso   1.00
C1071  C     0.48356   0.02507   0.71515   0.00000  Uiso   1.00
C1072  C     0.51347   0.30913   0.78643   0.00000  Uiso   1.00
C1073  C     0.51734   0.02484   0.78431   0.00000  Uiso   1.00
C1074  C     0.48739   0.30928   0.71320   0.00000  Uiso   1.00
C1075  C     0.50089   0.16637   0.66473   0.00000  Uiso   1.00
C1076  C     0.49851   0.16667   0.83522   0.00000  Uiso   1.00
C1077  C     0.53618   0.16146   0.90646   0.00000  Uiso   1.00
C1078  C     0.46280   0.16397   0.59342   0.00000  Uiso   1.00
C1079  C     0.49880   0.16598   0.88350   0.00000  Uiso   1.00
C1080  C     0.50028   0.16496   0.61643   0.00000  Uiso   1.00
C1081  C     0.46158   0.16747   0.90614   0.00000  Uiso   1.00
C1082  C     0.53724   0.16122   0.59365   0.00000  Uiso   1.00
C1083  C     0.46178   0.16234   0.95277   0.00000  Uiso   1.00
C1084  C     0.53692   0.15911   0.54701   0.00000  Uiso   1.00
C1085  C     0.49929   0.16091   0.97639   0.00000  Uiso   1.00
C1086  C     0.49948   0.16046   0.52339   0.00000  Uiso   1.00
C1087  C     0.53660   0.15974   0.95321   0.00000  Uiso   1.00
C1088  C     0.46225   0.16117   0.54665   0.00000  Uiso   1.00
C1089  C     0.42539   0.15788   0.97627   0.00000  Uiso   1.00
C1090  C     0.57348   0.15577   0.52359   0.00000  Uiso   1.00
Cu1091 Cu    0.50000   0.21355   0.75000   0.00000  Uiso   1.00
Cu1092 Cu    0.50000   0.11978   0.75000   0.00000  Uiso   1.00
H1093  H     0.39652   0.15359   0.95926   0.00000  Uiso   1.00
H1094  H     0.60252   0.15313   0.54075   0.00000  Uiso   1.00
H1095  H     0.39645   0.15636   0.53901   0.00000  Uiso   1.00
H1096  H     0.60251   0.15445   0.96099   0.00000  Uiso   1.00
N1097  N     0.50000   0.28402   0.75000   0.00000  Uiso   1.00
N1098  N     0.50000   0.04931   0.75000   0.00000  Uiso   1.00
O1099  O     0.43988   0.20625   0.74999   0.00000  Uiso   1.00
O1100  O     0.56012   0.12709   0.75000   0.00000  Uiso   1.00
O1101  O     0.56012   0.20625   0.75000   0.00000  Uiso   1.00
O1102  O     0.43988   0.12709   0.74999   0.00000  Uiso   1.00
O1103  O     0.49999   0.20627   0.68513   0.00000  Uiso   1.00
O1104  O     0.50001   0.12707   0.81487   0.00000  Uiso   1.00
O1105  O     0.50001   0.20627   0.81487   0.00000  Uiso   1.00
O1106  O     0.49999   0.12707   0.68513   0.00000  Uiso   1.00
C1107  C     0.57394   0.16030   0.88168   0.00000  Uiso   1.00
N1108  N     0.60399   0.15949   0.86196   0.00000  Uiso   1.00
C1109  C     0.42527   0.16699   0.61820   0.00000  Uiso   1.00
N1110  N     0.39547   0.16949   0.63818   0.00000  Uiso   1.00
O1111  O     0.42544   0.17176   0.88175   0.00000  Uiso   1.00
C1112  C     0.40628   0.21505   0.89045   0.00000  Uiso   1.00
H1113  H     0.42738   0.24179   0.90357   0.00000  Uiso   1.00
H1114  H     0.38170   0.21090   0.91500   0.00000  Uiso   1.00
C1115  C     0.38619   0.23320   0.84811   0.00000  Uiso   1.00
H1116  H     0.37050   0.26660   0.85499   0.00000  Uiso   1.00
H1117  H     0.40944   0.23876   0.82237   0.00000  Uiso   1.00
H1118  H     0.36338   0.20814   0.83567   0.00000  Uiso   1.00
O1119  O     0.57359   0.15618   0.61706   0.00000  Uiso   1.00
C1120  C     0.59076   0.20004   0.62458   0.00000  Uiso   1.00
H1121  H     0.58049   0.21322   0.65729   0.00000  Uiso   1.00
H1122  H     0.58271   0.22599   0.59841   0.00000  Uiso   1.00
C1123  C     0.63686   0.19516   0.62611   0.00000  Uiso   1.00
H1124  H     0.64857   0.18561   0.59279   0.00000  Uiso   1.00
H1125  H     0.65061   0.22840   0.63648   0.00000  Uiso   1.00
H1126  H     0.64606   0.16792   0.65018   0.00000  Uiso   1.00
C1127  C     0.37268   0.08500   0.77425   0.00000  Uiso   1.00
N1128  N     0.38711   0.05225   0.79016   0.00000  Uiso   1.00
C1129  C     0.62354   0.25233   0.72993   0.00000  Uiso   1.00
N1130  N     0.60623   0.28652   0.72274   0.00000  Uiso   1.00
C1131  C     0.62879   0.08262   0.72915   0.00000  Uiso   1.00
N1132  N     0.61489   0.04890   0.71549   0.00000  Uiso   1.00
C1133  C     0.37427   0.25123   0.72725   0.00000  Uiso   1.00
N1134  N     0.39014   0.28524   0.71829   0.00000  Uiso   1.00
O1135  O     0.46836   0.04835   0.67830   0.00000  Uiso   1.00
C1136  C     0.42537   0.05140   0.67936   0.00000  Uiso   1.00
H1137  H     0.41639   0.08830   0.68106   0.00000  Uiso   1.00
H1138  H     0.41138   0.03404   0.70814   0.00000  Uiso   1.00
C1139  C     0.40717   0.03200   0.63651   0.00000  Uiso   1.00
H1140  H     0.41276   0.32756   0.63451   0.00000  Uiso   1.00
H1141  H     0.37376   0.03842   0.63588   0.00000  Uiso   1.00
H1142  H     0.42076   0.04907   0.60728   0.00000  Uiso   1.00
O1143  O     0.52559   0.28725   0.82521   0.00000  Uiso   1.00
C1144  C     0.49630   0.29652   0.85860   0.00000  Uiso   1.00
H1145  H     0.46940   0.27465   0.85264   0.00000  Uiso   1.00
H1146  H     0.48518   0.33299   0.85940   0.00000  Uiso   1.00
C1147  C     0.51429   0.28579   0.90445   0.00000  Uiso   1.00
H1148  H     0.53235   0.31538   0.91684   0.00000  Uiso   1.00
H1149  H     0.48957   0.27966   0.92850   0.00000  Uiso   1.00
H1150  H     0.53437   0.25487   0.90302   0.00000  Uiso   1.00
O1151  O     0.53541   0.04803   0.81958   0.00000  Uiso   1.00
C1152  C     0.57831   0.04251   0.81855   0.00000  Uiso   1.00
H1153  H     0.59155   0.07593   0.80906   0.00000  Uiso   1.00
H1154  H     0.58955   0.01553   0.79492   0.00000  Uiso   1.00
C1155  C     0.59479   0.03087   0.86473   0.00000  Uiso   1.00
H1156  H     0.58881   0.32756   0.87243   0.00000  Uiso   1.00
H1157  H     0.62826   0.03589   0.86579   0.00000  Uiso   1.00
H1158  H     0.58049   0.05356   0.89018   0.00000  Uiso   1.00
O1159  O     0.47709   0.28762   0.67369   0.00000  Uiso   1.00
C1160  C     0.50782   0.29587   0.64186   0.00000  Uiso   1.00
H1161  H     0.53379   0.27191   0.64767   0.00000  Uiso   1.00
H1162  H     0.52033   0.33143   0.64295   0.00000  Uiso   1.00
C1163  C     0.49096   0.28805   0.59505   0.00000  Uiso   1.00
H1164  H     0.47147   0.31778   0.58482   0.00000  Uiso   1.00
H1165  H     0.51638   0.28451   0.57119   0.00000  Uiso   1.00
H1166  H     0.47249   0.25640   0.59374   0.00000  Uiso   1.00
C1167  C     0.75414   0.16694   0.75030   0.00000  Uiso   1.00
C1168  C     0.91237   0.16659   0.74723   0.00000  Uiso   1.00
C1169  C     0.75881   0.15837   0.52247   0.00000  Uiso   1.00
C1170  C     0.90673   0.15638   0.97743   0.00000  Uiso   1.00
C1171  C     0.68756   0.12619   0.75490   0.00000  Uiso   1.00
C1172  C     0.97819   0.20903   0.73862   0.00000  Uiso   1.00
C1173  C     0.97949   0.12538   0.74496   0.00000  Uiso   1.00
C1174  C     0.68738   0.20871   0.73844   0.00000  Uiso   1.00
C1175  C     0.95708   0.16700   0.74331   0.00000  Uiso   1.00
C1176  C     0.70926   0.16753   0.74883   0.00000  Uiso   1.00
C1177  C     0.81690   0.02507   0.71515   0.00000  Uiso   1.00
C1178  C     0.84680   0.30913   0.78643   0.00000  Uiso   1.00
C1179  C     0.85068   0.02484   0.78431   0.00000  Uiso   1.00
C1180  C     0.82073   0.30928   0.71320   0.00000  Uiso   1.00
C1181  C     0.83423   0.16637   0.66473   0.00000  Uiso   1.00
C1182  C     0.83184   0.16667   0.83522   0.00000  Uiso   1.00
C1183  C     0.86951   0.16146   0.90646   0.00000  Uiso   1.00
C1184  C     0.79614   0.16397   0.59342   0.00000  Uiso   1.00
C1185  C     0.83213   0.16598   0.88350   0.00000  Uiso   1.00
C1186  C     0.83362   0.16496   0.61643   0.00000  Uiso   1.00
C1187  C     0.79491   0.16747   0.90614   0.00000  Uiso   1.00
C1188  C     0.87058   0.16122   0.59365   0.00000  Uiso   1.00
C1189  C     0.79511   0.16234   0.95277   0.00000  Uiso   1.00
C1190  C     0.87025   0.15911   0.54701   0.00000  Uiso   1.00
C1191  C     0.83262   0.16091   0.97639   0.00000  Uiso   1.00
C1192  C     0.83281   0.16046   0.52339   0.00000  Uiso   1.00
C1193  C     0.86993   0.15974   0.95321   0.00000  Uiso   1.00
C1194  C     0.79558   0.16117   0.54665   0.00000  Uiso   1.00
C1195  C     0.75872   0.15788   0.97627   0.00000  Uiso   1.00
C1196  C     0.90681   0.15577   0.52359   0.00000  Uiso   1.00
Cu1197 Cu    0.83333   0.21355   0.75000   0.00000  Uiso   1.00
Cu1198 Cu    0.83333   0.11978   0.75000   0.00000  Uiso   1.00
H1199  H     0.72985   0.15359   0.95926   0.00000  Uiso   1.00
H1200  H     0.93585   0.15313   0.54075   0.00000  Uiso   1.00
H1201  H     0.72979   0.15636   0.53901   0.00000  Uiso   1.00
H1202  H     0.93585   0.15445   0.96099   0.00000  Uiso   1.00
N1203  N     0.83333   0.28402   0.75000   0.00000  Uiso   1.00
N1204  N     0.83333   0.04931   0.75000   0.00000  Uiso   1.00
O1205  O     0.77321   0.20625   0.74999   0.00000  Uiso   1.00
O1206  O     0.89345   0.12709   0.75000   0.00000  Uiso   1.00
O1207  O     0.89345   0.20625   0.75000   0.00000  Uiso   1.00
O1208  O     0.77321   0.12709   0.74999   0.00000  Uiso   1.00
O1209  O     0.83332   0.20627   0.68513   0.00000  Uiso   1.00
O1210  O     0.83334   0.12707   0.81487   0.00000  Uiso   1.00
O1211  O     0.83334   0.20627   0.81487   0.00000  Uiso   1.00
O1212  O     0.83332   0.12707   0.68513   0.00000  Uiso   1.00
C1213  C     0.90727   0.16030   0.88168   0.00000  Uiso   1.00
N1214  N     0.93732   0.15949   0.86196   0.00000  Uiso   1.00
C1215  C     0.75860   0.16699   0.61820   0.00000  Uiso   1.00
N1216  N     0.72880   0.16949   0.63818   0.00000  Uiso   1.00
O1217  O     0.75877   0.17176   0.88175   0.00000  Uiso   1.00
C1218  C     0.73961   0.21505   0.89045   0.00000  Uiso   1.00
H1219  H     0.76072   0.24179   0.90357   0.00000  Uiso   1.00
H1220  H     0.71503   0.21090   0.91500   0.00000  Uiso   1.00
C1221  C     0.71952   0.23320   0.84811   0.00000  Uiso   1.00
H1222  H     0.70383   0.26660   0.85499   0.00000  Uiso   1.00
H1223  H     0.74277   0.23876   0.82237   0.00000  Uiso   1.00
H1224  H     0.69671   0.20814   0.83567   0.00000  Uiso   1.00
O1225  O     0.90693   0.15618   0.61706   0.00000  Uiso   1.00
C1226  C     0.92410   0.20004   0.62458   0.00000  Uiso   1.00
H1227  H     0.91383   0.21322   0.65729   0.00000  Uiso   1.00
H1228  H     0.91604   0.22599   0.59841   0.00000  Uiso   1.00
C1229  C     0.97020   0.19516   0.62611   0.00000  Uiso   1.00
H1230  H     0.98190   0.18561   0.59279   0.00000  Uiso   1.00
H1231  H     0.98394   0.22840   0.63648   0.00000  Uiso   1.00
H1232  H     0.97939   0.16792   0.65018   0.00000  Uiso   1.00
C1233  C     0.70602   0.08500   0.77425   0.00000  Uiso   1.00
N1234  N     0.72044   0.05225   0.79016   0.00000  Uiso   1.00
C1235  C     0.95687   0.25233   0.72993   0.00000  Uiso   1.00
N1236  N     0.93956   0.28652   0.72274   0.00000  Uiso   1.00
C1237  C     0.96213   0.08262   0.72915   0.00000  Uiso   1.00
N1238  N     0.94822   0.04890   0.71549   0.00000  Uiso   1.00
C1239  C     0.70760   0.25123   0.72725   0.00000  Uiso   1.00
N1240  N     0.72348   0.28524   0.71829   0.00000  Uiso   1.00
O1241  O     0.80169   0.04835   0.67830   0.00000  Uiso   1.00
C1242  C     0.75870   0.05140   0.67936   0.00000  Uiso   1.00
H1243  H     0.74973   0.08830   0.68106   0.00000  Uiso   1.00
H1244  H     0.74471   0.03404   0.70814   0.00000  Uiso   1.00
C1245  C     0.74050   0.03200   0.63651   0.00000  Uiso   1.00
H1246  H     0.74610   0.32756   0.63451   0.00000  Uiso   1.00
H1247  H     0.70709   0.03842   0.63588   0.00000  Uiso   1.00
H1248  H     0.75409   0.04907   0.60728   0.00000  Uiso   1.00
O1249  O     0.85893   0.28725   0.82521   0.00000  Uiso   1.00
C1250  C     0.82963   0.29652   0.85860   0.00000  Uiso   1.00
H1251  H     0.80273   0.27465   0.85264   0.00000  Uiso   1.00
H1252  H     0.81851   0.33299   0.85940   0.00000  Uiso   1.00
C1253  C     0.84763   0.28579   0.90445   0.00000  Uiso   1.00
H1254  H     0.86569   0.31538   0.91684   0.00000  Uiso   1.00
H1255  H     0.82290   0.27966   0.92850   0.00000  Uiso   1.00
H1256  H     0.86770   0.25487   0.90302   0.00000  Uiso   1.00
O1257  O     0.86875   0.04803   0.81958   0.00000  Uiso   1.00
C1258  C     0.91164   0.04251   0.81855   0.00000  Uiso   1.00
H1259  H     0.92488   0.07593   0.80906   0.00000  Uiso   1.00
H1260  H     0.92289   0.01553   0.79492   0.00000  Uiso   1.00
C1261  C     0.92813   0.03087   0.86473   0.00000  Uiso   1.00
H1262  H     0.92215   0.32756   0.87243   0.00000  Uiso   1.00
H1263  H     0.96159   0.03589   0.86579   0.00000  Uiso   1.00
H1264  H     0.91383   0.05356   0.89018   0.00000  Uiso   1.00
O1265  O     0.81042   0.28762   0.67369   0.00000  Uiso   1.00
C1266  C     0.84116   0.29587   0.64186   0.00000  Uiso   1.00
H1267  H     0.86713   0.27191   0.64767   0.00000  Uiso   1.00
H1268  H     0.85366   0.33143   0.64295   0.00000  Uiso   1.00
C1269  C     0.82429   0.28805   0.59505   0.00000  Uiso   1.00
H1270  H     0.80481   0.31778   0.58482   0.00000  Uiso   1.00
H1271  H     0.84971   0.28451   0.57119   0.00000  Uiso   1.00
H1272  H     0.80582   0.25640   0.59374   0.00000  Uiso   1.00
C1273  C     0.08747   0.50027   0.75030   0.00000  Uiso   1.00
C1274  C     0.24570   0.49992   0.74723   0.00000  Uiso   1.00
C1275  C     0.09214   0.49170   0.52247   0.00000  Uiso   1.00
C1276  C     0.24006   0.48971   0.97743   0.00000  Uiso   1.00
C1277  C     0.02089   0.45952   0.75490   0.00000  Uiso   1.00
C1278  C     0.31152   0.54236   0.73862   0.00000  Uiso   1.00
C1279  C     0.31282   0.45871   0.74496   0.00000  Uiso   1.00
C1280  C     0.02071   0.54204   0.73844   0.00000  Uiso   1.00
C1281  C     0.29042   0.50034   0.74331   0.00000  Uiso   1.00
C1282  C     0.04259   0.50086   0.74883   0.00000  Uiso   1.00
C1283  C     0.15023   0.35840   0.71515   0.00000  Uiso   1.00
C1284  C     0.18013   0.64246   0.78643   0.00000  Uiso   1.00
C1285  C     0.18401   0.35818   0.78431   0.00000  Uiso   1.00
C1286  C     0.15406   0.64261   0.71320   0.00000  Uiso   1.00
C1287  C     0.16756   0.49971   0.66473   0.00000  Uiso   1.00
C1288  C     0.16518   0.50001   0.83522   0.00000  Uiso   1.00
C1289  C     0.20284   0.49479   0.90646   0.00000  Uiso   1.00
C1290  C     0.12947   0.49730   0.59342   0.00000  Uiso   1.00
C1291  C     0.16546   0.49932   0.88350   0.00000  Uiso   1.00
C1292  C     0.16695   0.49830   0.61643   0.00000  Uiso   1.00
C1293  C     0.12824   0.50080   0.90614   0.00000  Uiso   1.00
C1294  C     0.20391   0.49455   0.59365   0.00000  Uiso   1.00
C1295  C     0.12844   0.49567   0.95277   0.00000  Uiso   1.00
C1296  C     0.20358   0.49245   0.54701   0.00000  Uiso   1.00
C1297  C     0.16596   0.49424   0.97639   0.00000  Uiso   1.00
C1298  C     0.16614   0.49379   0.52339   0.00000  Uiso   1.00
C1299  C     0.20326   0.49307   0.95321   0.00000  Uiso   1.00
C1300  C     0.12891   0.49450   0.54665   0.00000  Uiso   1.00
C1301  C     0.09205   0.49121   0.97627   0.00000  Uiso   1.00
C1302  C     0.24014   0.48910   0.52359   0.00000  Uiso   1.00
Cu1303 Cu    0.16667   0.54689   0.75000   0.00000  Uiso   1.00
Cu1304 Cu    0.16667   0.45311   0.75000   0.00000  Uiso   1.00
H1305  H     0.06319   0.48693   0.95926   0.00000  Uiso   1.00
H1306  H     0.26918   0.48646   0.54075   0.00000  Uiso   1.00
H1307  H     0.06312   0.48970   0.53901   0.00000  Uiso   1.00
H1308  H     0.26918   0.48779   0.96099   0.00000  Uiso   1.00
N1309  N     0.16667   0.61736   0.75000   0.00000  Uiso   1.00
N1310  N     0.16667   0.38264   0.75000   0.00000  Uiso   1.00
O1311  O     0.10655   0.53958   0.74999   0.00000  Uiso   1.00
O1312  O     0.22679   0.46042   0.75000   0.00000  Uiso   1.00
O1313  O     0.22679   0.53958   0.75000   0.00000  Uiso   1.00
O1314  O     0.10655   0.46042   0.74999   0.00000  Uiso   1.00
O1315  O     0.16666   0.53960   0.68513   0.00000  Uiso   1.00
O1316  O     0.16668   0.46040   0.81487   0.00000  Uiso   1.00
O1317  O     0.16668   0.53960   0.81487   0.00000  Uiso   1.00
O1318  O     0.16666   0.46040   0.68513   0.00000  Uiso   1.00
C1319  C     0.24061   0.49364   0.88168   0.00000  Uiso   1.00
N1320  N     0.27066   0.49282   0.86196   0.00000  Uiso   1.00
C1321  C     0.09193   0.50032   0.61820   0.00000  Uiso   1.00
N1322  N     0.06213   0.50282   0.63818   0.00000  Uiso   1.00
O1323  O     0.09211   0.50509   0.88175   0.00000  Uiso   1.00
C1324  C     0.07294   0.54838   0.89045   0.00000  Uiso   1.00
H1325  H     0.09405   0.57512   0.90357   0.00000  Uiso   1.00
H1326  H     0.04837   0.54423   0.91500   0.00000  Uiso   1.00
C1327  C     0.05286   0.56653   0.84811   0.00000  Uiso   1.00
H1328  H     0.03717   0.59994   0.85499   0.00000  Uiso   1.00
H1329  H     0.07611   0.57209   0.82237   0.00000  Uiso   1.00
H1330  H     0.03005   0.54148   0.83567   0.00000  Uiso   1.00
O1331  O     0.24026   0.48952   0.61706   0.00000  Uiso   1.00
C1332  C     0.25743   0.53337   0.62458   0.00000  Uiso   1.00
H1333  H     0.24716   0.54655   0.65729   0.00000  Uiso   1.00
H1334  H     0.24937   0.55932   0.59841   0.00000  Uiso   1.00
C1335  C     0.30353   0.52849   0.62611   0.00000  Uiso   1.00
H1336  H     0.31523   0.51895   0.59279   0.00000  Uiso   1.00
H1337  H     0.31728   0.56173   0.63648   0.00000  Uiso   1.00
H1338  H     0.31273   0.50125   0.65018   0.00000  Uiso   1.00
C1339  C     0.03935   0.41833   0.77425   0.00000  Uiso   1.00
N1340  N     0.05378   0.38558   0.79016   0.00000  Uiso   1.00
C1341  C     0.29020   0.58567   0.72993   0.00000  Uiso   1.00
N1342  N     0.27290   0.61985   0.72274   0.00000  Uiso   1.00
C1343  C     0.29546   0.41596   0.72915   0.00000  Uiso   1.00
N1344  N     0.28156   0.38223   0.71549   0.00000  Uiso   1.00
C1345  C     0.04094   0.58456   0.72725   0.00000  Uiso   1.00
N1346  N     0.05681   0.61857   0.71829   0.00000  Uiso   1.00
O1347  O     0.13503   0.38168   0.67830   0.00000  Uiso   1.00
C1348  C     0.09204   0.38473   0.67936   0.00000  Uiso   1.00
H1349  H     0.08306   0.42163   0.68106   0.00000  Uiso   1.00
H1350  H     0.07805   0.36737   0.70814   0.00000  Uiso   1.00
C1351  C     0.07383   0.36533   0.63651   0.00000  Uiso   1.00
H1352  H     0.07943   0.66089   0.63451   0.00000  Uiso   1.00
H1353  H     0.04042   0.37176   0.63588   0.00000  Uiso   1.00
H1354  H     0.08742   0.38240   0.60728   0.00000  Uiso   1.00
O1355  O     0.19226   0.62059   0.82521   0.00000  Uiso   1.00
C1356  C     0.16296   0.62986   0.85860   0.00000  Uiso   1.00
H1357  H     0.13607   0.60798   0.85264   0.00000  Uiso   1.00
H1358  H     0.15185   0.66633   0.85940   0.00000  Uiso   1.00
C1359  C     0.18096   0.61913   0.90445   0.00000  Uiso   1.00
H1360  H     0.19902   0.64871   0.91684   0.00000  Uiso   1.00
H1361  H     0.15624   0.61300   0.92850   0.00000  Uiso   1.00
H1362  H     0.20103   0.58821   0.90302   0.00000  Uiso   1.00
O1363  O     0.20208   0.38136   0.81958   0.00000  Uiso   1.00
C1364  C     0.24497   0.37584   0.81855   0.00000  Uiso   1.00
H1365  H     0.25821   0.40926   0.80906   0.00000  Uiso   1.00
H1366  H     0.25622   0.34886   0.79492   0.00000  Uiso   1.00
C1367  C     0.26146   0.36420   0.86473   0.00000  Uiso   1.00
H1368  H     0.25548   0.66089   0.87243   0.00000  Uiso   1.00
H1369  H     0.29493   0.36922   0.86579   0.00000  Uiso   1.00
H1370  H     0.24716   0.38690   0.89018   0.00000  Uiso   1.00
O1371  O     0.14376   0.62095   0.67369   0.00000  Uiso   1.00
C1372  C     0.17449   0.62921   0.64186   0.00000  Uiso   1.00
H1373  H     0.20046   0.60524   0.64767   0.00000  Uiso   1.00
H1374  H     0.18700   0.66476   0.64295   0.00000  Uiso   1.00
C1375  C     0.15762   0.62138   0.59505   0.00000  Uiso   1.00
H1376  H     0.13814   0.65111   0.58482   0.00000  Uiso   1.00
H1377  H     0.18305   0.61784   0.57119   0.00000  Uiso   1.00
H1378  H     0.13915   0.58973   0.59374   0.00000  Uiso   1.00
C1379  C     0.42080   0.50027   0.75030   0.00000  Uiso   1.00
C1380  C     0.57903   0.49992   0.74723   0.00000  Uiso   1.00
C1381  C     0.42547   0.49170   0.52247   0.00000  Uiso   1.00
C1382  C     0.57340   0.48971   0.97743   0.00000  Uiso   1.00
C1383  C     0.35422   0.45952   0.75490   0.00000  Uiso   1.00
C1384  C     0.64485   0.54236   0.73862   0.00000  Uiso   1.00
C1385  C     0.64616   0.45871   0.74496   0.00000  Uiso   1.00
C1386  C     0.35405   0.54204   0.73844   0.00000  Uiso   1.00
C1387  C     0.62375   0.50034   0.74331   0.00000  Uiso   1.00
C1388  C     0.37592   0.50086   0.74883   0.00000  Uiso   1.00
C1389  C     0.48356   0.35840   0.71515   0.00000  Uiso   1.00
C1390  C     0.51347   0.64246   0.78643   0.00000  Uiso   1.00
C1391  C     0.51734   0.35818   0.78431   0.00000  Uiso   1.00
C1392  C     0.48739   0.64261   0.71320   0.00000  Uiso   1.00
C1393  C     0.50089   0.49971   0.66473   0.00000  Uiso   1.00
C1394  C     0.49851   0.50001   0.83522   0.00000  Uiso   1.00
C1395  C     0.53618   0.49479   0.90646   0.00000  Uiso   1.00
C1396  C     0.46280   0.49730   0.59342   0.00000  Uiso   1.00
C1397  C     0.49880   0.49932   0.88350   0.00000  Uiso   1.00
C1398  C     0.50028   0.49830   0.61643   0.00000  Uiso   1.00
C1399  C     0.46158   0.50080   0.90614   0.00000  Uiso   1.00
C1400  C     0.53724   0.49455   0.59365   0.00000  Uiso   1.00
C1401  C     0.46178   0.49567   0.95277   0.00000  Uiso   1.00
C1402  C     0.53692   0.49245   0.54701   0.00000  Uiso   1.00
C1403  C     0.49929   0.49424   0.97639   0.00000  Uiso   1.00
C1404  C     0.49948   0.49379   0.52339   0.00000  Uiso   1.00
C1405  C     0.53660   0.49307   0.95321   0.00000  Uiso   1.00
C1406  C     0.46225   0.49450   0.54665   0.00000  Uiso   1.00
C1407  C     0.42539   0.49121   0.97627   0.00000  Uiso   1.00
C1408  C     0.57348   0.48910   0.52359   0.00000  Uiso   1.00
Cu1409 Cu    0.50000   0.54689   0.75000   0.00000  Uiso   1.00
Cu1410 Cu    0.50000   0.45311   0.75000   0.00000  Uiso   1.00
H1411  H     0.39652   0.48693   0.95926   0.00000  Uiso   1.00
H1412  H     0.60252   0.48646   0.54075   0.00000  Uiso   1.00
H1413  H     0.39645   0.48970   0.53901   0.00000  Uiso   1.00
H1414  H     0.60251   0.48779   0.96099   0.00000  Uiso   1.00
N1415  N     0.50000   0.61736   0.75000   0.00000  Uiso   1.00
N1416  N     0.50000   0.38264   0.75000   0.00000  Uiso   1.00
O1417  O     0.43988   0.53958   0.74999   0.00000  Uiso   1.00
O1418  O     0.56012   0.46042   0.75000   0.00000  Uiso   1.00
O1419  O     0.56012   0.53958   0.75000   0.00000  Uiso   1.00
O1420  O     0.43988   0.46042   0.74999   0.00000  Uiso   1.00
O1421  O     0.49999   0.53960   0.68513   0.00000  Uiso   1.00
O1422  O     0.50001   0.46040   0.81487   0.00000  Uiso   1.00
O1423  O     0.50001   0.53960   0.81487   0.00000  Uiso   1.00
O1424  O     0.49999   0.46040   0.68513   0.00000  Uiso   1.00
C1425  C     0.57394   0.49364   0.88168   0.00000  Uiso   1.00
N1426  N     0.60399   0.49282   0.86196   0.00000  Uiso   1.00
C1427  C     0.42527   0.50032   0.61820   0.00000  Uiso   1.00
N1428  N     0.39547   0.50282   0.63818   0.00000  Uiso   1.00
O1429  O     0.42544   0.50509   0.88175   0.00000  Uiso   1.00
C1430  C     0.40628   0.54838   0.89045   0.00000  Uiso   1.00
H1431  H     0.42738   0.57512   0.90357   0.00000  Uiso   1.00
H1432  H     0.38170   0.54423   0.91500   0.00000  Uiso   1.00
C1433  C     0.38619   0.56653   0.84811   0.00000  Uiso   1.00
H1434  H     0.37050   0.59994   0.85499   0.00000  Uiso   1.00
H1435  H     0.40944   0.57209   0.82237   0.00000  Uiso   1.00
H1436  H     0.36338   0.54148   0.83567   0.00000  Uiso   1.00
O1437  O     0.57359   0.48952   0.61706   0.00000  Uiso   1.00
C1438  C     0.59076   0.53337   0.62458   0.00000  Uiso   1.00
H1439  H     0.58049   0.54655   0.65729   0.00000  Uiso   1.00
H1440  H     0.58271   0.55932   0.59841   0.00000  Uiso   1.00
C1441  C     0.63686   0.52849   0.62611   0.00000  Uiso   1.00
H1442  H     0.64857   0.51895   0.59279   0.00000  Uiso   1.00
H1443  H     0.65061   0.56173   0.63648   0.00000  Uiso   1.00
H1444  H     0.64606   0.50125   0.65018   0.00000  Uiso   1.00
C1445  C     0.37268   0.41833   0.77425   0.00000  Uiso   1.00
N1446  N     0.38711   0.38558   0.79016   0.00000  Uiso   1.00
C1447  C     0.62354   0.58567   0.72993   0.00000  Uiso   1.00
N1448  N     0.60623   0.61985   0.72274   0.00000  Uiso   1.00
C1449  C     0.62879   0.41596   0.72915   0.00000  Uiso   1.00
N1450  N     0.61489   0.38223   0.71549   0.00000  Uiso   1.00
C1451  C     0.37427   0.58456   0.72725   0.00000  Uiso   1.00
N1452  N     0.39014   0.61857   0.71829   0.00000  Uiso   1.00
O1453  O     0.46836   0.38168   0.67830   0.00000  Uiso   1.00
C1454  C     0.42537   0.38473   0.67936   0.00000  Uiso   1.00
H1455  H     0.41639   0.42163   0.68106   0.00000  Uiso   1.00
H1456  H     0.41138   0.36737   0.70814   0.00000  Uiso   1.00
C1457  C     0.40717   0.36533   0.63651   0.00000  Uiso   1.00
H1458  H     0.41276   0.66089   0.63451   0.00000  Uiso   1.00
H1459  H     0.37376   0.37176   0.63588   0.00000  Uiso   1.00
H1460  H     0.42076   0.38240   0.60728   0.00000  Uiso   1.00
O1461  O     0.52559   0.62059   0.82521   0.00000  Uiso   1.00
C1462  C     0.49630   0.62986   0.85860   0.00000  Uiso   1.00
H1463  H     0.46940   0.60798   0.85264   0.00000  Uiso   1.00
H1464  H     0.48518   0.66633   0.85940   0.00000  Uiso   1.00
C1465  C     0.51429   0.61913   0.90445   0.00000  Uiso   1.00
H1466  H     0.53235   0.64871   0.91684   0.00000  Uiso   1.00
H1467  H     0.48957   0.61300   0.92850   0.00000  Uiso   1.00
H1468  H     0.53437   0.58821   0.90302   0.00000  Uiso   1.00
O1469  O     0.53541   0.38136   0.81958   0.00000  Uiso   1.00
C1470  C     0.57831   0.37584   0.81855   0.00000  Uiso   1.00
H1471  H     0.59155   0.40926   0.80906   0.00000  Uiso   1.00
H1472  H     0.58955   0.34886   0.79492   0.00000  Uiso   1.00
C1473  C     0.59479   0.36420   0.86473   0.00000  Uiso   1.00
H1474  H     0.58881   0.66089   0.87243   0.00000  Uiso   1.00
H1475  H     0.62826   0.36922   0.86579   0.00000  Uiso   1.00
H1476  H     0.58049   0.38690   0.89018   0.00000  Uiso   1.00
O1477  O     0.47709   0.62095   0.67369   0.00000  Uiso   1.00
C1478  C     0.50782   0.62921   0.64186   0.00000  Uiso   1.00
H1479  H     0.53379   0.60524   0.64767   0.00000  Uiso   1.00
H1480  H     0.52033   0.66476   0.64295   0.00000  Uiso   1.00
C1481  C     0.49096   0.62138   0.59505   0.00000  Uiso   1.00
H1482  H     0.47147   0.65111   0.58482   0.00000  Uiso   1.00
H1483  H     0.51638   0.61784   0.57119   0.00000  Uiso   1.00
H1484  H     0.47249   0.58973   0.59374   0.00000  Uiso   1.00
C1485  C     0.75414   0.50027   0.75030   0.00000  Uiso   1.00
C1486  C     0.91237   0.49992   0.74723   0.00000  Uiso   1.00
C1487  C     0.75881   0.49170   0.52247   0.00000  Uiso   1.00
C1488  C     0.90673   0.48971   0.97743   0.00000  Uiso   1.00
C1489  C     0.68756   0.45952   0.75490   0.00000  Uiso   1.00
C1490  C     0.97819   0.54236   0.73862   0.00000  Uiso   1.00
C1491  C     0.97949   0.45871   0.74496   0.00000  Uiso   1.00
C1492  C     0.68738   0.54204   0.73844   0.00000  Uiso   1.00
C1493  C     0.95708   0.50034   0.74331   0.00000  Uiso   1.00
C1494  C     0.70926   0.50086   0.74883   0.00000  Uiso   1.00
C1495  C     0.81690   0.35840   0.71515   0.00000  Uiso   1.00
C1496  C     0.84680   0.64246   0.78643   0.00000  Uiso   1.00
C1497  C     0.85068   0.35818   0.78431   0.00000  Uiso   1.00
C1498  C     0.82073   0.64261   0.71320   0.00000  Uiso   1.00
C1499  C     0.83423   0.49971   0.66473   0.00000  Uiso   1.00
C1500  C     0.83184   0.50001   0.83522   0.00000  Uiso   1.00
C1501  C     0.86951   0.49479   0.90646   0.00000  Uiso   1.00
C1502  C     0.79614   0.49730   0.59342   0.00000  Uiso   1.00
C1503  C     0.83213   0.49932   0.88350   0.00000  Uiso   1.00
C1504  C     0.83362   0.49830   0.61643   0.00000  Uiso   1.00
C1505  C     0.79491   0.50080   0.90614   0.00000  Uiso   1.00
C1506  C     0.87058   0.49455   0.59365   0.00000  Uiso   1.00
C1507  C     0.79511   0.49567   0.95277   0.00000  Uiso   1.00
C1508  C     0.87025   0.49245   0.54701   0.00000  Uiso   1.00
C1509  C     0.83262   0.49424   0.97639   0.00000  Uiso   1.00
C1510  C     0.83281   0.49379   0.52339   0.00000  Uiso   1.00
C1511  C     0.86993   0.49307   0.95321   0.00000  Uiso   1.00
C1512  C     0.79558   0.49450   0.54665   0.00000  Uiso   1.00
C1513  C     0.75872   0.49121   0.97627   0.00000  Uiso   1.00
C1514  C     0.90681   0.48910   0.52359   0.00000  Uiso   1.00
Cu1515 Cu    0.83333   0.54689   0.75000   0.00000  Uiso   1.00
Cu1516 Cu    0.83333   0.45311   0.75000   0.00000  Uiso   1.00
H1517  H     0.72985   0.48693   0.95926   0.00000  Uiso   1.00
H1518  H     0.93585   0.48646   0.54075   0.00000  Uiso   1.00
H1519  H     0.72979   0.48970   0.53901   0.00000  Uiso   1.00
H1520  H     0.93585   0.48779   0.96099   0.00000  Uiso   1.00
N1521  N     0.83333   0.61736   0.75000   0.00000  Uiso   1.00
N1522  N     0.83333   0.38264   0.75000   0.00000  Uiso   1.00
O1523  O     0.77321   0.53958   0.74999   0.00000  Uiso   1.00
O1524  O     0.89345   0.46042   0.75000   0.00000  Uiso   1.00
O1525  O     0.89345   0.53958   0.75000   0.00000  Uiso   1.00
O1526  O     0.77321   0.46042   0.74999   0.00000  Uiso   1.00
O1527  O     0.83332   0.53960   0.68513   0.00000  Uiso   1.00
O1528  O     0.83334   0.46040   0.81487   0.00000  Uiso   1.00
O1529  O     0.83334   0.53960   0.81487   0.00000  Uiso   1.00
O1530  O     0.83332   0.46040   0.68513   0.00000  Uiso   1.00
C1531  C     0.90727   0.49364   0.88168   0.00000  Uiso   1.00
N1532  N     0.93732   0.49282   0.86196   0.00000  Uiso   1.00
C1533  C     0.75860   0.50032   0.61820   0.00000  Uiso   1.00
N1534  N     0.72880   0.50282   0.63818   0.00000  Uiso   1.00
O1535  O     0.75877   0.50509   0.88175   0.00000  Uiso   1.00
C1536  C     0.73961   0.54838   0.89045   0.00000  Uiso   1.00
H1537  H     0.76072   0.57512   0.90357   0.00000  Uiso   1.00
H1538  H     0.71503   0.54423   0.91500   0.00000  Uiso   1.00
C1539  C     0.71952   0.56653   0.84811   0.00000  Uiso   1.00
H1540  H     0.70383   0.59994   0.85499   0.00000  Uiso   1.00
H1541  H     0.74277   0.57209   0.82237   0.00000  Uiso   1.00
H1542  H     0.69671   0.54148   0.83567   0.00000  Uiso   1.00
O1543  O     0.90693   0.48952   0.61706   0.00000  Uiso   1.00
C1544  C     0.92410   0.53337   0.62458   0.00000  Uiso   1.00
H1545  H     0.91383   0.54655   0.65729   0.00000  Uiso   1.00
H1546  H     0.91604   0.55932   0.59841   0.00000  Uiso   1.00
C1547  C     0.97020   0.52849   0.62611   0.00000  Uiso   1.00
H1548  H     0.98190   0.51895   0.59279   0.00000  Uiso   1.00
H1549  H     0.98394   0.56173   0.63648   0.00000  Uiso   1.00
H1550  H     0.97939   0.50125   0.65018   0.00000  Uiso   1.00
C1551  C     0.70602   0.41833   0.77425   0.00000  Uiso   1.00
N1552  N     0.72044   0.38558   0.79016   0.00000  Uiso   1.00
C1553  C     0.95687   0.58567   0.72993   0.00000  Uiso   1.00
N1554  N     0.93956   0.61985   0.72274   0.00000  Uiso   1.00
C1555  C     0.96213   0.41596   0.72915   0.00000  Uiso   1.00
N1556  N     0.94822   0.38223   0.71549   0.00000  Uiso   1.00
C1557  C     0.70760   0.58456   0.72725   0.00000  Uiso   1.00
N1558  N     0.72348   0.61857   0.71829   0.00000  Uiso   1.00
O1559  O     0.80169   0.38168   0.67830   0.00000  Uiso   1.00
C1560  C     0.75870   0.38473   0.67936   0.00000  Uiso   1.00
H1561  H     0.74973   0.42163   0.68106   0.00000  Uiso   1.00
H1562  H     0.74471   0.36737   0.70814   0.00000  Uiso   1.00
C1563  C     0.74050   0.36533   0.63651   0.00000  Uiso   1.00
H1564  H     0.74610   0.66089   0.63451   0.00000  Uiso   1.00
H1565  H     0.70709   0.37176   0.63588   0.00000  Uiso   1.00
H1566  H     0.75409   0.38240   0.60728   0.00000  Uiso   1.00
O1567  O     0.85893   0.62059   0.82521   0.00000  Uiso   1.00
C1568  C     0.82963   0.62986   0.85860   0.00000  Uiso   1.00
H1569  H     0.80273   0.60798   0.85264   0.00000  Uiso   1.00
H1570  H     0.81851   0.66633   0.85940   0.00000  Uiso   1.00
C1571  C     0.84763   0.61913   0.90445   0.00000  Uiso   1.00
H1572  H     0.86569   0.64871   0.91684   0.00000  Uiso   1.00
H1573  H     0.82290   0.61300   0.92850   0.00000  Uiso   1.00
H1574  H     0.86770   0.58821   0.90302   0.00000  Uiso   1.00
O1575  O     0.86875   0.38136   0.81958   0.00000  Uiso   1.00
C1576  C     0.91164   0.37584   0.81855   0.00000  Uiso   1.00
H1577  H     0.92488   0.40926   0.80906   0.00000  Uiso   1.00
H1578  H     0.92289   0.34886   0.79492   0.00000  Uiso   1.00
C1579  C     0.92813   0.36420   0.86473   0.00000  Uiso   1.00
H1580  H     0.92215   0.66089   0.87243   0.00000  Uiso   1.00
H1581  H     0.96159   0.36922   0.86579   0.00000  Uiso   1.00
H1582  H     0.91383   0.38690   0.89018   0.00000  Uiso   1.00
O1583  O     0.81042   0.62095   0.67369   0.00000  Uiso   1.00
C1584  C     0.84116   0.62921   0.64186   0.00000  Uiso   1.00
H1585  H     0.86713   0.60524   0.64767   0.00000  Uiso   1.00
H1586  H     0.85366   0.66476   0.64295   0.00000  Uiso   1.00
C1587  C     0.82429   0.62138   0.59505   0.00000  Uiso   1.00
H1588  H     0.80481   0.65111   0.58482   0.00000  Uiso   1.00
H1589  H     0.84971   0.61784   0.57119   0.00000  Uiso   1.00
H1590  H     0.80582   0.58973   0.59374   0.00000  Uiso   1.00
C1591  C     0.08747   0.83360   0.75030   0.00000  Uiso   1.00
C1592  C     0.24570   0.83325   0.74723   0.00000  Uiso   1.00
C1593  C     0.09214   0.82504   0.52247   0.00000  Uiso   1.00
C1594  C     0.24006   0.82305   0.97743   0.00000  Uiso   1.00
C1595  C     0.02089   0.79285   0.75490   0.00000  Uiso   1.00
C1596  C     0.31152   0.87569   0.73862   0.00000  Uiso   1.00
C1597  C     0.31282   0.79204   0.74496   0.00000  Uiso   1.00
C1598  C     0.02071   0.87537   0.73844   0.00000  Uiso   1.00
C1599  C     0.29042   0.83367   0.74331   0.00000  Uiso   1.00
C1600  C     0.04259   0.83419   0.74883   0.00000  Uiso   1.00
C1601  C     0.15023   0.69173   0.71515   0.00000  Uiso   1.00
C1602  C     0.18013   0.97579   0.78643   0.00000  Uiso   1.00
C1603  C     0.18401   0.69151   0.78431   0.00000  Uiso   1.00
C1604  C     0.15406   0.97594   0.71320   0.00000  Uiso   1.00
C1605  C     0.16756   0.83304   0.66473   0.00000  Uiso   1.00
C1606  C     0.16518   0.83334   0.83522   0.00000  Uiso   1.00
C1607  C     0.20284   0.82812   0.90646   0.00000  Uiso   1.00
C1608  C     0.12947   0.83064   0.59342   0.00000  Uiso   1.00
C1609  C     0.16546   0.83265   0.88350   0.00000  Uiso   1.00
C1610  C     0.16695   0.83163   0.61643   0.00000  Uiso   1.00
C1611  C     0.12824   0.83413   0.90614   0.00000  Uiso   1.00
C1612  C     0.20391   0.82788   0.59365   0.00000  Uiso   1.00
C1613  C     0.12844   0.82900   0.95277   0.00000  Uiso   1.00
C1614  C     0.20358   0.82578   0.54701   0.00000  Uiso   1.00
C1615  C     0.16596   0.82757   0.97639   0.00000  Uiso   1.00
C1616  C     0.16614   0.82713   0.52339   0.00000  Uiso   1.00
C1617  C     0.20326   0.82640   0.95321   0.00000  Uiso   1.00
C1618  C     0.12891   0.82784   0.54665   0.00000  Uiso   1.00
C1619  C     0.09205   0.82455   0.97627   0.00000  Uiso   1.00
C1620  C     0.24014   0.82243   0.52359   0.00000  Uiso   1.00
Cu1621 Cu    0.16667   0.88022   0.75000   0.00000  Uiso   1.00
Cu1622 Cu    0.16667   0.78645   0.75000   0.00000  Uiso   1.00
H1623  H     0.06319   0.82026   0.95926   0.00000  Uiso   1.00
H1624  H     0.26918   0.81979   0.54075   0.00000  Uiso   1.00
H1625  H     0.06312   0.82303   0.53901   0.00000  Uiso   1.00
H1626  H     0.26918   0.82112   0.96099   0.00000  Uiso   1.00
N1627  N     0.16667   0.95069   0.75000   0.00000  Uiso   1.00
N1628  N     0.16667   0.71598   0.75000   0.00000  Uiso   1.00
O1629  O     0.10655   0.87291   0.74999   0.00000  Uiso   1.00
O1630  O     0.22679   0.79375   0.75000   0.00000  Uiso   1.00
O1631  O     0.22679   0.87291   0.75000   0.00000  Uiso   1.00
O1632  O     0.10655   0.79375   0.74999   0.00000  Uiso   1.00
O1633  O     0.16666   0.87293   0.68513   0.00000  Uiso   1.00
O1634  O     0.16668   0.79373   0.81487   0.00000  Uiso   1.00
O1635  O     0.16668   0.87293   0.81487   0.00000  Uiso   1.00
O1636  O     0.16666   0.79373   0.68513   0.00000  Uiso   1.00
C1637  C     0.24061   0.82697   0.88168   0.00000  Uiso   1.00
N1638  N     0.27066   0.82616   0.86196   0.00000  Uiso   1.00
C1639  C     0.09193   0.83365   0.61820   0.00000  Uiso   1.00
N1640  N     0.06213   0.83615   0.63818   0.00000  Uiso   1.00
O1641  O     0.09211   0.83843   0.88175   0.00000  Uiso   1.00
C1642  C     0.07294   0.88172   0.89045   0.00000  Uiso   1.00
H1643  H     0.09405   0.90846   0.90357   0.00000  Uiso   1.00
H1644  H     0.04837   0.87757   0.91500   0.00000  Uiso   1.00
C1645  C     0.05286   0.89986   0.84811   0.00000  Uiso   1.00
H1646  H     0.03717   0.93327   0.85499   0.00000  Uiso   1.00
H1647  H     0.07611   0.90542   0.82237   0.00000  Uiso   1.00
H1648  H     0.03005   0.87481   0.83567   0.00000  Uiso   1.00
O1649  O     0.24026   0.82285   0.61706   0.00000  Uiso   1.00
C1650  C     0.25743   0.86671   0.62458   0.00000  Uiso   1.00
H1651  H     0.24716   0.87988   0.65729   0.00000  Uiso   1.00
H1652  H     0.24937   0.89265   0.59841   0.00000  Uiso   1.00
C1653  C     0.30353   0.86183   0.62611   0.00000  Uiso   1.00
H1654  H     0.31523   0.85228   0.59279   0.00000  Uiso   1.00
H1655  H     0.31728   0.89506   0.63648   0.00000  Uiso   1.00
H1656  H     0.31273   0.83459   0.65018   0.00000  Uiso   1.00
C1657  C     0.03935   0.75167   0.77425   0.00000  Uiso   1.00
N1658  N     0.05378   0.71892   0.79016   0.00000  Uiso   1.00
C1659  C     0.29020   0.91900   0.72993   0.00000  Uiso   1.00
N1660  N     0.27290   0.95318   0.72274   0.00000  Uiso   1.00
C1661  C     0.29546   0.74929   0.72915   0.00000  Uiso   1.00
N1662  N     0.28156   0.71556   0.71549   0.00000  Uiso   1.00
C1663  C     0.04094   0.91790   0.72725   0.00000  Uiso   1.00
N1664  N     0.05681   0.95191   0.71829   0.00000  Uiso   1.00
O1665  O     0.13503   0.71502   0.67830   0.00000  Uiso   1.00
C1666  C     0.09204   0.71806   0.67936   0.00000  Uiso   1.00
H1667  H     0.08306   0.75496   0.68106   0.00000  Uiso   1.00
H1668  H     0.07805   0.70070   0.70814   0.00000  Uiso   1.00
C1669  C     0.07383   0.69866   0.63651   0.00000  Uiso   1.00
H1670  H     0.07943   0.99423   0.63451   0.00000  Uiso   1.00
H1671  H     0.04042   0.70509   0.63588   0.00000  Uiso   1.00
H1672  H     0.08742   0.71573   0.60728   0.00000  Uiso   1.00
O1673  O     0.19226   0.95392   0.82521   0.00000  Uiso   1.00
C1674  C     0.16296   0.96319   0.85860   0.00000  Uiso   1.00
H1675  H     0.13607   0.94132   0.85264   0.00000  Uiso   1.00
H1676  H     0.15185   0.99966   0.85940   0.00000  Uiso   1.00
C1677  C     0.18096   0.95246   0.90445   0.00000  Uiso   1.00
H1678  H     0.19902   0.98204   0.91684   0.00000  Uiso   1.00
H1679  H     0.15624   0.94633   0.92850   0.00000  Uiso   1.00
H1680  H     0.20103   0.92154   0.90302   0.00000  Uiso   1.00
O1681  O     0.20208   0.71469   0.81958   0.00000  Uiso   1.00
C1682  C     0.24497   0.70918   0.81855   0.00000  Uiso   1.00
H1683  H     0.25821   0.74260   0.80906   0.00000  Uiso   1.00
H1684  H     0.25622   0.68219   0.79492   0.00000  Uiso   1.00
C1685  C     0.26146   0.69753   0.86473   0.00000  Uiso   1.00
H1686  H     0.25548   0.99422   0.87243   0.00000  Uiso   1.00
H1687  H     0.29493   0.70256   0.86579   0.00000  Uiso   1.00
H1688  H     0.24716   0.72023   0.89018   0.00000  Uiso   1.00
O1689  O     0.14376   0.95428   0.67369   0.00000  Uiso   1.00
C1690  C     0.17449   0.96254   0.64186   0.00000  Uiso   1.00
H1691  H     0.20046   0.93858   0.64767   0.00000  Uiso   1.00
H1692  H     0.18700   0.99809   0.64295   0.00000  Uiso   1.00
C1693  C     0.15762   0.95471   0.59505   0.00000  Uiso   1.00
H1694  H     0.13814   0.98445   0.58482   0.00000  Uiso   1.00
H1695  H     0.18305   0.95117   0.57119   0.00000  Uiso   1.00
H1696  H     0.13915   0.92307   0.59374   0.00000  Uiso   1.00
C1697  C     0.42080   0.83360   0.75030   0.00000  Uiso   1.00
C1698  C     0.57903   0.83325   0.74723   0.00000  Uiso   1.00
C1699  C     0.42547   0.82504   0.52247   0.00000  Uiso   1.00
C1700  C     0.57340   0.82305   0.97743   0.00000  Uiso   1.00
C1701  C     0.35422   0.79285   0.75490   0.00000  Uiso   1.00
C1702  C     0.64485   0.87569   0.73862   0.00000  Uiso   1.00
C1703  C     0.64616   0.79204   0.74496   0.00000  Uiso   1.00
C1704  C     0.35405   0.87537   0.73844   0.00000  Uiso   1.00
C1705  C     0.62375   0.83367   0.74331   0.00000  Uiso   1.00
C1706  C     0.37592   0.83419   0.74883   0.00000  Uiso   1.00
C1707  C     0.48356   0.69173   0.71515   0.00000  Uiso   1.00
C1708  C     0.51347   0.97579   0.78643   0.00000  Uiso   1.00
C1709  C     0.51734   0.69151   0.78431   0.00000  Uiso   1.00
C1710  C     0.48739   0.97594   0.71320   0.00000  Uiso   1.00
C1711  C     0.50089   0.83304   0.66473   0.00000  Uiso   1.00
C1712  C     0.49851   0.83334   0.83522   0.00000  Uiso   1.00
C1713  C     0.53618   0.82812   0.90646   0.00000  Uiso   1.00
C1714  C     0.46280   0.83064   0.59342   0.00000  Uiso   1.00
C1715  C     0.49880   0.83265   0.88350   0.00000  Uiso   1.00
C1716  C     0.50028   0.83163   0.61643   0.00000  Uiso   1.00
C1717  C     0.46158   0.83413   0.90614   0.00000  Uiso   1.00
C1718  C     0.53724   0.82788   0.59365   0.00000  Uiso   1.00
C1719  C     0.46178   0.82900   0.95277   0.00000  Uiso   1.00
C1720  C     0.53692   0.82578   0.54701   0.00000  Uiso   1.00
C1721  C     0.49929   0.82757   0.97639   0.00000  Uiso   1.00
C1722  C     0.49948   0.82713   0.52339   0.00000  Uiso   1.00
C1723  C     0.53660   0.82640   0.95321   0.00000  Uiso   1.00
C1724  C     0.46225   0.82784   0.54665   0.00000  Uiso   1.00
C1725  C     0.42539   0.82455   0.97627   0.00000  Uiso   1.00
C1726  C     0.57348   0.82243   0.52359   0.00000  Uiso   1.00
Cu1727 Cu    0.50000   0.88022   0.75000   0.00000  Uiso   1.00
Cu1728 Cu    0.50000   0.78645   0.75000   0.00000  Uiso   1.00
H1729  H     0.39652   0.82026   0.95926   0.00000  Uiso   1.00
H1730  H     0.60252   0.81979   0.54075   0.00000  Uiso   1.00
H1731  H     0.39645   0.82303   0.53901   0.00000  Uiso   1.00
H1732  H     0.60251   0.82112   0.96099   0.00000  Uiso   1.00
N1733  N     0.50000   0.95069   0.75000   0.00000  Uiso   1.00
N1734  N     0.50000   0.71598   0.75000   0.00000  Uiso   1.00
O1735  O     0.43988   0.87291   0.74999   0.00000  Uiso   1.00
O1736  O     0.56012   0.79375   0.75000   0.00000  Uiso   1.00
O1737  O     0.56012   0.87291   0.75000   0.00000  Uiso   1.00
O1738  O     0.43988   0.79375   0.74999   0.00000  Uiso   1.00
O1739  O     0.49999   0.87293   0.68513   0.00000  Uiso   1.00
O1740  O     0.50001   0.79373   0.81487   0.00000  Uiso   1.00
O1741  O     0.50001   0.87293   0.81487   0.00000  Uiso   1.00
O1742  O     0.49999   0.79373   0.68513   0.00000  Uiso   1.00
C1743  C     0.57394   0.82697   0.88168   0.00000  Uiso   1.00
N1744  N     0.60399   0.82616   0.86196   0.00000  Uiso   1.00
C1745  C     0.42527   0.83365   0.61820   0.00000  Uiso   1.00
N1746  N     0.39547   0.83615   0.63818   0.00000  Uiso   1.00
O1747  O     0.42544   0.83843   0.88175   0.00000  Uiso   1.00
C1748  C     0.40628   0.88172   0.89045   0.00000  Uiso   1.00
H1749  H     0.42738   0.90846   0.90357   0.00000  Uiso   1.00
H1750  H     0.38170   0.87757   0.91500   0.00000  Uiso   1.00
C1751  C     0.38619   0.89986   0.84811   0.00000  Uiso   1.00
H1752  H     0.37050   0.93327   0.85499   0.00000  Uiso   1.00
H1753  H     0.40944   0.90542   0.82237   0.00000  Uiso   1.00
H1754  H     0.36338   0.87481   0.83567   0.00000  Uiso   1.00
O1755  O     0.57359   0.82285   0.61706   0.00000  Uiso   1.00
C1756  C     0.59076   0.86671   0.62458   0.00000  Uiso   1.00
H1757  H     0.58049   0.87988   0.65729   0.00000  Uiso   1.00
H1758  H     0.58271   0.89265   0.59841   0.00000  Uiso   1.00
C1759  C     0.63686   0.86183   0.62611   0.00000  Uiso   1.00
H1760  H     0.64857   0.85228   0.59279   0.00000  Uiso   1.00
H1761  H     0.65061   0.89506   0.63648   0.00000  Uiso   1.00
H1762  H     0.64606   0.83459   0.65018   0.00000  Uiso   1.00
C1763  C     0.37268   0.75167   0.77425   0.00000  Uiso   1.00
N1764  N     0.38711   0.71892   0.79016   0.00000  Uiso   1.00
C1765  C     0.62354   0.91900   0.72993   0.00000  Uiso   1.00
N1766  N     0.60623   0.95318   0.72274   0.00000  Uiso   1.00
C1767  C     0.62879   0.74929   0.72915   0.00000  Uiso   1.00
N1768  N     0.61489   0.71556   0.71549   0.00000  Uiso   1.00
C1769  C     0.37427   0.91790   0.72725   0.00000  Uiso   1.00
N1770  N     0.39014   0.95191   0.71829   0.00000  Uiso   1.00
O1771  O     0.46836   0.71502   0.67830   0.00000  Uiso   1.00
C1772  C     0.42537   0.71806   0.67936   0.00000  Uiso   1.00
H1773  H     0.41639   0.75496   0.68106   0.00000  Uiso   1.00
H1774  H     0.41138   0.70070   0.70814   0.00000  Uiso   1.00
C1775  C     0.40717   0.69866   0.63651   0.00000  Uiso   1.00
H1776  H     0.41276   0.99423   0.63451   0.00000  Uiso   1.00
H1777  H     0.37376   0.70509   0.63588   0.00000  Uiso   1.00
H1778  H     0.42076   0.71573   0.60728   0.00000  Uiso   1.00
O1779  O     0.52559   0.95392   0.82521   0.00000  Uiso   1.00
C1780  C     0.49630   0.96319   0.85860   0.00000  Uiso   1.00
H1781  H     0.46940   0.94132   0.85264   0.00000  Uiso   1.00
H1782  H     0.48518   0.99966   0.85940   0.00000  Uiso   1.00
C1783  C     0.51429   0.95246   0.90445   0.00000  Uiso   1.00
H1784  H     0.53235   0.98204   0.91684   0.00000  Uiso   1.00
H1785  H     0.48957   0.94633   0.92850   0.00000  Uiso   1.00
H1786  H     0.53437   0.92154   0.90302   0.00000  Uiso   1.00
O1787  O     0.53541   0.71469   0.81958   0.00000  Uiso   1.00
C1788  C     0.57831   0.70918   0.81855   0.00000  Uiso   1.00
H1789  H     0.59155   0.74260   0.80906   0.00000  Uiso   1.00
H1790  H     0.58955   0.68219   0.79492   0.00000  Uiso   1.00
C1791  C     0.59479   0.69753   0.86473   0.00000  Uiso   1.00
H1792  H     0.58881   0.99422   0.87243   0.00000  Uiso   1.00
H1793  H     0.62826   0.70256   0.86579   0.00000  Uiso   1.00
H1794  H     0.58049   0.72023   0.89018   0.00000  Uiso   1.00
O1795  O     0.47709   0.95428   0.67369   0.00000  Uiso   1.00
C1796  C     0.50782   0.96254   0.64186   0.00000  Uiso   1.00
H1797  H     0.53379   0.93858   0.64767   0.00000  Uiso   1.00
H1798  H     0.52033   0.99809   0.64295   0.00000  Uiso   1.00
C1799  C     0.49096   0.95471   0.59505   0.00000  Uiso   1.00
H1800  H     0.47147   0.98445   0.58482   0.00000  Uiso   1.00
H1801  H     0.51638   0.95117   0.57119   0.00000  Uiso   1.00
H1802  H     0.47249   0.92307   0.59374   0.00000  Uiso   1.00
C1803  C     0.75414   0.83360   0.75030   0.00000  Uiso   1.00
C1804  C     0.91237   0.83325   0.74723   0.00000  Uiso   1.00
C1805  C     0.75881   0.82504   0.52247   0.00000  Uiso   1.00
C1806  C     0.90673   0.82305   0.97743   0.00000  Uiso   1.00
C1807  C     0.68756   0.79285   0.75490   0.00000  Uiso   1.00
C1808  C     0.97819   0.87569   0.73862   0.00000  Uiso   1.00
C1809  C     0.97949   0.79204   0.74496   0.00000  Uiso   1.00
C1810  C     0.68738   0.87537   0.73844   0.00000  Uiso   1.00
C1811  C     0.95708   0.83367   0.74331   0.00000  Uiso   1.00
C1812  C     0.70926   0.83419   0.74883   0.00000  Uiso   1.00
C1813  C     0.81690   0.69173   0.71515   0.00000  Uiso   1.00
C1814  C     0.84680   0.97579   0.78643   0.00000  Uiso   1.00
C1815  C     0.85068   0.69151   0.78431   0.00000  Uiso   1.00
C1816  C     0.82073   0.97594   0.71320   0.00000  Uiso   1.00
C1817  C     0.83423   0.83304   0.66473   0.00000  Uiso   1.00
C1818  C     0.83184   0.83334   0.83522   0.00000  Uiso   1.00
C1819  C     0.86951   0.82812   0.90646   0.00000  Uiso   1.00
C1820  C     0.79614   0.83064   0.59342   0.00000  Uiso   1.00
C1821  C     0.83213   0.83265   0.88350   0.00000  Uiso   1.00
C1822  C     0.83362   0.83163   0.61643   0.00000  Uiso   1.00
C1823  C     0.79491   0.83413   0.90614   0.00000  Uiso   1.00
C1824  C     0.87058   0.82788   0.59365   0.00000  Uiso   1.00
C1825  C     0.79511   0.82900   0.95277   0.00000  Uiso   1.00
C1826  C     0.87025   0.82578   0.54701   0.00000  Uiso   1.00
C1827  C     0.83262   0.82757   0.97639   0.00000  Uiso   1.00
C1828  C     0.83281   0.82713   0.52339   0.00000  Uiso   1.00
C1829  C     0.86993   0.82640   0.95321   0.00000  Uiso   1.00
C1830  C     0.79558   0.82784   0.54665   0.00000  Uiso   1.00
C1831  C     0.75872   0.82455   0.97627   0.00000  Uiso   1.00
C1832  C     0.90681   0.82243   0.52359   0.00000  Uiso   1.00
Cu1833 Cu    0.83333   0.88022   0.75000   0.00000  Uiso   1.00
Cu1834 Cu    0.83333   0.78645   0.75000   0.00000  Uiso   1.00
H1835  H     0.72985   0.82026   0.95926   0.00000  Uiso   1.00
H1836  H     0.93585   0.81979   0.54075   0.00000  Uiso   1.00
H1837  H     0.72979   0.82303   0.53901   0.00000  Uiso   1.00
H1838  H     0.93585   0.82112   0.96099   0.00000  Uiso   1.00
N1839  N     0.83333   0.95069   0.75000   0.00000  Uiso   1.00
N1840  N     0.83333   0.71598   0.75000   0.00000  Uiso   1.00
O1841  O     0.77321   0.87291   0.74999   0.00000  Uiso   1.00
O1842  O     0.89345   0.79375   0.75000   0.00000  Uiso   1.00
O1843  O     0.89345   0.87291   0.75000   0.00000  Uiso   1.00
O1844  O     0.77321   0.79375   0.74999   0.00000  Uiso   1.00
O1845  O     0.83332   0.87293   0.68513   0.00000  Uiso   1.00
O1846  O     0.83334   0.79373   0.81487   0.00000  Uiso   1.00
O1847  O     0.83334   0.87293   0.81487   0.00000  Uiso   1.00
O1848  O     0.83332   0.79373   0.68513   0.00000  Uiso   1.00
C1849  C     0.90727   0.82697   0.88168   0.00000  Uiso   1.00
N1850  N     0.93732   0.82616   0.86196   0.00000  Uiso   1.00
C1851  C     0.75860   0.83365   0.61820   0.00000  Uiso   1.00
N1852  N     0.72880   0.83615   0.63818   0.00000  Uiso   1.00
O1853  O     0.75877   0.83843   0.88175   0.00000  Uiso   1.00
C1854  C     0.73961   0.88172   0.89045   0.00000  Uiso   1.00
H1855  H     0.76072   0.90846   0.90357   0.00000  Uiso   1.00
H1856  H     0.71503   0.87757   0.91500   0.00000  Uiso   1.00
C1857  C     0.71952   0.89986   0.84811   0.00000  Uiso   1.00
H1858  H     0.70383   0.93327   0.85499   0.00000  Uiso   1.00
H1859  H     0.74277   0.90542   0.82237   0.00000  Uiso   1.00
H1860  H     0.69671   0.87481   0.83567   0.00000  Uiso   1.00
O1861  O     0.90693   0.82285   0.61706   0.00000  Uiso   1.00
C1862  C     0.92410   0.86671   0.62458   0.00000  Uiso   1.00
H1863  H     0.91383   0.87988   0.65729   0.00000  Uiso   1.00
H1864  H     0.91604   0.89265   0.59841   0.00000  Uiso   1.00
C1865  C     0.97020   0.86183   0.62611   0.00000  Uiso   1.00
H1866  H     0.98190   0.85228   0.59279   0.00000  Uiso   1.00
H1867  H     0.98394   0.89506   0.63648   0.00000  Uiso   1.00
H1868  H     0.97939   0.83459   0.65018   0.00000  Uiso   1.00
C1869  C     0.70602   0.75167   0.77425   0.00000  Uiso   1.00
N1870  N     0.72044   0.71892   0.79016   0.00000  Uiso   1.00
C1871  C     0.95687   0.91900   0.72993   0.00000  Uiso   1.00
N1872  N     0.93956   0.95318   0.72274   0.00000  Uiso   1.00
C1873  C     0.96213   0.74929   0.72915   0.00000  Uiso   1.00
N1874  N     0.94822   0.71556   0.71549   0.00000  Uiso   1.00
C1875  C     0.70760   0.91790   0.72725   0.00000  Uiso   1.00
N1876  N     0.72348   0.95191   0.71829   0.00000  Uiso   1.00
O1877  O     0.80169   0.71502   0.67830   0.00000  Uiso   1.00
C1878  C     0.75870   0.71806   0.67936   0.00000  Uiso   1.00
H1879  H     0.74973   0.75496   0.68106   0.00000  Uiso   1.00
H1880  H     0.74471   0.70070   0.70814   0.00000  Uiso   1.00
C1881  C     0.74050   0.69866   0.63651   0.00000  Uiso   1.00
H1882  H     0.74610   0.99423   0.63451   0.00000  Uiso   1.00
H1883  H     0.70709   0.70509   0.63588   0.00000  Uiso   1.00
H1884  H     0.75409   0.71573   0.60728   0.00000  Uiso   1.00
O1885  O     0.85893   0.95392   0.82521   0.00000  Uiso   1.00
C1886  C     0.82963   0.96319   0.85860   0.00000  Uiso   1.00
H1887  H     0.80273   0.94132   0.85264   0.00000  Uiso   1.00
H1888  H     0.81851   0.99966   0.85940   0.00000  Uiso   1.00
C1889  C     0.84763   0.95246   0.90445   0.00000  Uiso   1.00
H1890  H     0.86569   0.98204   0.91684   0.00000  Uiso   1.00
H1891  H     0.82290   0.94633   0.92850   0.00000  Uiso   1.00
H1892  H     0.86770   0.92154   0.90302   0.00000  Uiso   1.00
O1893  O     0.86875   0.71469   0.81958   0.00000  Uiso   1.00
C1894  C     0.91164   0.70918   0.81855   0.00000  Uiso   1.00
H1895  H     0.92488   0.74260   0.80906   0.00000  Uiso   1.00
H1896  H     0.92289   0.68219   0.79492   0.00000  Uiso   1.00
C1897  C     0.92813   0.69753   0.86473   0.00000  Uiso   1.00
H1898  H     0.92215   0.99422   0.87243   0.00000  Uiso   1.00
H1899  H     0.96159   0.70256   0.86579   0.00000  Uiso   1.00
H1900  H     0.91383   0.72023   0.89018   0.00000  Uiso   1.00
O1901  O     0.81042   0.95428   0.67369   0.00000  Uiso   1.00
C1902  C     0.84116   0.96254   0.64186   0.00000  Uiso   1.00
H1903  H     0.86713   0.93858   0.64767   0.00000  Uiso   1.00
H1904  H     0.85366   0.99809   0.64295   0.00000  Uiso   1.00
C1905  C     0.82429   0.95471   0.59505   0.00000  Uiso   1.00
H1906  H     0.80481   0.98445   0.58482   0.00000  Uiso   1.00
H1907  H     0.84971   0.95117   0.57119   0.00000  Uiso   1.00
H1908  H     0.80582   0.92307   0.59374   0.00000  Uiso   1.00
loop_
_geom_bond_atom_site_label_1
_geom_bond_atom_site_label_2
_geom_bond_distance
_geom_bond_site_symmetry_2
_ccdc_geom_bond_type
C1     C10     1.474   .     S
C1     O39     1.307   .     A
C1     O42     1.307   .     A
C2     O41     1.302   .     A
C2     O40     1.312   .     A
C2     C9      1.475   .     S
C3     C28     1.405   .     A
C3     H35     1.083   .     S
C3     C983    1.388   1_554 S
C4     H36     1.083   .     S
C4     C27     1.406   .     A
C4     C984    1.387   .     S
C5     C67     1.452   .     S
C5     C10     1.415   .     A
C5     C219    1.389   1_455 S
C6     C69     1.452   .     S
C6     C9      1.417   .     A
C6     C114    1.397   .     S
C7     C71     1.446   .     S
C7     C9      1.406   .     A
C7     C111    1.389   .     S
C8     C73     1.450   .     S
C8     C10     1.419   .     A
C8     C218    1.397   1_455 S
C11    N38     1.367   .     A
C11    O75     1.384   .     S
C11    C650    1.428   1_545 S
C12    N37     1.383   .     A
C12    O83     1.381   .     S
C12    C331    1.430   .     S
C13    O91     1.384   .     S
C13    N38     1.368   .     A
C13    C648    1.430   1_545 S
C14    O99     1.381   .     S
C14    N37     1.385   .     A
C14    C329    1.428   .     S
C15    C20     1.451   .     S
C15    O43     1.306   .     A
C15    O46     1.296   .     A
C16    O44     1.298   .     A
C16    O45     1.304   .     A
C16    C19     1.451   .     S
C17    C27     1.406   .     A
C17    C47     1.454   .     S
C17    C19     1.406   .     A
C18    C28     1.407   .     A
C18    C20     1.405   .     A
C18    C49     1.450   .     S
C19    C21     1.406   .     A
C20    C22     1.404   .     A
C21    O51     1.392   .     S
C21    C23     1.409   .     A
C22    C24     1.402   .     A
C22    O59     1.385   .     S
C23    C29     1.403   .     A
C23    C25     1.415   .     A
C24    C26     1.413   .     A
C24    C30     1.401   .     A
C25    C27     1.417   .     A
C25    C980    1.412   .     S
C26    C28     1.416   .     A
C26    C979    1.412   1_554 S
C29    H33     1.080   .     S
C29    C957    1.388   .     S
C30    H34     1.081   .     S
C30    C958    1.387   1_554 S
Cu31   O43     1.959   .     S
Cu31   Cu32    2.717   .     S
Cu31   O41     1.983   .     S
Cu31   O39     1.989   .     S
Cu31   N37     2.042   .     S
Cu31   O45     1.961   .     S
Cu32   N38     2.042   .     S
Cu32   O40     1.989   .     S
Cu32   O44     1.959   .     S
Cu32   O46     1.961   .     S
Cu32   O42     1.983   .     S
C47    N48     1.157   .     T
C49    N50     1.156   .     T
O51    C52     1.421   .     S
C52    C55     1.519   .     S
C52    H54     1.108   .     S
C52    H53     1.114   .     S
C55    H56     1.111   .     S
C55    H57     1.107   .     S
C55    H58     1.110   .     S
O59    C60     1.413   .     S
C60    C63     1.519   .     S
C60    H62     1.117   .     S
C60    H61     1.108   .     S
C63    H65     1.110   .     S
C63    H66     1.109   .     S
C63    H64     1.109   .     S
C67    N68     1.158   .     T
C69    N70     1.156   .     T
C71    N72     1.155   .     T
C73    N74     1.155   .     T
O75    C76     1.414   .     S
C76    C79     1.521   .     S
C76    H77     1.107   .     S
C76    H78     1.110   .     S
C79    H81     1.111   .     S
C79    H82     1.111   .     S
C79    H716    1.109   1_545 S
H80    C397    1.109   .     S
O83    C84     1.421   .     S
C84    C87     1.524   .     S
C84    H85     1.106   .     S
C84    H86     1.114   .     S
C87    H88     1.109   .     S
C87    H90     1.107   .     S
C87    H89     1.110   .     S
O91    C92     1.417   .     S
C92    H93     1.106   .     S
C92    H94     1.116   .     S
C92    C95     1.521   .     S
C95    H98     1.111   .     S
C95    H97     1.111   .     S
C95    H732    1.108   1_545 S
H96    C413    1.108   .     S
O99    C100    1.422   .     S
C100   H101    1.106   .     S
C100   H102    1.114   .     S
C100   C103    1.522   .     S
C103   H105    1.111   .     S
C103   H106    1.106   .     S
C103   H104    1.109   .     S
C107   C116    1.474   .     S
C107   O145    1.307   .     A
C107   O148    1.307   .     A
C108   O147    1.302   .     A
C108   O146    1.312   .     A
C108   C115    1.475   .     S
C109   C134    1.405   .     A
C109   H141    1.083   .     S
C109   C1089   1.388   1_554 S
C110   H142    1.083   .     S
C110   C133    1.406   .     A
C110   C1090   1.387   .     S
C111   C173    1.452   .     S
C111   C116    1.415   .     A
C112   C175    1.452   .     S
C112   C115    1.417   .     A
C112   C220    1.397   .     S
C113   C177    1.446   .     S
C113   C115    1.406   .     A
C113   C217    1.389   .     S
C114   C179    1.450   .     S
C114   C116    1.419   .     A
C117   N144    1.367   .     A
C117   O181    1.384   .     S
C117   C756    1.428   1_545 S
C118   N143    1.383   .     A
C118   O189    1.381   .     S
C118   C437    1.430   .     S
C119   O197    1.384   .     S
C119   N144    1.368   .     A
C119   C754    1.430   1_545 S
C120   O205    1.381   .     S
C120   N143    1.385   .     A
C120   C435    1.428   .     S
C121   C126    1.451   .     S
C121   O149    1.306   .     A
C121   O152    1.296   .     A
C122   O150    1.298   .     A
C122   O151    1.304   .     A
C122   C125    1.451   .     S
C123   C133    1.406   .     A
C123   C153    1.454   .     S
C123   C125    1.406   .     A
C124   C134    1.407   .     A
C124   C126    1.405   .     A
C124   C155    1.450   .     S
C125   C127    1.406   .     A
C126   C128    1.404   .     A
C127   O157    1.392   .     S
C127   C129    1.409   .     A
C128   C130    1.402   .     A
C128   O165    1.385   .     S
C129   C135    1.403   .     A
C129   C131    1.415   .     A
C130   C132    1.413   .     A
C130   C136    1.401   .     A
C131   C133    1.417   .     A
C131   C1086   1.412   .     S
C132   C134    1.416   .     A
C132   C1085   1.412   1_554 S
C135   H139    1.080   .     S
C135   C1063   1.388   .     S
C136   H140    1.081   .     S
C136   C1064   1.387   1_554 S
Cu137  O149    1.959   .     S
Cu137  Cu138   2.717   .     S
Cu137  O147    1.983   .     S
Cu137  O145    1.989   .     S
Cu137  N143    2.042   .     S
Cu137  O151    1.961   .     S
Cu138  N144    2.042   .     S
Cu138  O146    1.989   .     S
Cu138  O150    1.959   .     S
Cu138  O152    1.961   .     S
Cu138  O148    1.983   .     S
C153   N154    1.157   .     T
C155   N156    1.156   .     T
O157   C158    1.421   .     S
C158   C161    1.519   .     S
C158   H160    1.108   .     S
C158   H159    1.114   .     S
C161   H162    1.111   .     S
C161   H163    1.107   .     S
C161   H164    1.110   .     S
O165   C166    1.413   .     S
C166   C169    1.519   .     S
C166   H168    1.117   .     S
C166   H167    1.108   .     S
C169   H171    1.110   .     S
C169   H172    1.109   .     S
C169   H170    1.109   .     S
C173   N174    1.158   .     T
C175   N176    1.156   .     T
C177   N178    1.155   .     T
C179   N180    1.155   .     T
O181   C182    1.414   .     S
C182   C185    1.521   .     S
C182   H183    1.107   .     S
C182   H184    1.110   .     S
C185   H187    1.111   .     S
C185   H188    1.111   .     S
C185   H822    1.109   1_545 S
H186   C503    1.109   .     S
O189   C190    1.421   .     S
C190   C193    1.524   .     S
C190   H191    1.106   .     S
C190   H192    1.114   .     S
C193   H194    1.109   .     S
C193   H196    1.107   .     S
C193   H195    1.110   .     S
O197   C198    1.417   .     S
C198   H199    1.106   .     S
C198   H200    1.116   .     S
C198   C201    1.521   .     S
C201   H204    1.111   .     S
C201   H203    1.111   .     S
C201   H838    1.108   1_545 S
H202   C519    1.108   .     S
O205   C206    1.422   .     S
C206   H207    1.106   .     S
C206   H208    1.114   .     S
C206   C209    1.522   .     S
C209   H211    1.111   .     S
C209   H212    1.106   .     S
C209   H210    1.109   .     S
C213   C222    1.474   .     S
C213   O251    1.307   .     A
C213   O254    1.307   .     A
C214   O253    1.302   .     A
C214   O252    1.312   .     A
C214   C221    1.475   .     S
C215   C240    1.405   .     A
C215   H247    1.083   .     S
C215   C1195   1.388   1_554 S
C216   H248    1.083   .     S
C216   C239    1.406   .     A
C216   C1196   1.387   .     S
C217   C279    1.452   .     S
C217   C222    1.415   .     A
C218   C281    1.452   .     S
C218   C221    1.417   .     A
C218   C8      1.397   1_655 S
C219   C283    1.446   .     S
C219   C221    1.406   .     A
C219   C5      1.389   1_655 S
C220   C285    1.450   .     S
C220   C222    1.419   .     A
C223   N250    1.367   .     A
C223   O287    1.384   .     S
C223   C862    1.428   1_545 S
C224   N249    1.383   .     A
C224   O295    1.381   .     S
C224   C543    1.430   .     S
C225   O303    1.384   .     S
C225   N250    1.368   .     A
C225   C860    1.430   1_545 S
C226   O311    1.381   .     S
C226   N249    1.385   .     A
C226   C541    1.428   .     S
C227   C232    1.451   .     S
C227   O255    1.306   .     A
C227   O258    1.296   .     A
C228   O256    1.298   .     A
C228   O257    1.304   .     A
C228   C231    1.451   .     S
C229   C239    1.406   .     A
C229   C259    1.454   .     S
C229   C231    1.406   .     A
C230   C240    1.407   .     A
C230   C232    1.405   .     A
C230   C261    1.450   .     S
C231   C233    1.406   .     A
C232   C234    1.404   .     A
C233   O263    1.392   .     S
C233   C235    1.409   .     A
C234   C236    1.402   .     A
C234   O271    1.385   .     S
C235   C241    1.403   .     A
C235   C237    1.415   .     A
C236   C238    1.413   .     A
C236   C242    1.401   .     A
C237   C239    1.417   .     A
C237   C1192   1.412   .     S
C238   C240    1.416   .     A
C238   C1191   1.412   1_554 S
C241   H245    1.080   .     S
C241   C1169   1.388   .     S
C242   H246    1.081   .     S
C242   C1170   1.387   1_554 S
Cu243  O255    1.959   .     S
Cu243  Cu244   2.717   .     S
Cu243  O253    1.983   .     S
Cu243  O251    1.989   .     S
Cu243  N249    2.042   .     S
Cu243  O257    1.961   .     S
Cu244  N250    2.042   .     S
Cu244  O252    1.989   .     S
Cu244  O256    1.959   .     S
Cu244  O258    1.961   .     S
Cu244  O254    1.983   .     S
C259   N260    1.157   .     T
C261   N262    1.156   .     T
O263   C264    1.421   .     S
C264   C267    1.519   .     S
C264   H266    1.108   .     S
C264   H265    1.114   .     S
C267   H268    1.111   .     S
C267   H269    1.107   .     S
C267   H270    1.110   .     S
O271   C272    1.413   .     S
C272   C275    1.519   .     S
C272   H274    1.117   .     S
C272   H273    1.108   .     S
C275   H277    1.110   .     S
C275   H278    1.109   .     S
C275   H276    1.109   .     S
C279   N280    1.158   .     T
C281   N282    1.156   .     T
C283   N284    1.155   .     T
C285   N286    1.155   .     T
O287   C288    1.414   .     S
C288   C291    1.521   .     S
C288   H289    1.107   .     S
C288   H290    1.110   .     S
C291   H293    1.111   .     S
C291   H294    1.111   .     S
C291   H928    1.109   1_545 S
H292   C609    1.109   .     S
O295   C296    1.421   .     S
C296   C299    1.524   .     S
C296   H297    1.106   .     S
C296   H298    1.114   .     S
C299   H300    1.109   .     S
C299   H302    1.107   .     S
C299   H301    1.110   .     S
O303   C304    1.417   .     S
C304   H305    1.106   .     S
C304   H306    1.116   .     S
C304   C307    1.521   .     S
C307   H310    1.111   .     S
C307   H309    1.111   .     S
C307   H944    1.108   1_545 S
H308   C625    1.108   .     S
O311   C312    1.422   .     S
C312   H313    1.106   .     S
C312   H314    1.114   .     S
C312   C315    1.522   .     S
C315   H317    1.111   .     S
C315   H318    1.106   .     S
C315   H316    1.109   .     S
C319   C328    1.474   .     S
C319   O357    1.307   .     A
C319   O360    1.307   .     A
C320   O359    1.302   .     A
C320   O358    1.312   .     A
C320   C327    1.475   .     S
C321   C346    1.405   .     A
C321   H353    1.083   .     S
C321   C1301   1.388   1_554 S
C322   H354    1.083   .     S
C322   C345    1.406   .     A
C322   C1302   1.387   .     S
C323   C385    1.452   .     S
C323   C328    1.415   .     A
C323   C537    1.389   1_455 S
C324   C387    1.452   .     S
C324   C327    1.417   .     A
C324   C432    1.397   .     S
C325   C389    1.446   .     S
C325   C327    1.406   .     A
C325   C429    1.389   .     S
C326   C391    1.450   .     S
C326   C328    1.419   .     A
C326   C536    1.397   1_455 S
C329   N356    1.367   .     A
C329   O393    1.384   .     S
C330   N355    1.383   .     A
C330   O401    1.381   .     S
C330   C649    1.430   .     S
C331   O409    1.384   .     S
C331   N356    1.368   .     A
C332   O417    1.381   .     S
C332   N355    1.385   .     A
C332   C647    1.428   .     S
C333   C338    1.451   .     S
C333   O361    1.306   .     A
C333   O364    1.296   .     A
C334   O362    1.298   .     A
C334   O363    1.304   .     A
C334   C337    1.451   .     S
C335   C345    1.406   .     A
C335   C365    1.454   .     S
C335   C337    1.406   .     A
C336   C346    1.407   .     A
C336   C338    1.405   .     A
C336   C367    1.450   .     S
C337   C339    1.406   .     A
C338   C340    1.404   .     A
C339   O369    1.392   .     S
C339   C341    1.409   .     A
C340   C342    1.402   .     A
C340   O377    1.385   .     S
C341   C347    1.403   .     A
C341   C343    1.415   .     A
C342   C344    1.413   .     A
C342   C348    1.401   .     A
C343   C345    1.417   .     A
C343   C1298   1.412   .     S
C344   C346    1.416   .     A
C344   C1297   1.412   1_554 S
C347   H351    1.080   .     S
C347   C1275   1.388   .     S
C348   H352    1.081   .     S
C348   C1276   1.387   1_554 S
Cu349  O361    1.959   .     S
Cu349  Cu350   2.717   .     S
Cu349  O359    1.983   .     S
Cu349  O357    1.989   .     S
Cu349  N355    2.042   .     S
Cu349  O363    1.961   .     S
Cu350  N356    2.042   .     S
Cu350  O358    1.989   .     S
Cu350  O362    1.959   .     S
Cu350  O364    1.961   .     S
Cu350  O360    1.983   .     S
C365   N366    1.157   .     T
C367   N368    1.156   .     T
O369   C370    1.421   .     S
C370   C373    1.519   .     S
C370   H372    1.108   .     S
C370   H371    1.114   .     S
C373   H374    1.111   .     S
C373   H375    1.107   .     S
C373   H376    1.110   .     S
O377   C378    1.413   .     S
C378   C381    1.519   .     S
C378   H380    1.117   .     S
C378   H379    1.108   .     S
C381   H383    1.110   .     S
C381   H384    1.109   .     S
C381   H382    1.109   .     S
C385   N386    1.158   .     T
C387   N388    1.156   .     T
C389   N390    1.155   .     T
C391   N392    1.155   .     T
O393   C394    1.414   .     S
C394   C397    1.521   .     S
C394   H395    1.107   .     S
C394   H396    1.110   .     S
C397   H399    1.111   .     S
C397   H400    1.111   .     S
H398   C715    1.109   .     S
O401   C402    1.421   .     S
C402   C405    1.524   .     S
C402   H403    1.106   .     S
C402   H404    1.114   .     S
C405   H406    1.109   .     S
C405   H408    1.107   .     S
C405   H407    1.110   .     S
O409   C410    1.417   .     S
C410   H411    1.106   .     S
C410   H412    1.116   .     S
C410   C413    1.521   .     S
C413   H416    1.111   .     S
C413   H415    1.111   .     S
H414   C731    1.108   .     S
O417   C418    1.422   .     S
C418   H419    1.106   .     S
C418   H420    1.114   .     S
C418   C421    1.522   .     S
C421   H423    1.111   .     S
C421   H424    1.106   .     S
C421   H422    1.109   .     S
C425   C434    1.474   .     S
C425   O463    1.307   .     A
C425   O466    1.307   .     A
C426   O465    1.302   .     A
C426   O464    1.312   .     A
C426   C433    1.475   .     S
C427   C452    1.405   .     A
C427   H459    1.083   .     S
C427   C1407   1.388   1_554 S
C428   H460    1.083   .     S
C428   C451    1.406   .     A
C428   C1408   1.387   .     S
C429   C491    1.452   .     S
C429   C434    1.415   .     A
C430   C493    1.452   .     S
C430   C433    1.417   .     A
C430   C538    1.397   .     S
C431   C495    1.446   .     S
C431   C433    1.406   .     A
C431   C535    1.389   .     S
C432   C497    1.450   .     S
C432   C434    1.419   .     A
C435   N462    1.367   .     A
C435   O499    1.384   .     S
C436   N461    1.383   .     A
C436   O507    1.381   .     S
C436   C755    1.430   .     S
C437   O515    1.384   .     S
C437   N462    1.368   .     A
C438   O523    1.381   .     S
C438   N461    1.385   .     A
C438   C753    1.428   .     S
C439   C444    1.451   .     S
C439   O467    1.306   .     A
C439   O470    1.296   .     A
C440   O468    1.298   .     A
C440   O469    1.304   .     A
C440   C443    1.451   .     S
C441   C451    1.406   .     A
C441   C471    1.454   .     S
C441   C443    1.406   .     A
C442   C452    1.407   .     A
C442   C444    1.405   .     A
C442   C473    1.450   .     S
C443   C445    1.406   .     A
C444   C446    1.404   .     A
C445   O475    1.392   .     S
C445   C447    1.409   .     A
C446   C448    1.402   .     A
C446   O483    1.385   .     S
C447   C453    1.403   .     A
C447   C449    1.415   .     A
C448   C450    1.413   .     A
C448   C454    1.401   .     A
C449   C451    1.417   .     A
C449   C1404   1.412   .     S
C450   C452    1.416   .     A
C450   C1403   1.412   1_554 S
C453   H457    1.080   .     S
C453   C1381   1.388   .     S
C454   H458    1.081   .     S
C454   C1382   1.387   1_554 S
Cu455  O467    1.959   .     S
Cu455  Cu456   2.717   .     S
Cu455  O465    1.983   .     S
Cu455  O463    1.989   .     S
Cu455  N461    2.042   .     S
Cu455  O469    1.961   .     S
Cu456  N462    2.042   .     S
Cu456  O464    1.989   .     S
Cu456  O468    1.959   .     S
Cu456  O470    1.961   .     S
Cu456  O466    1.983   .     S
C471   N472    1.157   .     T
C473   N474    1.156   .     T
O475   C476    1.421   .     S
C476   C479    1.519   .     S
C476   H478    1.108   .     S
C476   H477    1.114   .     S
C479   H480    1.111   .     S
C479   H481    1.107   .     S
C479   H482    1.110   .     S
O483   C484    1.413   .     S
C484   C487    1.519   .     S
C484   H486    1.117   .     S
C484   H485    1.108   .     S
C487   H489    1.110   .     S
C487   H490    1.109   .     S
C487   H488    1.109   .     S
C491   N492    1.158   .     T
C493   N494    1.156   .     T
C495   N496    1.155   .     T
C497   N498    1.155   .     T
O499   C500    1.414   .     S
C500   C503    1.521   .     S
C500   H501    1.107   .     S
C500   H502    1.110   .     S
C503   H505    1.111   .     S
C503   H506    1.111   .     S
H504   C821    1.109   .     S
O507   C508    1.421   .     S
C508   C511    1.524   .     S
C508   H509    1.106   .     S
C508   H510    1.114   .     S
C511   H512    1.109   .     S
C511   H514    1.107   .     S
C511   H513    1.110   .     S
O515   C516    1.417   .     S
C516   H517    1.106   .     S
C516   H518    1.116   .     S
C516   C519    1.521   .     S
C519   H522    1.111   .     S
C519   H521    1.111   .     S
H520   C837    1.108   .     S
O523   C524    1.422   .     S
C524   H525    1.106   .     S
C524   H526    1.114   .     S
C524   C527    1.522   .     S
C527   H529    1.111   .     S
C527   H530    1.106   .     S
C527   H528    1.109   .     S
C531   C540    1.474   .     S
C531   O569    1.307   .     A
C531   O572    1.307   .     A
C532   O571    1.302   .     A
C532   O570    1.312   .     A
C532   C539    1.475   .     S
C533   C558    1.405   .     A
C533   H565    1.083   .     S
C533   C1513   1.388   1_554 S
C534   H566    1.083   .     S
C534   C557    1.406   .     A
C534   C1514   1.387   .     S
C535   C597    1.452   .     S
C535   C540    1.415   .     A
C536   C599    1.452   .     S
C536   C539    1.417   .     A
C536   C326    1.397   1_655 S
C537   C601    1.446   .     S
C537   C539    1.406   .     A
C537   C323    1.389   1_655 S
C538   C603    1.450   .     S
C538   C540    1.419   .     A
C541   N568    1.367   .     A
C541   O605    1.384   .     S
C542   N567    1.383   .     A
C542   O613    1.381   .     S
C542   C861    1.430   .     S
C543   O621    1.384   .     S
C543   N568    1.368   .     A
C544   O629    1.381   .     S
C544   N567    1.385   .     A
C544   C859    1.428   .     S
C545   C550    1.451   .     S
C545   O573    1.306   .     A
C545   O576    1.296   .     A
C546   O574    1.298   .     A
C546   O575    1.304   .     A
C546   C549    1.451   .     S
C547   C557    1.406   .     A
C547   C577    1.454   .     S
C547   C549    1.406   .     A
C548   C558    1.407   .     A
C548   C550    1.405   .     A
C548   C579    1.450   .     S
C549   C551    1.406   .     A
C550   C552    1.404   .     A
C551   O581    1.392   .     S
C551   C553    1.409   .     A
C552   C554    1.402   .     A
C552   O589    1.385   .     S
C553   C559    1.403   .     A
C553   C555    1.415   .     A
C554   C556    1.413   .     A
C554   C560    1.401   .     A
C555   C557    1.417   .     A
C555   C1510   1.412   .     S
C556   C558    1.416   .     A
C556   C1509   1.412   1_554 S
C559   H563    1.080   .     S
C559   C1487   1.388   .     S
C560   H564    1.081   .     S
C560   C1488   1.387   1_554 S
Cu561  O573    1.959   .     S
Cu561  Cu562   2.717   .     S
Cu561  O571    1.983   .     S
Cu561  O569    1.989   .     S
Cu561  N567    2.042   .     S
Cu561  O575    1.961   .     S
Cu562  N568    2.042   .     S
Cu562  O570    1.989   .     S
Cu562  O574    1.959   .     S
Cu562  O576    1.961   .     S
Cu562  O572    1.983   .     S
C577   N578    1.157   .     T
C579   N580    1.156   .     T
O581   C582    1.421   .     S
C582   C585    1.519   .     S
C582   H584    1.108   .     S
C582   H583    1.114   .     S
C585   H586    1.111   .     S
C585   H587    1.107   .     S
C585   H588    1.110   .     S
O589   C590    1.413   .     S
C590   C593    1.519   .     S
C590   H592    1.117   .     S
C590   H591    1.108   .     S
C593   H595    1.110   .     S
C593   H596    1.109   .     S
C593   H594    1.109   .     S
C597   N598    1.158   .     T
C599   N600    1.156   .     T
C601   N602    1.155   .     T
C603   N604    1.155   .     T
O605   C606    1.414   .     S
C606   C609    1.521   .     S
C606   H607    1.107   .     S
C606   H608    1.110   .     S
C609   H611    1.111   .     S
C609   H612    1.111   .     S
H610   C927    1.109   .     S
O613   C614    1.421   .     S
C614   C617    1.524   .     S
C614   H615    1.106   .     S
C614   H616    1.114   .     S
C617   H618    1.109   .     S
C617   H620    1.107   .     S
C617   H619    1.110   .     S
O621   C622    1.417   .     S
C622   H623    1.106   .     S
C622   H624    1.116   .     S
C622   C625    1.521   .     S
C625   H628    1.111   .     S
C625   H627    1.111   .     S
H626   C943    1.108   .     S
O629   C630    1.422   .     S
C630   H631    1.106   .     S
C630   H632    1.114   .     S
C630   C633    1.522   .     S
C633   H635    1.111   .     S
C633   H636    1.106   .     S
C633   H634    1.109   .     S
C637   C646    1.474   .     S
C637   O675    1.307   .     A
C637   O678    1.307   .     A
C638   O677    1.302   .     A
C638   O676    1.312   .     A
C638   C645    1.475   .     S
C639   C664    1.405   .     A
C639   H671    1.083   .     S
C639   C1619   1.388   1_554 S
C640   H672    1.083   .     S
C640   C663    1.406   .     A
C640   C1620   1.387   .     S
C641   C703    1.452   .     S
C641   C646    1.415   .     A
C641   C855    1.389   1_455 S
C642   C705    1.452   .     S
C642   C645    1.417   .     A
C642   C750    1.397   .     S
C643   C707    1.446   .     S
C643   C645    1.406   .     A
C643   C747    1.389   .     S
C644   C709    1.450   .     S
C644   C646    1.419   .     A
C644   C854    1.397   1_455 S
C647   N674    1.367   .     A
C647   O711    1.384   .     S
C648   N673    1.383   .     A
C648   O719    1.381   .     S
C648   C13     1.430   1_565 S
C649   O727    1.384   .     S
C649   N674    1.368   .     A
C650   O735    1.381   .     S
C650   N673    1.385   .     A
C650   C11     1.428   1_565 S
C651   C656    1.451   .     S
C651   O679    1.306   .     A
C651   O682    1.296   .     A
C652   O680    1.298   .     A
C652   O681    1.304   .     A
C652   C655    1.451   .     S
C653   C663    1.406   .     A
C653   C683    1.454   .     S
C653   C655    1.406   .     A
C654   C664    1.407   .     A
C654   C656    1.405   .     A
C654   C685    1.450   .     S
C655   C657    1.406   .     A
C656   C658    1.404   .     A
C657   O687    1.392   .     S
C657   C659    1.409   .     A
C658   C660    1.402   .     A
C658   O695    1.385   .     S
C659   C665    1.403   .     A
C659   C661    1.415   .     A
C660   C662    1.413   .     A
C660   C666    1.401   .     A
C661   C663    1.417   .     A
C661   C1616   1.412   .     S
C662   C664    1.416   .     A
C662   C1615   1.412   1_554 S
C665   H669    1.080   .     S
C665   C1593   1.388   .     S
C666   H670    1.081   .     S
C666   C1594   1.387   1_554 S
Cu667  O679    1.959   .     S
Cu667  Cu668   2.717   .     S
Cu667  O677    1.983   .     S
Cu667  O675    1.989   .     S
Cu667  N673    2.042   .     S
Cu667  O681    1.961   .     S
Cu668  N674    2.042   .     S
Cu668  O676    1.989   .     S
Cu668  O680    1.959   .     S
Cu668  O682    1.961   .     S
Cu668  O678    1.983   .     S
C683   N684    1.157   .     T
C685   N686    1.156   .     T
O687   C688    1.421   .     S
C688   C691    1.519   .     S
C688   H690    1.108   .     S
C688   H689    1.114   .     S
C691   H692    1.111   .     S
C691   H693    1.107   .     S
C691   H694    1.110   .     S
O695   C696    1.413   .     S
C696   C699    1.519   .     S
C696   H698    1.117   .     S
C696   H697    1.108   .     S
C699   H701    1.110   .     S
C699   H702    1.109   .     S
C699   H700    1.109   .     S
C703   N704    1.158   .     T
C705   N706    1.156   .     T
C707   N708    1.155   .     T
C709   N710    1.155   .     T
O711   C712    1.414   .     S
C712   C715    1.521   .     S
C712   H713    1.107   .     S
C712   H714    1.110   .     S
C715   H717    1.111   .     S
C715   H718    1.111   .     S
H716   C79     1.109   1_565 S
O719   C720    1.421   .     S
C720   C723    1.524   .     S
C720   H721    1.106   .     S
C720   H722    1.114   .     S
C723   H724    1.109   .     S
C723   H726    1.107   .     S
C723   H725    1.110   .     S
O727   C728    1.417   .     S
C728   H729    1.106   .     S
C728   H730    1.116   .     S
C728   C731    1.521   .     S
C731   H734    1.111   .     S
C731   H733    1.111   .     S
H732   C95     1.108   1_565 S
O735   C736    1.422   .     S
C736   H737    1.106   .     S
C736   H738    1.114   .     S
C736   C739    1.522   .     S
C739   H741    1.111   .     S
C739   H742    1.106   .     S
C739   H740    1.109   .     S
C743   C752    1.474   .     S
C743   O781    1.307   .     A
C743   O784    1.307   .     A
C744   O783    1.302   .     A
C744   O782    1.312   .     A
C744   C751    1.475   .     S
C745   C770    1.405   .     A
C745   H777    1.083   .     S
C745   C1725   1.388   1_554 S
C746   H778    1.083   .     S
C746   C769    1.406   .     A
C746   C1726   1.387   .     S
C747   C809    1.452   .     S
C747   C752    1.415   .     A
C748   C811    1.452   .     S
C748   C751    1.417   .     A
C748   C856    1.397   .     S
C749   C813    1.446   .     S
C749   C751    1.406   .     A
C749   C853    1.389   .     S
C750   C815    1.450   .     S
C750   C752    1.419   .     A
C753   N780    1.367   .     A
C753   O817    1.384   .     S
C754   N779    1.383   .     A
C754   O825    1.381   .     S
C754   C119    1.430   1_565 S
C755   O833    1.384   .     S
C755   N780    1.368   .     A
C756   O841    1.381   .     S
C756   N779    1.385   .     A
C756   C117    1.428   1_565 S
C757   C762    1.451   .     S
C757   O785    1.306   .     A
C757   O788    1.296   .     A
C758   O786    1.298   .     A
C758   O787    1.304   .     A
C758   C761    1.451   .     S
C759   C769    1.406   .     A
C759   C789    1.454   .     S
C759   C761    1.406   .     A
C760   C770    1.407   .     A
C760   C762    1.405   .     A
C760   C791    1.450   .     S
C761   C763    1.406   .     A
C762   C764    1.404   .     A
C763   O793    1.392   .     S
C763   C765    1.409   .     A
C764   C766    1.402   .     A
C764   O801    1.385   .     S
C765   C771    1.403   .     A
C765   C767    1.415   .     A
C766   C768    1.413   .     A
C766   C772    1.401   .     A
C767   C769    1.417   .     A
C767   C1722   1.412   .     S
C768   C770    1.416   .     A
C768   C1721   1.412   1_554 S
C771   H775    1.080   .     S
C771   C1699   1.388   .     S
C772   H776    1.081   .     S
C772   C1700   1.387   1_554 S
Cu773  O785    1.959   .     S
Cu773  Cu774   2.717   .     S
Cu773  O783    1.983   .     S
Cu773  O781    1.989   .     S
Cu773  N779    2.042   .     S
Cu773  O787    1.961   .     S
Cu774  N780    2.042   .     S
Cu774  O782    1.989   .     S
Cu774  O786    1.959   .     S
Cu774  O788    1.961   .     S
Cu774  O784    1.983   .     S
C789   N790    1.157   .     T
C791   N792    1.156   .     T
O793   C794    1.421   .     S
C794   C797    1.519   .     S
C794   H796    1.108   .     S
C794   H795    1.114   .     S
C797   H798    1.111   .     S
C797   H799    1.107   .     S
C797   H800    1.110   .     S
O801   C802    1.413   .     S
C802   C805    1.519   .     S
C802   H804    1.117   .     S
C802   H803    1.108   .     S
C805   H807    1.110   .     S
C805   H808    1.109   .     S
C805   H806    1.109   .     S
C809   N810    1.158   .     T
C811   N812    1.156   .     T
C813   N814    1.155   .     T
C815   N816    1.155   .     T
O817   C818    1.414   .     S
C818   C821    1.521   .     S
C818   H819    1.107   .     S
C818   H820    1.110   .     S
C821   H823    1.111   .     S
C821   H824    1.111   .     S
H822   C185    1.109   1_565 S
O825   C826    1.421   .     S
C826   C829    1.524   .     S
C826   H827    1.106   .     S
C826   H828    1.114   .     S
C829   H830    1.109   .     S
C829   H832    1.107   .     S
C829   H831    1.110   .     S
O833   C834    1.417   .     S
C834   H835    1.106   .     S
C834   H836    1.116   .     S
C834   C837    1.521   .     S
C837   H840    1.111   .     S
C837   H839    1.111   .     S
H838   C201    1.108   1_565 S
O841   C842    1.422   .     S
C842   H843    1.106   .     S
C842   H844    1.114   .     S
C842   C845    1.522   .     S
C845   H847    1.111   .     S
C845   H848    1.106   .     S
C845   H846    1.109   .     S
C849   C858    1.474   .     S
C849   O887    1.307   .     A
C849   O890    1.307   .     A
C850   O889    1.302   .     A
C850   O888    1.312   .     A
C850   C857    1.475   .     S
C851   C876    1.405   .     A
C851   H883    1.083   .     S
C851   C1831   1.388   1_554 S
C852   H884    1.083   .     S
C852   C875    1.406   .     A
C852   C1832   1.387   .     S
C853   C915    1.452   .     S
C853   C858    1.415   .     A
C854   C917    1.452   .     S
C854   C857    1.417   .     A
C854   C644    1.397   1_655 S
C855   C919    1.446   .     S
C855   C857    1.406   .     A
C855   C641    1.389   1_655 S
C856   C921    1.450   .     S
C856   C858    1.419   .     A
C859   N886    1.367   .     A
C859   O923    1.384   .     S
C860   N885    1.383   .     A
C860   O931    1.381   .     S
C860   C225    1.430   1_565 S
C861   O939    1.384   .     S
C861   N886    1.368   .     A
C862   O947    1.381   .     S
C862   N885    1.385   .     A
C862   C223    1.428   1_565 S
C863   C868    1.451   .     S
C863   O891    1.306   .     A
C863   O894    1.296   .     A
C864   O892    1.298   .     A
C864   O893    1.304   .     A
C864   C867    1.451   .     S
C865   C875    1.406   .     A
C865   C895    1.454   .     S
C865   C867    1.406   .     A
C866   C876    1.407   .     A
C866   C868    1.405   .     A
C866   C897    1.450   .     S
C867   C869    1.406   .     A
C868   C870    1.404   .     A
C869   O899    1.392   .     S
C869   C871    1.409   .     A
C870   C872    1.402   .     A
C870   O907    1.385   .     S
C871   C877    1.403   .     A
C871   C873    1.415   .     A
C872   C874    1.413   .     A
C872   C878    1.401   .     A
C873   C875    1.417   .     A
C873   C1828   1.412   .     S
C874   C876    1.416   .     A
C874   C1827   1.412   1_554 S
C877   H881    1.080   .     S
C877   C1805   1.388   .     S
C878   H882    1.081   .     S
C878   C1806   1.387   1_554 S
Cu879  O891    1.959   .     S
Cu879  Cu880   2.717   .     S
Cu879  O889    1.983   .     S
Cu879  O887    1.989   .     S
Cu879  N885    2.042   .     S
Cu879  O893    1.961   .     S
Cu880  N886    2.042   .     S
Cu880  O888    1.989   .     S
Cu880  O892    1.959   .     S
Cu880  O894    1.961   .     S
Cu880  O890    1.983   .     S
C895   N896    1.157   .     T
C897   N898    1.156   .     T
O899   C900    1.421   .     S
C900   C903    1.519   .     S
C900   H902    1.108   .     S
C900   H901    1.114   .     S
C903   H904    1.111   .     S
C903   H905    1.107   .     S
C903   H906    1.110   .     S
O907   C908    1.413   .     S
C908   C911    1.519   .     S
C908   H910    1.117   .     S
C908   H909    1.108   .     S
C911   H913    1.110   .     S
C911   H914    1.109   .     S
C911   H912    1.109   .     S
C915   N916    1.158   .     T
C917   N918    1.156   .     T
C919   N920    1.155   .     T
C921   N922    1.155   .     T
O923   C924    1.414   .     S
C924   C927    1.521   .     S
C924   H925    1.107   .     S
C924   H926    1.110   .     S
C927   H929    1.111   .     S
C927   H930    1.111   .     S
H928   C291    1.109   1_565 S
O931   C932    1.421   .     S
C932   C935    1.524   .     S
C932   H933    1.106   .     S
C932   H934    1.114   .     S
C935   H936    1.109   .     S
C935   H938    1.107   .     S
C935   H937    1.110   .     S
O939   C940    1.417   .     S
C940   H941    1.106   .     S
C940   H942    1.116   .     S
C940   C943    1.521   .     S
C943   H946    1.111   .     S
C943   H945    1.111   .     S
H944   C307    1.108   1_565 S
O947   C948    1.422   .     S
C948   H949    1.106   .     S
C948   H950    1.114   .     S
C948   C951    1.522   .     S
C951   H953    1.111   .     S
C951   H954    1.106   .     S
C951   H952    1.109   .     S
C955   C964    1.474   .     S
C955   O993    1.307   .     A
C955   O996    1.307   .     A
C956   O995    1.302   .     A
C956   O994    1.312   .     A
C956   C963    1.475   .     S
C957   C982    1.405   .     A
C957   H989    1.083   .     S
C958   H990    1.083   .     S
C958   C981    1.406   .     A
C958   C30     1.387   1_556 S
C959   C1021   1.452   .     S
C959   C964    1.415   .     A
C959   C1173   1.389   1_455 S
C960   C1023   1.452   .     S
C960   C963    1.417   .     A
C960   C1068   1.397   .     S
C961   C1025   1.446   .     S
C961   C963    1.406   .     A
C961   C1065   1.389   .     S
C962   C1027   1.450   .     S
C962   C964    1.419   .     A
C962   C1172   1.397   1_455 S
C965   N992    1.367   .     A
C965   O1029   1.384   .     S
C965   C1604   1.428   1_545 S
C966   N991    1.383   .     A
C966   O1037   1.381   .     S
C966   C1285   1.430   .     S
C967   O1045   1.384   .     S
C967   N992    1.368   .     A
C967   C1602   1.430   1_545 S
C968   O1053   1.381   .     S
C968   N991    1.385   .     A
C968   C1283   1.428   .     S
C969   C974    1.451   .     S
C969   O997    1.306   .     A
C969   O1000   1.296   .     A
C970   O998    1.298   .     A
C970   O999    1.304   .     A
C970   C973    1.451   .     S
C971   C981    1.406   .     A
C971   C1001   1.454   .     S
C971   C973    1.406   .     A
C972   C982    1.407   .     A
C972   C974    1.405   .     A
C972   C1003   1.450   .     S
C973   C975    1.406   .     A
C974   C976    1.404   .     A
C975   O1005   1.392   .     S
C975   C977    1.409   .     A
C976   C978    1.402   .     A
C976   O1013   1.385   .     S
C977   C983    1.403   .     A
C977   C979    1.415   .     A
C978   C980    1.413   .     A
C978   C984    1.401   .     A
C979   C981    1.417   .     A
C979   C26     1.412   1_556 S
C980   C982    1.416   .     A
C983   H987    1.080   .     S
C983   C3      1.388   1_556 S
C984   H988    1.081   .     S
Cu985  O997    1.959   .     S
Cu985  Cu986   2.717   .     S
Cu985  O995    1.983   .     S
Cu985  O993    1.989   .     S
Cu985  N991    2.042   .     S
Cu985  O999    1.961   .     S
Cu986  N992    2.042   .     S
Cu986  O994    1.989   .     S
Cu986  O998    1.959   .     S
Cu986  O1000   1.961   .     S
Cu986  O996    1.983   .     S
C1001  N1002   1.157   .     T
C1003  N1004   1.156   .     T
O1005  C1006   1.421   .     S
C1006  C1009   1.519   .     S
C1006  H1008   1.108   .     S
C1006  H1007   1.114   .     S
C1009  H1010   1.111   .     S
C1009  H1011   1.107   .     S
C1009  H1012   1.110   .     S
O1013  C1014   1.413   .     S
C1014  C1017   1.519   .     S
C1014  H1016   1.117   .     S
C1014  H1015   1.108   .     S
C1017  H1019   1.110   .     S
C1017  H1020   1.109   .     S
C1017  H1018   1.109   .     S
C1021  N1022   1.158   .     T
C1023  N1024   1.156   .     T
C1025  N1026   1.155   .     T
C1027  N1028   1.155   .     T
O1029  C1030   1.414   .     S
C1030  C1033   1.521   .     S
C1030  H1031   1.107   .     S
C1030  H1032   1.110   .     S
C1033  H1035   1.111   .     S
C1033  H1036   1.111   .     S
C1033  H1670   1.109   1_545 S
H1034  C1351   1.109   .     S
O1037  C1038   1.421   .     S
C1038  C1041   1.524   .     S
C1038  H1039   1.106   .     S
C1038  H1040   1.114   .     S
C1041  H1042   1.109   .     S
C1041  H1044   1.107   .     S
C1041  H1043   1.110   .     S
O1045  C1046   1.417   .     S
C1046  H1047   1.106   .     S
C1046  H1048   1.116   .     S
C1046  C1049   1.521   .     S
C1049  H1052   1.111   .     S
C1049  H1051   1.111   .     S
C1049  H1686   1.108   1_545 S
H1050  C1367   1.108   .     S
O1053  C1054   1.422   .     S
C1054  H1055   1.106   .     S
C1054  H1056   1.114   .     S
C1054  C1057   1.522   .     S
C1057  H1059   1.111   .     S
C1057  H1060   1.106   .     S
C1057  H1058   1.109   .     S
C1061  C1070   1.474   .     S
C1061  O1099   1.307   .     A
C1061  O1102   1.307   .     A
C1062  O1101   1.302   .     A
C1062  O1100   1.312   .     A
C1062  C1069   1.475   .     S
C1063  C1088   1.405   .     A
C1063  H1095   1.083   .     S
C1064  H1096   1.083   .     S
C1064  C1087   1.406   .     A
C1064  C136    1.387   1_556 S
C1065  C1127   1.452   .     S
C1065  C1070   1.415   .     A
C1066  C1129   1.452   .     S
C1066  C1069   1.417   .     A
C1066  C1174   1.397   .     S
C1067  C1131   1.446   .     S
C1067  C1069   1.406   .     A
C1067  C1171   1.389   .     S
C1068  C1133   1.450   .     S
C1068  C1070   1.419   .     A
C1071  N1098   1.367   .     A
C1071  O1135   1.384   .     S
C1071  C1710   1.428   1_545 S
C1072  N1097   1.383   .     A
C1072  O1143   1.381   .     S
C1072  C1391   1.430   .     S
C1073  O1151   1.384   .     S
C1073  N1098   1.368   .     A
C1073  C1708   1.430   1_545 S
C1074  O1159   1.381   .     S
C1074  N1097   1.385   .     A
C1074  C1389   1.428   .     S
C1075  C1080   1.451   .     S
C1075  O1103   1.306   .     A
C1075  O1106   1.296   .     A
C1076  O1104   1.298   .     A
C1076  O1105   1.304   .     A
C1076  C1079   1.451   .     S
C1077  C1087   1.406   .     A
C1077  C1107   1.454   .     S
C1077  C1079   1.406   .     A
C1078  C1088   1.407   .     A
C1078  C1080   1.405   .     A
C1078  C1109   1.450   .     S
C1079  C1081   1.406   .     A
C1080  C1082   1.404   .     A
C1081  O1111   1.392   .     S
C1081  C1083   1.409   .     A
C1082  C1084   1.402   .     A
C1082  O1119   1.385   .     S
C1083  C1089   1.403   .     A
C1083  C1085   1.415   .     A
C1084  C1086   1.413   .     A
C1084  C1090   1.401   .     A
C1085  C1087   1.417   .     A
C1085  C132    1.412   1_556 S
C1086  C1088   1.416   .     A
C1089  H1093   1.080   .     S
C1089  C109    1.388   1_556 S
C1090  H1094   1.081   .     S
Cu1091 O1103   1.959   .     S
Cu1091 Cu1092  2.717   .     S
Cu1091 O1101   1.983   .     S
Cu1091 O1099   1.989   .     S
Cu1091 N1097   2.042   .     S
Cu1091 O1105   1.961   .     S
Cu1092 N1098   2.042   .     S
Cu1092 O1100   1.989   .     S
Cu1092 O1104   1.959   .     S
Cu1092 O1106   1.961   .     S
Cu1092 O1102   1.983   .     S
C1107  N1108   1.157   .     T
C1109  N1110   1.156   .     T
O1111  C1112   1.421   .     S
C1112  C1115   1.519   .     S
C1112  H1114   1.108   .     S
C1112  H1113   1.114   .     S
C1115  H1116   1.111   .     S
C1115  H1117   1.107   .     S
C1115  H1118   1.110   .     S
O1119  C1120   1.413   .     S
C1120  C1123   1.519   .     S
C1120  H1122   1.117   .     S
C1120  H1121   1.108   .     S
C1123  H1125   1.110   .     S
C1123  H1126   1.109   .     S
C1123  H1124   1.109   .     S
C1127  N1128   1.158   .     T
C1129  N1130   1.156   .     T
C1131  N1132   1.155   .     T
C1133  N1134   1.155   .     T
O1135  C1136   1.414   .     S
C1136  C1139   1.521   .     S
C1136  H1137   1.107   .     S
C1136  H1138   1.110   .     S
C1139  H1141   1.111   .     S
C1139  H1142   1.111   .     S
C1139  H1776   1.109   1_545 S
H1140  C1457   1.109   .     S
O1143  C1144   1.421   .     S
C1144  C1147   1.524   .     S
C1144  H1145   1.106   .     S
C1144  H1146   1.114   .     S
C1147  H1148   1.109   .     S
C1147  H1150   1.107   .     S
C1147  H1149   1.110   .     S
O1151  C1152   1.417   .     S
C1152  H1153   1.106   .     S
C1152  H1154   1.116   .     S
C1152  C1155   1.521   .     S
C1155  H1158   1.111   .     S
C1155  H1157   1.111   .     S
C1155  H1792   1.108   1_545 S
H1156  C1473   1.108   .     S
O1159  C1160   1.422   .     S
C1160  H1161   1.106   .     S
C1160  H1162   1.114   .     S
C1160  C1163   1.522   .     S
C1163  H1165   1.111   .     S
C1163  H1166   1.106   .     S
C1163  H1164   1.109   .     S
C1167  C1176   1.474   .     S
C1167  O1205   1.307   .     A
C1167  O1208   1.307   .     A
C1168  O1207   1.302   .     A
C1168  O1206   1.312   .     A
C1168  C1175   1.475   .     S
C1169  C1194   1.405   .     A
C1169  H1201   1.083   .     S
C1170  H1202   1.083   .     S
C1170  C1193   1.406   .     A
C1170  C242    1.387   1_556 S
C1171  C1233   1.452   .     S
C1171  C1176   1.415   .     A
C1172  C1235   1.452   .     S
C1172  C1175   1.417   .     A
C1172  C962    1.397   1_655 S
C1173  C1237   1.446   .     S
C1173  C1175   1.406   .     A
C1173  C959    1.389   1_655 S
C1174  C1239   1.450   .     S
C1174  C1176   1.419   .     A
C1177  N1204   1.367   .     A
C1177  O1241   1.384   .     S
C1177  C1816   1.428   1_545 S
C1178  N1203   1.383   .     A
C1178  O1249   1.381   .     S
C1178  C1497   1.430   .     S
C1179  O1257   1.384   .     S
C1179  N1204   1.368   .     A
C1179  C1814   1.430   1_545 S
C1180  O1265   1.381   .     S
C1180  N1203   1.385   .     A
C1180  C1495   1.428   .     S
C1181  C1186   1.451   .     S
C1181  O1209   1.306   .     A
C1181  O1212   1.296   .     A
C1182  O1210   1.298   .     A
C1182  O1211   1.304   .     A
C1182  C1185   1.451   .     S
C1183  C1193   1.406   .     A
C1183  C1213   1.454   .     S
C1183  C1185   1.406   .     A
C1184  C1194   1.407   .     A
C1184  C1186   1.405   .     A
C1184  C1215   1.450   .     S
C1185  C1187   1.406   .     A
C1186  C1188   1.404   .     A
C1187  O1217   1.392   .     S
C1187  C1189   1.409   .     A
C1188  C1190   1.402   .     A
C1188  O1225   1.385   .     S
C1189  C1195   1.403   .     A
C1189  C1191   1.415   .     A
C1190  C1192   1.413   .     A
C1190  C1196   1.401   .     A
C1191  C1193   1.417   .     A
C1191  C238    1.412   1_556 S
C1192  C1194   1.416   .     A
C1195  H1199   1.080   .     S
C1195  C215    1.388   1_556 S
C1196  H1200   1.081   .     S
Cu1197 O1209   1.959   .     S
Cu1197 Cu1198  2.717   .     S
Cu1197 O1207   1.983   .     S
Cu1197 O1205   1.989   .     S
Cu1197 N1203   2.042   .     S
Cu1197 O1211   1.961   .     S
Cu1198 N1204   2.042   .     S
Cu1198 O1206   1.989   .     S
Cu1198 O1210   1.959   .     S
Cu1198 O1212   1.961   .     S
Cu1198 O1208   1.983   .     S
C1213  N1214   1.157   .     T
C1215  N1216   1.156   .     T
O1217  C1218   1.421   .     S
C1218  C1221   1.519   .     S
C1218  H1220   1.108   .     S
C1218  H1219   1.114   .     S
C1221  H1222   1.111   .     S
C1221  H1223   1.107   .     S
C1221  H1224   1.110   .     S
O1225  C1226   1.413   .     S
C1226  C1229   1.519   .     S
C1226  H1228   1.117   .     S
C1226  H1227   1.108   .     S
C1229  H1231   1.110   .     S
C1229  H1232   1.109   .     S
C1229  H1230   1.109   .     S
C1233  N1234   1.158   .     T
C1235  N1236   1.156   .     T
C1237  N1238   1.155   .     T
C1239  N1240   1.155   .     T
O1241  C1242   1.414   .     S
C1242  C1245   1.521   .     S
C1242  H1243   1.107   .     S
C1242  H1244   1.110   .     S
C1245  H1247   1.111   .     S
C1245  H1248   1.111   .     S
C1245  H1882   1.109   1_545 S
H1246  C1563   1.109   .     S
O1249  C1250   1.421   .     S
C1250  C1253   1.524   .     S
C1250  H1251   1.106   .     S
C1250  H1252   1.114   .     S
C1253  H1254   1.109   .     S
C1253  H1256   1.107   .     S
C1253  H1255   1.110   .     S
O1257  C1258   1.417   .     S
C1258  H1259   1.106   .     S
C1258  H1260   1.116   .     S
C1258  C1261   1.521   .     S
C1261  H1264   1.111   .     S
C1261  H1263   1.111   .     S
C1261  H1898   1.108   1_545 S
H1262  C1579   1.108   .     S
O1265  C1266   1.422   .     S
C1266  H1267   1.106   .     S
C1266  H1268   1.114   .     S
C1266  C1269   1.522   .     S
C1269  H1271   1.111   .     S
C1269  H1272   1.106   .     S
C1269  H1270   1.109   .     S
C1273  C1282   1.474   .     S
C1273  O1311   1.307   .     A
C1273  O1314   1.307   .     A
C1274  O1313   1.302   .     A
C1274  O1312   1.312   .     A
C1274  C1281   1.475   .     S
C1275  C1300   1.405   .     A
C1275  H1307   1.083   .     S
C1276  H1308   1.083   .     S
C1276  C1299   1.406   .     A
C1276  C348    1.387   1_556 S
C1277  C1339   1.452   .     S
C1277  C1282   1.415   .     A
C1277  C1491   1.389   1_455 S
C1278  C1341   1.452   .     S
C1278  C1281   1.417   .     A
C1278  C1386   1.397   .     S
C1279  C1343   1.446   .     S
C1279  C1281   1.406   .     A
C1279  C1383   1.389   .     S
C1280  C1345   1.450   .     S
C1280  C1282   1.419   .     A
C1280  C1490   1.397   1_455 S
C1283  N1310   1.367   .     A
C1283  O1347   1.384   .     S
C1284  N1309   1.383   .     A
C1284  O1355   1.381   .     S
C1284  C1603   1.430   .     S
C1285  O1363   1.384   .     S
C1285  N1310   1.368   .     A
C1286  O1371   1.381   .     S
C1286  N1309   1.385   .     A
C1286  C1601   1.428   .     S
C1287  C1292   1.451   .     S
C1287  O1315   1.306   .     A
C1287  O1318   1.296   .     A
C1288  O1316   1.298   .     A
C1288  O1317   1.304   .     A
C1288  C1291   1.451   .     S
C1289  C1299   1.406   .     A
C1289  C1319   1.454   .     S
C1289  C1291   1.406   .     A
C1290  C1300   1.407   .     A
C1290  C1292   1.405   .     A
C1290  C1321   1.450   .     S
C1291  C1293   1.406   .     A
C1292  C1294   1.404   .     A
C1293  O1323   1.392   .     S
C1293  C1295   1.409   .     A
C1294  C1296   1.402   .     A
C1294  O1331   1.385   .     S
C1295  C1301   1.403   .     A
C1295  C1297   1.415   .     A
C1296  C1298   1.413   .     A
C1296  C1302   1.401   .     A
C1297  C1299   1.417   .     A
C1297  C344    1.412   1_556 S
C1298  C1300   1.416   .     A
C1301  H1305   1.080   .     S
C1301  C321    1.388   1_556 S
C1302  H1306   1.081   .     S
Cu1303 O1315   1.959   .     S
Cu1303 Cu1304  2.717   .     S
Cu1303 O1313   1.983   .     S
Cu1303 O1311   1.989   .     S
Cu1303 N1309   2.042   .     S
Cu1303 O1317   1.961   .     S
Cu1304 N1310   2.042   .     S
Cu1304 O1312   1.989   .     S
Cu1304 O1316   1.959   .     S
Cu1304 O1318   1.961   .     S
Cu1304 O1314   1.983   .     S
C1319  N1320   1.157   .     T
C1321  N1322   1.156   .     T
O1323  C1324   1.421   .     S
C1324  C1327   1.519   .     S
C1324  H1326   1.108   .     S
C1324  H1325   1.114   .     S
C1327  H1328   1.111   .     S
C1327  H1329   1.107   .     S
C1327  H1330   1.110   .     S
O1331  C1332   1.413   .     S
C1332  C1335   1.519   .     S
C1332  H1334   1.117   .     S
C1332  H1333   1.108   .     S
C1335  H1337   1.110   .     S
C1335  H1338   1.109   .     S
C1335  H1336   1.109   .     S
C1339  N1340   1.158   .     T
C1341  N1342   1.156   .     T
C1343  N1344   1.155   .     T
C1345  N1346   1.155   .     T
O1347  C1348   1.414   .     S
C1348  C1351   1.521   .     S
C1348  H1349   1.107   .     S
C1348  H1350   1.110   .     S
C1351  H1353   1.111   .     S
C1351  H1354   1.111   .     S
H1352  C1669   1.109   .     S
O1355  C1356   1.421   .     S
C1356  C1359   1.524   .     S
C1356  H1357   1.106   .     S
C1356  H1358   1.114   .     S
C1359  H1360   1.109   .     S
C1359  H1362   1.107   .     S
C1359  H1361   1.110   .     S
O1363  C1364   1.417   .     S
C1364  H1365   1.106   .     S
C1364  H1366   1.116   .     S
C1364  C1367   1.521   .     S
C1367  H1370   1.111   .     S
C1367  H1369   1.111   .     S
H1368  C1685   1.108   .     S
O1371  C1372   1.422   .     S
C1372  H1373   1.106   .     S
C1372  H1374   1.114   .     S
C1372  C1375   1.522   .     S
C1375  H1377   1.111   .     S
C1375  H1378   1.106   .     S
C1375  H1376   1.109   .     S
C1379  C1388   1.474   .     S
C1379  O1417   1.307   .     A
C1379  O1420   1.307   .     A
C1380  O1419   1.302   .     A
C1380  O1418   1.312   .     A
C1380  C1387   1.475   .     S
C1381  C1406   1.405   .     A
C1381  H1413   1.083   .     S
C1382  H1414   1.083   .     S
C1382  C1405   1.406   .     A
C1382  C454    1.387   1_556 S
C1383  C1445   1.452   .     S
C1383  C1388   1.415   .     A
C1384  C1447   1.452   .     S
C1384  C1387   1.417   .     A
C1384  C1492   1.397   .     S
C1385  C1449   1.446   .     S
C1385  C1387   1.406   .     A
C1385  C1489   1.389   .     S
C1386  C1451   1.450   .     S
C1386  C1388   1.419   .     A
C1389  N1416   1.367   .     A
C1389  O1453   1.384   .     S
C1390  N1415   1.383   .     A
C1390  O1461   1.381   .     S
C1390  C1709   1.430   .     S
C1391  O1469   1.384   .     S
C1391  N1416   1.368   .     A
C1392  O1477   1.381   .     S
C1392  N1415   1.385   .     A
C1392  C1707   1.428   .     S
C1393  C1398   1.451   .     S
C1393  O1421   1.306   .     A
C1393  O1424   1.296   .     A
C1394  O1422   1.298   .     A
C1394  O1423   1.304   .     A
C1394  C1397   1.451   .     S
C1395  C1405   1.406   .     A
C1395  C1425   1.454   .     S
C1395  C1397   1.406   .     A
C1396  C1406   1.407   .     A
C1396  C1398   1.405   .     A
C1396  C1427   1.450   .     S
C1397  C1399   1.406   .     A
C1398  C1400   1.404   .     A
C1399  O1429   1.392   .     S
C1399  C1401   1.409   .     A
C1400  C1402   1.402   .     A
C1400  O1437   1.385   .     S
C1401  C1407   1.403   .     A
C1401  C1403   1.415   .     A
C1402  C1404   1.413   .     A
C1402  C1408   1.401   .     A
C1403  C1405   1.417   .     A
C1403  C450    1.412   1_556 S
C1404  C1406   1.416   .     A
C1407  H1411   1.080   .     S
C1407  C427    1.388   1_556 S
C1408  H1412   1.081   .     S
Cu1409 O1421   1.959   .     S
Cu1409 Cu1410  2.717   .     S
Cu1409 O1419   1.983   .     S
Cu1409 O1417   1.989   .     S
Cu1409 N1415   2.042   .     S
Cu1409 O1423   1.961   .     S
Cu1410 N1416   2.042   .     S
Cu1410 O1418   1.989   .     S
Cu1410 O1422   1.959   .     S
Cu1410 O1424   1.961   .     S
Cu1410 O1420   1.983   .     S
C1425  N1426   1.157   .     T
C1427  N1428   1.156   .     T
O1429  C1430   1.421   .     S
C1430  C1433   1.519   .     S
C1430  H1432   1.108   .     S
C1430  H1431   1.114   .     S
C1433  H1434   1.111   .     S
C1433  H1435   1.107   .     S
C1433  H1436   1.110   .     S
O1437  C1438   1.413   .     S
C1438  C1441   1.519   .     S
C1438  H1440   1.117   .     S
C1438  H1439   1.108   .     S
C1441  H1443   1.110   .     S
C1441  H1444   1.109   .     S
C1441  H1442   1.109   .     S
C1445  N1446   1.158   .     T
C1447  N1448   1.156   .     T
C1449  N1450   1.155   .     T
C1451  N1452   1.155   .     T
O1453  C1454   1.414   .     S
C1454  C1457   1.521   .     S
C1454  H1455   1.107   .     S
C1454  H1456   1.110   .     S
C1457  H1459   1.111   .     S
C1457  H1460   1.111   .     S
H1458  C1775   1.109   .     S
O1461  C1462   1.421   .     S
C1462  C1465   1.524   .     S
C1462  H1463   1.106   .     S
C1462  H1464   1.114   .     S
C1465  H1466   1.109   .     S
C1465  H1468   1.107   .     S
C1465  H1467   1.110   .     S
O1469  C1470   1.417   .     S
C1470  H1471   1.106   .     S
C1470  H1472   1.116   .     S
C1470  C1473   1.521   .     S
C1473  H1476   1.111   .     S
C1473  H1475   1.111   .     S
H1474  C1791   1.108   .     S
O1477  C1478   1.422   .     S
C1478  H1479   1.106   .     S
C1478  H1480   1.114   .     S
C1478  C1481   1.522   .     S
C1481  H1483   1.111   .     S
C1481  H1484   1.106   .     S
C1481  H1482   1.109   .     S
C1485  C1494   1.474   .     S
C1485  O1523   1.307   .     A
C1485  O1526   1.307   .     A
C1486  O1525   1.302   .     A
C1486  O1524   1.312   .     A
C1486  C1493   1.475   .     S
C1487  C1512   1.405   .     A
C1487  H1519   1.083   .     S
C1488  H1520   1.083   .     S
C1488  C1511   1.406   .     A
C1488  C560    1.387   1_556 S
C1489  C1551   1.452   .     S
C1489  C1494   1.415   .     A
C1490  C1553   1.452   .     S
C1490  C1493   1.417   .     A
C1490  C1280   1.397   1_655 S
C1491  C1555   1.446   .     S
C1491  C1493   1.406   .     A
C1491  C1277   1.389   1_655 S
C1492  C1557   1.450   .     S
C1492  C1494   1.419   .     A
C1495  N1522   1.367   .     A
C1495  O1559   1.384   .     S
C1496  N1521   1.383   .     A
C1496  O1567   1.381   .     S
C1496  C1815   1.430   .     S
C1497  O1575   1.384   .     S
C1497  N1522   1.368   .     A
C1498  O1583   1.381   .     S
C1498  N1521   1.385   .     A
C1498  C1813   1.428   .     S
C1499  C1504   1.451   .     S
C1499  O1527   1.306   .     A
C1499  O1530   1.296   .     A
C1500  O1528   1.298   .     A
C1500  O1529   1.304   .     A
C1500  C1503   1.451   .     S
C1501  C1511   1.406   .     A
C1501  C1531   1.454   .     S
C1501  C1503   1.406   .     A
C1502  C1512   1.407   .     A
C1502  C1504   1.405   .     A
C1502  C1533   1.450   .     S
C1503  C1505   1.406   .     A
C1504  C1506   1.404   .     A
C1505  O1535   1.392   .     S
C1505  C1507   1.409   .     A
C1506  C1508   1.402   .     A
C1506  O1543   1.385   .     S
C1507  C1513   1.403   .     A
C1507  C1509   1.415   .     A
C1508  C1510   1.413   .     A
C1508  C1514   1.401   .     A
C1509  C1511   1.417   .     A
C1509  C556    1.412   1_556 S
C1510  C1512   1.416   .     A
C1513  H1517   1.080   .     S
C1513  C533    1.388   1_556 S
C1514  H1518   1.081   .     S
Cu1515 O1527   1.959   .     S
Cu1515 Cu1516  2.717   .     S
Cu1515 O1525   1.983   .     S
Cu1515 O1523   1.989   .     S
Cu1515 N1521   2.042   .     S
Cu1515 O1529   1.961   .     S
Cu1516 N1522   2.042   .     S
Cu1516 O1524   1.989   .     S
Cu1516 O1528   1.959   .     S
Cu1516 O1530   1.961   .     S
Cu1516 O1526   1.983   .     S
C1531  N1532   1.157   .     T
C1533  N1534   1.156   .     T
O1535  C1536   1.421   .     S
C1536  C1539   1.519   .     S
C1536  H1538   1.108   .     S
C1536  H1537   1.114   .     S
C1539  H1540   1.111   .     S
C1539  H1541   1.107   .     S
C1539  H1542   1.110   .     S
O1543  C1544   1.413   .     S
C1544  C1547   1.519   .     S
C1544  H1546   1.117   .     S
C1544  H1545   1.108   .     S
C1547  H1549   1.110   .     S
C1547  H1550   1.109   .     S
C1547  H1548   1.109   .     S
C1551  N1552   1.158   .     T
C1553  N1554   1.156   .     T
C1555  N1556   1.155   .     T
C1557  N1558   1.155   .     T
O1559  C1560   1.414   .     S
C1560  C1563   1.521   .     S
C1560  H1561   1.107   .     S
C1560  H1562   1.110   .     S
C1563  H1565   1.111   .     S
C1563  H1566   1.111   .     S
H1564  C1881   1.109   .     S
O1567  C1568   1.421   .     S
C1568  C1571   1.524   .     S
C1568  H1569   1.106   .     S
C1568  H1570   1.114   .     S
C1571  H1572   1.109   .     S
C1571  H1574   1.107   .     S
C1571  H1573   1.110   .     S
O1575  C1576   1.417   .     S
C1576  H1577   1.106   .     S
C1576  H1578   1.116   .     S
C1576  C1579   1.521   .     S
C1579  H1582   1.111   .     S
C1579  H1581   1.111   .     S
H1580  C1897   1.108   .     S
O1583  C1584   1.422   .     S
C1584  H1585   1.106   .     S
C1584  H1586   1.114   .     S
C1584  C1587   1.522   .     S
C1587  H1589   1.111   .     S
C1587  H1590   1.106   .     S
C1587  H1588   1.109   .     S
C1591  C1600   1.474   .     S
C1591  O1629   1.307   .     A
C1591  O1632   1.307   .     A
C1592  O1631   1.302   .     A
C1592  O1630   1.312   .     A
C1592  C1599   1.475   .     S
C1593  C1618   1.405   .     A
C1593  H1625   1.083   .     S
C1594  H1626   1.083   .     S
C1594  C1617   1.406   .     A
C1594  C666    1.387   1_556 S
C1595  C1657   1.452   .     S
C1595  C1600   1.415   .     A
C1595  C1809   1.389   1_455 S
C1596  C1659   1.452   .     S
C1596  C1599   1.417   .     A
C1596  C1704   1.397   .     S
C1597  C1661   1.446   .     S
C1597  C1599   1.406   .     A
C1597  C1701   1.389   .     S
C1598  C1663   1.450   .     S
C1598  C1600   1.419   .     A
C1598  C1808   1.397   1_455 S
C1601  N1628   1.367   .     A
C1601  O1665   1.384   .     S
C1602  N1627   1.383   .     A
C1602  O1673   1.381   .     S
C1602  C967    1.430   1_565 S
C1603  O1681   1.384   .     S
C1603  N1628   1.368   .     A
C1604  O1689   1.381   .     S
C1604  N1627   1.385   .     A
C1604  C965    1.428   1_565 S
C1605  C1610   1.451   .     S
C1605  O1633   1.306   .     A
C1605  O1636   1.296   .     A
C1606  O1634   1.298   .     A
C1606  O1635   1.304   .     A
C1606  C1609   1.451   .     S
C1607  C1617   1.406   .     A
C1607  C1637   1.454   .     S
C1607  C1609   1.406   .     A
C1608  C1618   1.407   .     A
C1608  C1610   1.405   .     A
C1608  C1639   1.450   .     S
C1609  C1611   1.406   .     A
C1610  C1612   1.404   .     A
C1611  O1641   1.392   .     S
C1611  C1613   1.409   .     A
C1612  C1614   1.402   .     A
C1612  O1649   1.385   .     S
C1613  C1619   1.403   .     A
C1613  C1615   1.415   .     A
C1614  C1616   1.413   .     A
C1614  C1620   1.401   .     A
C1615  C1617   1.417   .     A
C1615  C662    1.412   1_556 S
C1616  C1618   1.416   .     A
C1619  H1623   1.080   .     S
C1619  C639    1.388   1_556 S
C1620  H1624   1.081   .     S
Cu1621 O1633   1.959   .     S
Cu1621 Cu1622  2.717   .     S
Cu1621 O1631   1.983   .     S
Cu1621 O1629   1.989   .     S
Cu1621 N1627   2.042   .     S
Cu1621 O1635   1.961   .     S
Cu1622 N1628   2.042   .     S
Cu1622 O1630   1.989   .     S
Cu1622 O1634   1.959   .     S
Cu1622 O1636   1.961   .     S
Cu1622 O1632   1.983   .     S
C1637  N1638   1.157   .     T
C1639  N1640   1.156   .     T
O1641  C1642   1.421   .     S
C1642  C1645   1.519   .     S
C1642  H1644   1.108   .     S
C1642  H1643   1.114   .     S
C1645  H1646   1.111   .     S
C1645  H1647   1.107   .     S
C1645  H1648   1.110   .     S
O1649  C1650   1.413   .     S
C1650  C1653   1.519   .     S
C1650  H1652   1.117   .     S
C1650  H1651   1.108   .     S
C1653  H1655   1.110   .     S
C1653  H1656   1.109   .     S
C1653  H1654   1.109   .     S
C1657  N1658   1.158   .     T
C1659  N1660   1.156   .     T
C1661  N1662   1.155   .     T
C1663  N1664   1.155   .     T
O1665  C1666   1.414   .     S
C1666  C1669   1.521   .     S
C1666  H1667   1.107   .     S
C1666  H1668   1.110   .     S
C1669  H1671   1.111   .     S
C1669  H1672   1.111   .     S
H1670  C1033   1.109   1_565 S
O1673  C1674   1.421   .     S
C1674  C1677   1.524   .     S
C1674  H1675   1.106   .     S
C1674  H1676   1.114   .     S
C1677  H1678   1.109   .     S
C1677  H1680   1.107   .     S
C1677  H1679   1.110   .     S
O1681  C1682   1.417   .     S
C1682  H1683   1.106   .     S
C1682  H1684   1.116   .     S
C1682  C1685   1.521   .     S
C1685  H1688   1.111   .     S
C1685  H1687   1.111   .     S
H1686  C1049   1.108   1_565 S
O1689  C1690   1.422   .     S
C1690  H1691   1.106   .     S
C1690  H1692   1.114   .     S
C1690  C1693   1.522   .     S
C1693  H1695   1.111   .     S
C1693  H1696   1.106   .     S
C1693  H1694   1.109   .     S
C1697  C1706   1.474   .     S
C1697  O1735   1.307   .     A
C1697  O1738   1.307   .     A
C1698  O1737   1.302   .     A
C1698  O1736   1.312   .     A
C1698  C1705   1.475   .     S
C1699  C1724   1.405   .     A
C1699  H1731   1.083   .     S
C1700  H1732   1.083   .     S
C1700  C1723   1.406   .     A
C1700  C772    1.387   1_556 S
C1701  C1763   1.452   .     S
C1701  C1706   1.415   .     A
C1702  C1765   1.452   .     S
C1702  C1705   1.417   .     A
C1702  C1810   1.397   .     S
C1703  C1767   1.446   .     S
C1703  C1705   1.406   .     A
C1703  C1807   1.389   .     S
C1704  C1769   1.450   .     S
C1704  C1706   1.419   .     A
C1707  N1734   1.367   .     A
C1707  O1771   1.384   .     S
C1708  N1733   1.383   .     A
C1708  O1779   1.381   .     S
C1708  C1073   1.430   1_565 S
C1709  O1787   1.384   .     S
C1709  N1734   1.368   .     A
C1710  O1795   1.381   .     S
C1710  N1733   1.385   .     A
C1710  C1071   1.428   1_565 S
C1711  C1716   1.451   .     S
C1711  O1739   1.306   .     A
C1711  O1742   1.296   .     A
C1712  O1740   1.298   .     A
C1712  O1741   1.304   .     A
C1712  C1715   1.451   .     S
C1713  C1723   1.406   .     A
C1713  C1743   1.454   .     S
C1713  C1715   1.406   .     A
C1714  C1724   1.407   .     A
C1714  C1716   1.405   .     A
C1714  C1745   1.450   .     S
C1715  C1717   1.406   .     A
C1716  C1718   1.404   .     A
C1717  O1747   1.392   .     S
C1717  C1719   1.409   .     A
C1718  C1720   1.402   .     A
C1718  O1755   1.385   .     S
C1719  C1725   1.403   .     A
C1719  C1721   1.415   .     A
C1720  C1722   1.413   .     A
C1720  C1726   1.401   .     A
C1721  C1723   1.417   .     A
C1721  C768    1.412   1_556 S
C1722  C1724   1.416   .     A
C1725  H1729   1.080   .     S
C1725  C745    1.388   1_556 S
C1726  H1730   1.081   .     S
Cu1727 O1739   1.959   .     S
Cu1727 Cu1728  2.717   .     S
Cu1727 O1737   1.983   .     S
Cu1727 O1735   1.989   .     S
Cu1727 N1733   2.042   .     S
Cu1727 O1741   1.961   .     S
Cu1728 N1734   2.042   .     S
Cu1728 O1736   1.989   .     S
Cu1728 O1740   1.959   .     S
Cu1728 O1742   1.961   .     S
Cu1728 O1738   1.983   .     S
C1743  N1744   1.157   .     T
C1745  N1746   1.156   .     T
O1747  C1748   1.421   .     S
C1748  C1751   1.519   .     S
C1748  H1750   1.108   .     S
C1748  H1749   1.114   .     S
C1751  H1752   1.111   .     S
C1751  H1753   1.107   .     S
C1751  H1754   1.110   .     S
O1755  C1756   1.413   .     S
C1756  C1759   1.519   .     S
C1756  H1758   1.117   .     S
C1756  H1757   1.108   .     S
C1759  H1761   1.110   .     S
C1759  H1762   1.109   .     S
C1759  H1760   1.109   .     S
C1763  N1764   1.158   .     T
C1765  N1766   1.156   .     T
C1767  N1768   1.155   .     T
C1769  N1770   1.155   .     T
O1771  C1772   1.414   .     S
C1772  C1775   1.521   .     S
C1772  H1773   1.107   .     S
C1772  H1774   1.110   .     S
C1775  H1777   1.111   .     S
C1775  H1778   1.111   .     S
H1776  C1139   1.109   1_565 S
O1779  C1780   1.421   .     S
C1780  C1783   1.524   .     S
C1780  H1781   1.106   .     S
C1780  H1782   1.114   .     S
C1783  H1784   1.109   .     S
C1783  H1786   1.107   .     S
C1783  H1785   1.110   .     S
O1787  C1788   1.417   .     S
C1788  H1789   1.106   .     S
C1788  H1790   1.116   .     S
C1788  C1791   1.521   .     S
C1791  H1794   1.111   .     S
C1791  H1793   1.111   .     S
H1792  C1155   1.108   1_565 S
O1795  C1796   1.422   .     S
C1796  H1797   1.106   .     S
C1796  H1798   1.114   .     S
C1796  C1799   1.522   .     S
C1799  H1801   1.111   .     S
C1799  H1802   1.106   .     S
C1799  H1800   1.109   .     S
C1803  C1812   1.474   .     S
C1803  O1841   1.307   .     A
C1803  O1844   1.307   .     A
C1804  O1843   1.302   .     A
C1804  O1842   1.312   .     A
C1804  C1811   1.475   .     S
C1805  C1830   1.405   .     A
C1805  H1837   1.083   .     S
C1806  H1838   1.083   .     S
C1806  C1829   1.406   .     A
C1806  C878    1.387   1_556 S
C1807  C1869   1.452   .     S
C1807  C1812   1.415   .     A
C1808  C1871   1.452   .     S
C1808  C1811   1.417   .     A
C1808  C1598   1.397   1_655 S
C1809  C1873   1.446   .     S
C1809  C1811   1.406   .     A
C1809  C1595   1.389   1_655 S
C1810  C1875   1.450   .     S
C1810  C1812   1.419   .     A
C1813  N1840   1.367   .     A
C1813  O1877   1.384   .     S
C1814  N1839   1.383   .     A
C1814  O1885   1.381   .     S
C1814  C1179   1.430   1_565 S
C1815  O1893   1.384   .     S
C1815  N1840   1.368   .     A
C1816  O1901   1.381   .     S
C1816  N1839   1.385   .     A
C1816  C1177   1.428   1_565 S
C1817  C1822   1.451   .     S
C1817  O1845   1.306   .     A
C1817  O1848   1.296   .     A
C1818  O1846   1.298   .     A
C1818  O1847   1.304   .     A
C1818  C1821   1.451   .     S
C1819  C1829   1.406   .     A
C1819  C1849   1.454   .     S
C1819  C1821   1.406   .     A
C1820  C1830   1.407   .     A
C1820  C1822   1.405   .     A
C1820  C1851   1.450   .     S
C1821  C1823   1.406   .     A
C1822  C1824   1.404   .     A
C1823  O1853   1.392   .     S
C1823  C1825   1.409   .     A
C1824  C1826   1.402   .     A
C1824  O1861   1.385   .     S
C1825  C1831   1.403   .     A
C1825  C1827   1.415   .     A
C1826  C1828   1.413   .     A
C1826  C1832   1.401   .     A
C1827  C1829   1.417   .     A
C1827  C874    1.412   1_556 S
C1828  C1830   1.416   .     A
C1831  H1835   1.080   .     S
C1831  C851    1.388   1_556 S
C1832  H1836   1.081   .     S
Cu1833 O1845   1.959   .     S
Cu1833 Cu1834  2.717   .     S
Cu1833 O1843   1.983   .     S
Cu1833 O1841   1.989   .     S
Cu1833 N1839   2.042   .     S
Cu1833 O1847   1.961   .     S
Cu1834 N1840   2.042   .     S
Cu1834 O1842   1.989   .     S
Cu1834 O1846   1.959   .     S
Cu1834 O1848   1.961   .     S
Cu1834 O1844   1.983   .     S
C1849  N1850   1.157   .     T
C1851  N1852   1.156   .     T
O1853  C1854   1.421   .     S
C1854  C1857   1.519   .     S
C1854  H1856   1.108   .     S
C1854  H1855   1.114   .     S
C1857  H1858   1.111   .     S
C1857  H1859   1.107   .     S
C1857  H1860   1.110   .     S
O1861  C1862   1.413   .     S
C1862  C1865   1.519   .     S
C1862  H1864   1.117   .     S
C1862  H1863   1.108   .     S
C1865  H1867   1.110   .     S
C1865  H1868   1.109   .     S
C1865  H1866   1.109   .     S
C1869  N1870   1.158   .     T
C1871  N1872   1.156   .     T
C1873  N1874   1.155   .     T
C1875  N1876   1.155   .     T
O1877  C1878   1.414   .     S
C1878  C1881   1.521   .     S
C1878  H1879   1.107   .     S
C1878  H1880   1.110   .     S
C1881  H1883   1.111   .     S
C1881  H1884   1.111   .     S
H1882  C1245   1.109   1_565 S
O1885  C1886   1.421   .     S
C1886  C1889   1.524   .     S
C1886  H1887   1.106   .     S
C1886  H1888   1.114   .     S
C1889  H1890   1.109   .     S
C1889  H1892   1.107   .     S
C1889  H1891   1.110   .     S
O1893  C1894   1.417   .     S
C1894  H1895   1.106   .     S
C1894  H1896   1.116   .     S
C1894  C1897   1.521   .     S
C1897  H1900   1.111   .     S
C1897  H1899   1.111   .     S
H1898  C1261   1.108   1_565 S
O1901  C1902   1.422   .     S
C1902  H1903   1.106   .     S
C1902  H1904   1.114   .     S
C1902  C1905   1.522   .     S
C1905  H1907   1.111   .     S
C1905  H1908   1.106   .     S
C1905  H1906   1.109   .     S
